data_GEN-MOF-1

_audit_creation_date              2025-04-12
_audit_creation_method            'Generated by Claude 3.7 Sonnet'
_symmetry_space_group_name_H-M    'P6/mmm'
_symmetry_Int_Tables_number       191
_symmetry_cell_setting            hexagonal

_cell_length_a                    22.1053
_cell_length_b                    22.1053
_cell_length_c                    6.6315
_cell_angle_alpha                 90.0000
_cell_angle_beta                  90.0000
_cell_angle_gamma                 120.0000
_cell_volume                      2826.44

loop_
_symmetry_equiv_pos_as_xyz
  'x, y, z'
  '-x, -y, z'
  '-y, x-y, z'
  'x-y, x, z'
  'y, -x+y, -z'
  'x, y, -z'
  '-x, -y, -z'
  'x, y, -z'
  'y, -x+y, -z'
  '-x+y, -x, -z'
  '-y, x-y, z'
  '-x, -y, z'

loop_
_atom_site_label
_atom_site_type_symbol
_atom_site_fract_x
_atom_site_fract_y
_atom_site_fract_z
_atom_site_U_iso_or_equiv
_atom_site_adp_type
_atom_site_occupancy
Al1  Al  0.33333  0.66667  0.00000  0.01267  Uiso  1.0
Al2  Al  0.66667  0.33333  0.00000  0.01267  Uiso  1.0
O1   O   0.37892  0.75784  0.00000  0.01900  Uiso  1.0
O2   O   0.75784  0.37892  0.00000  0.01900  Uiso  1.0
O3   O   0.62108  0.37892  0.00000  0.01900  Uiso  1.0
O4   O   0.24216  0.62108  0.00000  0.01900  Uiso  1.0
O5   O   0.37892  0.62108  0.00000  0.01900  Uiso  1.0
O6   O   0.62108  0.24216  0.00000  0.01900  Uiso  1.0
C1   C   0.43218  0.86436  0.00000  0.01583  Uiso  1.0
C2   C   0.86436  0.43218  0.00000  0.01583  Uiso  1.0
C3   C   0.56782  0.43218  0.00000  0.01583  Uiso  1.0
C4   C   0.13564  0.56782  0.00000  0.01583  Uiso  1.0
C5   C   0.43218  0.56782  0.00000  0.01583  Uiso  1.0
C6   C   0.56782  0.13564  0.00000  0.01583  Uiso  1.0
C7   C   0.47386  0.94772  0.00000  0.01583  Uiso  1.0
C8   C   0.94772  0.47386  0.00000  0.01583  Uiso  1.0
C9   C   0.52614  0.47386  0.00000  0.01583  Uiso  1.0
C10  C   0.05228  0.52614  0.00000  0.01583  Uiso  1.0
C11  C   0.47386  0.52614  0.00000  0.01583  Uiso  1.0
C12  C   0.52614  0.05228  0.00000  0.01583  Uiso  1.0
C13  C   0.45123  0.90246  0.00000  0.01583  Uiso  1.0
C14  C   0.90246  0.45123  0.00000  0.01583  Uiso  1.0
C15  C   0.54877  0.45123  0.00000  0.01583  Uiso  1.0
C16  C   0.09754  0.54877  0.00000  0.01583  Uiso  1.0
C17  C   0.45123  0.54877  0.00000  0.01583  Uiso  1.0
C18  C   0.54877  0.09754  0.00000  0.01583  Uiso  1.0
H1   H   0.48723  0.97446  0.00000  0.01900  Uiso  1.0
H2   H   0.97446  0.48723  0.00000  0.01900  Uiso  1.0
H3   H   0.51277  0.48723  0.00000  0.01900  Uiso  1.0
H4   H   0.02554  0.51277  0.00000  0.01900  Uiso  1.0
H5   H   0.48723  0.51277  0.00000  0.01900  Uiso  1.0
H6   H   0.51277  0.02554  0.00000  0.01900  Uiso  1.0

# NDC (Naphthalene Dicarboxylate) linker coordinates
C19  C   0.35000  0.70000  0.25000  0.01583  Uiso  1.0
C20  C   0.70000  0.35000  0.25000  0.01583  Uiso  1.0
C21  C   0.65000  0.35000  0.25000  0.01583  Uiso  1.0
C22  C   0.30000  0.65000  0.25000  0.01583  Uiso  1.0
C23  C   0.35000  0.65000  0.25000  0.01583  Uiso  1.0
C24  C   0.65000  0.30000  0.25000  0.01583  Uiso  1.0
C25  C   0.33000  0.66000  0.37500  0.01583  Uiso  1.0
C26  C   0.66000  0.33000  0.37500  0.01583  Uiso  1.0
C27  C   0.67000  0.33000  0.37500  0.01583  Uiso  1.0
C28  C   0.34000  0.67000  0.37500  0.01583  Uiso  1.0
C29  C   0.33000  0.67000  0.37500  0.01583  Uiso  1.0
C30  C   0.67000  0.34000  0.37500  0.01583  Uiso  1.0

# Linker-24 coordinates
C31  C   0.40000  0.80000  0.25000  0.01583  Uiso  1.0
C32  C   0.80000  0.40000  0.25000  0.01583  Uiso  1.0
C33  C   0.60000  0.40000  0.25000  0.01583  Uiso  1.0
C34  C   0.20000  0.60000  0.25000  0.01583  Uiso  1.0
C35  C   0.40000  0.60000  0.25000  0.01583  Uiso  1.0
C36  C   0.60000  0.20000  0.25000  0.01583  Uiso  1.0
C37  C   0.42000  0.84000  0.37500  0.01583  Uiso  1.0
C38  C   0.84000  0.42000  0.37500  0.01583  Uiso  1.0
C39  C   0.58000  0.42000  0.37500  0.01583  Uiso  1.0
C40  C   0.16000  0.58000  0.37500  0.01583  Uiso  1.0
C41  C   0.42000  0.58000  0.37500  0.01583  Uiso  1.0
C42  C   0.58000  0.16000  0.37500  0.01583  Uiso  1.0
O7   O   0.38000  0.76000  0.25000  0.01900  Uiso  1.0
O8   O   0.76000  0.38000  0.25000  0.01900  Uiso  1.0
O9   O   0.62000  0.38000  0.25000  0.01900  Uiso  1.0
O10  O   0.24000  0.62000  0.25000  0.01900  Uiso  1.0
O11  O   0.38000  0.62000  0.25000  0.01900  Uiso  1.0
O12  O   0.62000  0.24000  0.25000  0.01900  Uiso  1.0

_geom_bond_atom_site_label_1
_geom_bond_atom_site_label_2
_geom_bond_distance
_geom_bond_site_symmetry_2
_geom_bond_publ_flag
Al1  O1   1.935  .  yes
Al1  O4   1.935  .  yes
Al1  O5   1.935  .  yes
Al2  O2   1.935  .  yes
Al2  O3   1.935  .  yes
Al2  O6   1.935  .  yes
O1   C1   1.270  .  yes
O2   C2   1.270  .  yes
O3   C3   1.270  .  yes
O4   C4   1.270  .  yes
O5   C5   1.270  .  yes
O6   C6   1.270  .  yes
C1   C13  1.485  .  yes
C2   C14  1.485  .  yes
C3   C15  1.485  .  yes
C4   C16  1.485  .  yes
C5   C17  1.485  .  yes
C6   C18  1.485  .  yes
C7   C13  1.390  .  yes
C8   C14  1.390  .  yes
C9   C15  1.390  .  yes
C10  C16  1.390  .  yes
C11  C17  1.390  .  yes
C12  C18  1.390  .  yes
C7   H1   0.930  .  yes
C8   H2   0.930  .  yes
C9   H3   0.930  .  yes
C10  H4   0.930  .  yes
C11  H5   0.930  .  yes
C12  H6   0.930  .  yes
C19  C25  1.390  .  yes
C20  C26  1.390  .  yes
C21  C27  1.390  .  yes
C22  C28  1.390  .  yes
C23  C29  1.390  .  yes
C24  C30  1.390  .  yes
C31  C37  1.390  .  yes
C32  C38  1.390  .  yes
C33  C39  1.390  .  yes
C34  C40  1.390  .  yes
C35  C41  1.390  .  yes
C36  C42  1.390  .  yes
O7   C31  1.270  .  yes
O8   C32  1.270  .  yes
O9   C33  1.270  .  yes
O10  C34  1.270  .  yes
O11  C35  1.270  .  yes
O12  C36  1.270  .  yes