data_GEN-MOF-9

_audit_creation_date              2025-04-12
_audit_creation_method            'Generated by Claude 3.7 Sonnet'
_symmetry_space_group_name_H-M    'P6/mmm'
_symmetry_Int_Tables_number       191
_symmetry_cell_setting            hexagonal

_cell_length_a                    22.0863
_cell_length_b                    22.0863
_cell_length_c                    6.6273
_cell_angle_alpha                 90.0000
_cell_angle_beta                  90.0000
_cell_angle_gamma                 120.0000
_cell_volume                      2819.79

loop_
_symmetry_equiv_pos_as_xyz
  'x, y, z'
  '-x, -y, z'
  '-y, x-y, z'
  'x-y, x, z'
  'y, -x+y, -z'
  'x, y, -z'
  '-x, -y, -z'
  'x, y, -z'
  'y, -x+y, -z'
  '-x+y, -x, -z'
  '-y, x-y, z'
  '-x, -y, z'

loop_
_atom_site_label
_atom_site_type_symbol
_atom_site_fract_x
_atom_site_fract_y
_atom_site_fract_z
_atom_site_U_iso_or_equiv
_atom_site_adp_type
_atom_site_occupancy
Al1  Al  0.33333  0.66667  0.00000  0.01267  Uiso  1.0
Al2  Al  0.66667  0.33333  0.00000  0.01267  Uiso  1.0
O1   O   0.37891  0.75782  0.00000  0.01900  Uiso  1.0
O2   O   0.75782  0.37891  0.00000  0.01900  Uiso  1.0
O3   O   0.62109  0.37891  0.00000  0.01900  Uiso  1.0
O4   O   0.24218  0.62109  0.00000  0.01900  Uiso  1.0
O5   O   0.37891  0.62109  0.00000  0.01900  Uiso  1.0
O6   O   0.62109  0.24218  0.00000  0.01900  Uiso  1.0
C1   C   0.43219  0.86438  0.00000  0.01583  Uiso  1.0
C2   C   0.86438  0.43219  0.00000  0.01583  Uiso  1.0
C3   C   0.56781  0.43219  0.00000  0.01583  Uiso  1.0
C4   C   0.13562  0.56781  0.00000  0.01583  Uiso  1.0
C5   C   0.43219  0.56781  0.00000  0.01583  Uiso  1.0
C6   C   0.56781  0.13562  0.00000  0.01583  Uiso  1.0
C7   C   0.47385  0.94770  0.00000  0.01583  Uiso  1.0
C8   C   0.94770  0.47385  0.00000  0.01583  Uiso  1.0
C9   C   0.52615  0.47385  0.00000  0.01583  Uiso  1.0
C10  C   0.05230  0.52615  0.00000  0.01583  Uiso  1.0
C11  C   0.47385  0.52615  0.00000  0.01583  Uiso  1.0
C12  C   0.52615  0.05230  0.00000  0.01583  Uiso  1.0
C13  C   0.45124  0.90248  0.00000  0.01583  Uiso  1.0
C14  C   0.90248  0.45124  0.00000  0.01583  Uiso  1.0
C15  C   0.54876  0.45124  0.00000  0.01583  Uiso  1.0
C16  C   0.09752  0.54876  0.00000  0.01583  Uiso  1.0
C17  C   0.45124  0.54876  0.00000  0.01583  Uiso  1.0
C18  C   0.54876  0.09752  0.00000  0.01583  Uiso  1.0
H1   H   0.48724  0.97448  0.00000  0.01900  Uiso  1.0
H2   H   0.97448  0.48724  0.00000  0.01900  Uiso  1.0
H3   H   0.51276  0.48724  0.00000  0.01900  Uiso  1.0
H4   H   0.02552  0.51276  0.00000  0.01900  Uiso  1.0
H5   H   0.48724  0.51276  0.00000  0.01900  Uiso  1.0
H6   H   0.51276  0.02552  0.00000  0.01900  Uiso  1.0

# NDC (Naphthalene Dicarboxylate) linker coordinates
C19  C   0.35000  0.70000  0.25000  0.01583  Uiso  1.0
C20  C   0.70000  0.35000  0.25000  0.01583  Uiso  1.0
C21  C   0.65000  0.35000  0.25000  0.01583  Uiso  1.0
C22  C   0.30000  0.65000  0.25000  0.01583  Uiso  1.0
C23  C   0.35000  0.65000  0.25000  0.01583  Uiso  1.0
C24  C   0.65000  0.30000  0.25000  0.01583  Uiso  1.0
C25  C   0.33000  0.66000  0.37500  0.01583  Uiso  1.0
C26  C   0.66000  0.33000  0.37500  0.01583  Uiso  1.0
C27  C   0.67000  0.33000  0.37500  0.01583  Uiso  1.0
C28  C   0.34000  0.67000  0.37500  0.01583  Uiso  1.0
C29  C   0.33000  0.67000  0.37500  0.01583  Uiso  1.0
C30  C   0.67000  0.34000  0.37500  0.01583  Uiso  1.0

# Linker-24 coordinates
C31  C   0.40000  0.80000  0.25000  0.01583  Uiso  1.0
C32  C   0.80000  0.40000  0.25000  0.01583  Uiso  1.0
C33  C   0.60000  0.40000  0.25000  0.01583  Uiso  1.0
C34  C   0.20000  0.60000  0.25000  0.01583  Uiso  1.0
C35  C   0.40000  0.60000  0.25000  0.01583  Uiso  1.0
C36  C   0.60000  0.20000  0.25000  0.01583  Uiso  1.0
C37  C   0.42000  0.84000  0.37500  0.01583  Uiso  1.0
C38  C   0.84000  0.42000  0.37500  0.01583  Uiso  1.0
C39  C   0.58000  0.42000  0.37500  0.01583  Uiso  1.0
C40  C   0.16000  0.58000  0.37500  0.01583  Uiso  1.0
C41  C   0.42000  0.58000  0.37500  0.01583  Uiso  1.0
C42  C   0.58000  0.16000  0.37500  0.01583  Uiso  1.0
O7   O   0.38000  0.76000  0.25000  0.01900  Uiso  1.0
O8   O   0.76000  0.38000  0.25000  0.01900  Uiso  1.0
O9   O   0.62000  0.38000  0.25000  0.01900  Uiso  1.0
O10  O   0.24000  0.62000  0.25000  0.01900  Uiso  1.0
O11  O   0.38000  0.62000  0.25000  0.01900  Uiso  1.0
O12  O   0.62000  0.24000  0.25000  0.01900  Uiso  1.0

# Et (ethyl) functional groups at standard positions
C43  C   0.32500  0.65000  0.40000  0.01583  Uiso  1.0
C44  C   0.31000  0.62000  0.45000  0.01583  Uiso  1.0
H7   H   0.30000  0.60000  0.42000  0.01900  Uiso  1.0
H8   H   0.33000  0.61000  0.48000  0.01900  Uiso  1.0
H9   H   0.28000  0.63000  0.47000  0.01900  Uiso  1.0

C45  C   0.65000  0.32500  0.40000  0.01583  Uiso  1.0
C46  C   0.62000  0.31000  0.45000  0.01583  Uiso  1.0
H10  H   0.60000  0.30000  0.42000  0.01900  Uiso  1.0
H11  H   0.61000  0.33000  0.48000  0.01900  Uiso  1.0
H12  H   0.63000  0.28000  0.47000  0.01900  Uiso  1.0

C47  C   0.43000  0.57000  0.40000  0.01583  Uiso  1.0
C48  C   0.45000  0.55000  0.45000  0.01583  Uiso  1.0
H13  H   0.47000  0.53000  0.42000  0.01900  Uiso  1.0
H14  H   0.46000  0.57000  0.48000  0.01900  Uiso  1.0
H15  H   0.42000  0.53000  0.47000  0.01900  Uiso  1.0

C49  C   0.57000  0.43000  0.40000  0.01583  Uiso  1.0
C50  C   0.55000  0.45000  0.45000  0.01583  Uiso  1.0
H16  H   0.53000  0.47000  0.42000  0.01900  Uiso  1.0
H17  H   0.57000  0.46000  0.48000  0.01900  Uiso  1.0
H18  H   0.53000  0.42000  0.47000  0.01900  Uiso  1.0

_geom_bond_atom_site_label_1
_geom_bond_atom_site_label_2
_geom_bond_distance
_geom_bond_site_symmetry_2
_geom_bond_publ_flag
Al1  O1   1.935  .  yes
Al1  O4   1.935  .  yes
Al1  O5   1.935  .  yes
Al2  O2   1.935  .  yes
Al2  O3   1.935  .  yes
Al2  O6   1.935  .  yes
O1   C1   1.270  .  yes
O2   C2   1.270  .  yes
O3   C3   1.270  .  yes
O4   C4   1.270  .  yes
O5   C5   1.270  .  yes
O6   C6   1.270  .  yes
C1   C13  1.485  .  yes
C2   C14  1.485  .  yes
C3   C15  1.485  .  yes
C4   C16  1.485  .  yes
C5   C17  1.485  .  yes
C6   C18  1.485  .  yes
C7   C13  1.390  .  yes
C8   C14  1.390  .  yes
C9   C15  1.390  .  yes
C10  C16  1.390  .  yes
C11  C17  1.390  .  yes
C12  C18  1.390  .  yes
C7   H1   0.930  .  yes
C8   H2   0.930  .  yes
C9   H3   0.930  .  yes
C10  H4   0.930  .  yes
C11  H5   0.930  .  yes
C12  H6   0.930  .  yes
C19  C25  1.390  .  yes
C20  C26  1.390  .  yes
C21  C27  1.390  .  yes
C22  C28  1.390  .  yes
C23  C29  1.390  .  yes
C24  C30  1.390  .  yes
C31  C37  1.390  .  yes
C32  C38  1.390  .  yes
C33  C39  1.390  .  yes
C34  C40  1.390  .  yes
C35  C41  1.390  .  yes
C36  C42  1.390  .  yes
O7   C31  1.270  .  yes
O8   C32  1.270  .  yes
O9   C33  1.270  .  yes
O10  C34  1.270  .  yes
O11  C35  1.270  .  yes
O12  C36  1.270  .  yes
C29  C43  1.520  .  yes
C43  C44  1.520  .  yes
C44  H7   0.980  .  yes
C44  H8   0.980  .  yes
C44  H9   0.980  .  yes
C30  C45  1.520  .  yes
C45  C46  1.520  .  yes
C46  H10  0.980  .  yes
C46  H11  0.980  .  yes
C46  H12  0.980  .  yes
C41  C47  1.520  .  yes
C47  C48  1.520  .  yes
C48  H13  0.980  .  yes
C48  H14  0.980  .  yes
C48  H15  0.980  .  yes
C39  C49  1.520  .  yes
C49  C50  1.520  .  yes
C50  H16  0.980  .  yes
C50  H17  0.980  .  yes
C50  H18  0.980  .  yes0.01583