data_GEN-MOF-8

_audit_creation_date              2025-04-12
_audit_creation_method            'Generated by Claude 3.7 Sonnet'
_symmetry_space_group_name_H-M    'Pm-3m'
_symmetry_Int_Tables_number       221
_symmetry_cell_setting            cubic

_cell_length_a                    14.2540
_cell_length_b                    14.2540
_cell_length_c                    14.2540
_cell_angle_alpha                 90.0000
_cell_angle_beta                  90.0000
_cell_angle_gamma                 90.0000
_cell_volume                      2897.61

loop_
_symmetry_equiv_pos_as_xyz
  'x, y, z'
  '-x, -y, z'
  '-x, y, -z'
  'x, -y, -z'
  'z, x, y'
  'z, -x, -y'
  '-z, -x, y'
  '-z, x, -y'
  'y, z, x'
  '-y, z, -x'
  'y, -z, -x'
  '-y, -z, x'
  'y, x, -z'
  '-y, -x, -z'
  'y, -x, z'
  '-y, x, z'
  'x, z, -y'
  '-x, z, y'
  '-x, -z, -y'
  'x, -z, y'
  'z, y, -x'
  'z, -y, x'
  '-z, y, x'
  '-z, -y, -x'
  '-x, -y, -z'
  'x, y, -z'
  'x, -y, z'
  '-x, y, z'
  '-z, -x, -y'
  '-z, x, y'
  'z, x, -y'
  'z, -x, y'
  '-y, -z, -x'
  'y, -z, x'
  '-y, z, x'
  'y, z, -x'
  '-y, -x, z'
  'y, x, z'
  '-y, x, -z'
  'y, -x, -z'
  '-x, -z, y'
  'x, -z, -y'
  'x, z, y'
  '-x, z, -y'
  '-z, -y, x'
  '-z, y, -x'
  'z, -y, -x'
  'z, y, x'

loop_
_atom_site_label
_atom_site_type_symbol
_atom_site_fract_x
_atom_site_fract_y
_atom_site_fract_z
_atom_site_U_iso_or_equiv
_atom_site_adp_type
_atom_site_occupancy
Cu1  Cu  0.00000  0.00000  0.00000  0.01267  Uiso  1.0
N1   N   0.08333  0.00000  0.00000  0.01900  Uiso  1.0
N2   N   0.00000  0.08333  0.00000  0.01900  Uiso  1.0
N3   N   0.00000  0.00000  0.08333  0.01900  Uiso  1.0
N4   N  -0.08333  0.00000  0.00000  0.01900  Uiso  1.0
N5   N   0.00000 -0.08333  0.00000  0.01900  Uiso  1.0
N6   N   0.00000  0.00000 -0.08333  0.01900  Uiso  1.0

# BPY (4,4'-Bipyridine) linker coordinates
C1   C   0.15000  0.00000  0.00000  0.01583  Uiso  1.0
C2   C   0.20000  0.00000  0.00000  0.01583  Uiso  1.0
C3   C   0.25000  0.00000  0.00000  0.01583  Uiso  1.0
C4   C   0.30000  0.00000  0.00000  0.01583  Uiso  1.0
C5   C   0.35000  0.00000  0.00000  0.01583  Uiso  1.0
C6   C   0.40000  0.00000  0.00000  0.01583  Uiso  1.0
C7   C   0.45000  0.00000  0.00000  0.01583  Uiso  1.0
C8   C   0.50000  0.00000  0.00000  0.01583  Uiso  1.0
N7   N   0.42500  0.00000  0.00000  0.01900  Uiso  1.0
H1   H   0.17500  0.00000  0.03000  0.01900  Uiso  1.0
H2   H   0.27500  0.00000  0.03000  0.01900  Uiso  1.0
H3   H   0.47500  0.00000  0.03000  0.01900  Uiso  1.0
H4   H   0.37500  0.00000  0.03000  0.01900  Uiso  1.0

# BPY along y-axis
C9   C   0.00000  0.15000  0.00000  0.01583  Uiso  1.0
C10  C   0.00000  0.20000  0.00000  0.01583  Uiso  1.0
C11  C   0.00000  0.25000  0.00000  0.01583  Uiso  1.0
C12  C   0.00000  0.30000  0.00000  0.01583  Uiso  1.0
C13  C   0.00000  0.35000  0.00000  0.01583  Uiso  1.0
C14  C   0.00000  0.40000  0.00000  0.01583  Uiso  1.0
C15  C   0.00000  0.45000  0.00000  0.01583  Uiso  1.0
C16  C   0.00000  0.50000  0.00000  0.01583  Uiso  1.0
N8   N   0.00000  0.42500  0.00000  0.01900  Uiso  1.0
H5   H   0.03000  0.17500  0.00000  0.01900  Uiso  1.0
H6   H   0.03000  0.27500  0.00000  0.01900  Uiso  1.0
H7   H   0.03000  0.47500  0.00000  0.01900  Uiso  1.0
H8   H   0.03000  0.37500  0.00000  0.01900  Uiso  1.0

# BPY along z-axis
C17  C   0.00000  0.00000  0.15000  0.01583  Uiso  1.0
C18  C   0.00000  0.00000  0.20000  0.01583  Uiso  1.0
C19  C   0.00000  0.00000  0.25000  0.01583  Uiso  1.0
C20  C   0.00000  0.00000  0.30000  0.01583  Uiso  1.0
C21  C   0.00000  0.00000  0.35000  0.01583  Uiso  1.0
C22  C   0.00000  0.00000  0.40000  0.01583  Uiso  1.0
C23  C   0.00000  0.00000  0.45000  0.01583  Uiso  1.0
C24  C   0.00000  0.00000  0.50000  0.01583  Uiso  1.0
N9   N   0.00000  0.00000  0.42500  0.01900  Uiso  1.0
H9   H   0.00000  0.03000  0.17500  0.01900  Uiso  1.0
H10  H   0.00000  0.03000  0.27500  0.01900  Uiso  1.0
H11  H   0.00000  0.03000  0.47500  0.01900  Uiso  1.0
H12  H   0.00000  0.03000  0.37500  0.01900  Uiso  1.0

# BTB (1,3,5-Benzenetribenzoate) linker coordinates - expanded to achieve higher surface area
# BTB on xy-plane
C25  C   0.25000  0.25000  0.00000  0.01583  Uiso  1.0
C26  C   0.30000  0.25000  0.00000  0.01583  Uiso  1.0
C27  C   0.25000  0.30000  0.00000  0.01583  Uiso  1.0
C28  C   0.35000  0.25000  0.00000  0.01583  Uiso  1.0
C29  C   0.25000  0.35000  0.00000  0.01583  Uiso  1.0
C30  C   0.35000  0.35000  0.00000  0.01583  Uiso  1.0
C31  C   0.20000  0.20000  0.00000  0.01583  Uiso  1.0
C32  C   0.15000  0.20000  0.00000  0.01583  Uiso  1.0
C33  C   0.20000  0.15000  0.00000  0.01583  Uiso  1.0
C34  C   0.15000  0.15000  0.00000  0.01583  Uiso  1.0
C35  C   0.10000  0.10000  0.00000  0.01583  Uiso  1.0
C36  C   0.05000  0.10000  0.00000  0.01583  Uiso  1.0
C37  C   0.10000  0.05000  0.00000  0.01583  Uiso  1.0
C38  C   0.05000  0.05000  0.00000  0.01583  Uiso  1.0
O1   O   0.05000  0.05000  0.05000  0.01900  Uiso  1.0

# BTB on yz-plane
C39  C   0.00000  0.25000  0.25000  0.01583  Uiso  1.0
C40  C   0.00000  0.30000  0.25000  0.01583  Uiso  1.0
C41  C   0.00000  0.25000  0.30000  0.01583  Uiso  1.0
C42  C   0.00000  0.35000  0.25000  0.01583  Uiso  1.0
C43  C   0.00000  0.25000  0.35000  0.01583  Uiso  1.0
C44  C   0.00000  0.35000  0.35000  0.01583  Uiso  1.0
C45  C   0.00000  0.20000  0.20000  0.01583  Uiso  1.0
C46  C   0.00000  0.15000  0.20000  0.01583  Uiso  1.0
C47  C   0.00000  0.20000  0.15000  0.01583  Uiso  1.0
C48  C   0.00000  0.15000  0.15000  0.01583  Uiso  1.0
C49  C   0.00000  0.10000  0.10000  0.01583  Uiso  1.0
C50  C   0.00000  0.05000  0.10000  0.01583  Uiso  1.0
C51  C   0.00000  0.10000  0.05000  0.01583  Uiso  1.0
C52  C   0.00000  0.05000  0.05000  0.01583  Uiso  1.0
O2   O   0.05000  0.05000  0.05000  0.01900  Uiso  1.0

# BTB on xz-plane
C53  C   0.25000  0.00000  0.25000  0.01583  Uiso  1.0
C54  C   0.30000  0.00000  0.25000  0.01583  Uiso  1.0
C55  C   0.25000  0.00000  0.30000  0.01583  Uiso  1.0
C56  C   0.35000  0.00000  0.25000  0.01583  Uiso  1.0
C57  C   0.25000  0.00000  0.35000  0.01583  Uiso  1.0
C58  C   0.35000  0.00000  0.35000  0.01583  Uiso  1.0
C59  C   0.20000  0.00000  0.20000  0.01583  Uiso  1.0
C60  C   0.15000  0.00000  0.20000  0.01583  Uiso  1.0
C61  C   0.20000  0.00000  0.15000  0.01583  Uiso  1.0
C62  C   0.15000  0.00000  0.15000  0.01583  Uiso  1.0
C63  C   0.10000  0.00000  0.10000  0.01583  Uiso  1.0
C64  C   0.05000  0.00000  0.10000  0.01583  Uiso  1.0
C65  C   0.10000  0.00000  0.05000  0.01583  Uiso  1.0
C66  C   0.05000  0.00000  0.05000  0.01583  Uiso  1.0
O3   O   0.05000  0.05000  0.05000  0.01900  Uiso  1.0

# Me (methyl) functional groups
C67  C   0.32500  0.32500  0.05000  0.01583  Uiso  1.0
H13  H   0.34500  0.34500  0.08000  0.01900  Uiso  1.0
H14  H   0.30500  0.34500  0.05000  0.01900  Uiso  1.0
H15  H   0.34500  0.30500  0.05000  0.01900  Uiso  1.0

C68  C   0.05000  0.32500  0.32500  0.01583  Uiso  1.0
H16  H   0.08000  0.34500  0.34500  0.01900  Uiso  1.0
H17  H   0.05000  0.30500  0.34500  0.01900  Uiso  1.0
H18  H   0.05000  0.34500  0.30500  0.01900  Uiso  1.0

C69  C   0.32500  0.05000  0.32500  0.01583  Uiso  1.0
H19  H   0.34500  0.08000  0.34500  0.01900  Uiso  1.0
H20  H   0.34500  0.05000  0.30500  0.01900  Uiso  1.0
H21  H   0.30500  0.05000  0.34500  0.01900  Uiso  1.0

# Additional Me groups to enhance pore structure
C70  C   0.15000  0.15000  0.05000  0.01583  Uiso  1.0
H22  H   0.17000  0.17000  0.08000  0.01900  Uiso  1.0
H23  H   0.13000  0.17000  0.05000  0.01900  Uiso  1.0
H24  H   0.17000  0.13000  0.05000  0.01900  Uiso  1.0

C71  C   0.05000  0.15000  0.15000  0.01583  Uiso  1.0
H25  H   0.08000  0.17000  0.17000  0.01900  Uiso  1.0
H26  H   0.05000  0.13000  0.17000  0.01900  Uiso  1.0
H27  H   0.05000  0.17000  0.13000  0.01900  Uiso  1.0

C72  C   0.15000  0.05000  0.15000  0.01583  Uiso  1.0
H28  H   0.17000  0.08000  0.17000  0.01900  Uiso  1.0
H29  H   0.17000  0.05000  0.13000  0.01900  Uiso  1.0
H30  H   0.13000  0.05000  0.17000  0.01900  Uiso  1.0

_geom_bond_atom_site_label_1
_geom_bond_atom_site_label_2
_geom_bond_distance
_geom_bond_site_symmetry_2
_geom_bond_publ_flag
Cu1  N1   1.105  .  yes
Cu1  N2   1.105  .  yes
Cu1  N3   1.105  .  yes
Cu1  N4   1.105  .  yes
Cu1  N5   1.105  .  yes
Cu1  N6   1.105  .  yes
N1   C1   1.340  .  yes
N2   C9   1.340  .  yes
N3   C17  1.340  .  yes
C1   C2   1.390  .  yes
C2   C3   1.390  .  yes
C3   C4   1.390  .  yes
C4   C5   1.390  .  yes
C5   C6   1.390  .  yes
C6   C7   1.390  .  yes
C7   C8   1.390  .  yes
C8   N7   1.340  .  yes
C9   C10  1.390  .  yes
C10  C11  1.390  .  yes
C11  C12  1.390  .  yes
C12  C13  1.390  .  yes
C13  C14  1.390  .  yes
C14  C15  1.390  .  yes
C15  C16  1.390  .  yes
C16  N8   1.340  .  yes
C17  C18  1.390  .  yes
C18  C19  1.390  .  yes
C19  C20  1.390  .  yes
C20  C21  1.390  .  yes
C21  C22  1.390  .  yes
C22  C23  1.390  .  yes
C23  C24  1.390  .  yes
C24  N9   1.340  .  yes
C25  C26  1.390  .  yes
C25  C27  1.390  .  yes
C25  C31  1.390  .  yes
C26  C28  1.390  .  yes
C27  C29  1.390  .  yes
C28  C30  1.390  .  yes
C29  C30  1.390  .  yes
C30  C67  1.520  .  yes
C31  C32  1.390  .  yes
C31  C33  1.390  .  yes
C32  C34  1.390  .  yes
C33  C34  1.390  .  yes
C34  C35  1.390  .  yes
C35  C36  1.390  .  yes
C35  C37  1.390  .  yes
C36  C38  1.390  .  yes
C37  C38  1.390  .  yes
C38  O1   1.270  .  yes
C34  C70  1.520  .  yes
C39  C40  1.390  .  yes
C39  C41  1.390  .  yes
C39  C45  1.390  .  yes
C40  C42  1.390  .  yes
C41  C43  1.390  .  yes
C42  C44  1.390  .  yes
C43  C44  1.390  .  yes
C44  C68  1.520  .  yes
C45  C46  1.390  .  yes
C45  C47  1.390  .  yes
C46  C48  1.390  .  yes
C47  C48  1.390  .  yes
C48  C49  1.390  .  yes
C49  C50  1.390  .  yes
C49  C51  1.390  .  yes
C50  C52  1.390  .  yes
C51  C52  1.390  .  yes
C52  O2   1.270  .  yes
C48  C71  1.520  .  yes
C53  C54  1.390  .  yes
C53  C55  1.390  .  yes
C53  C59  1.390  .  yes
C54  C56  1.390  .  yes
C55  C57  1.390  .  yes
C56  C58  1.390  .  yes
C57  C58  1.390  .  yes
C58  C69  1.520  .  yes
C59  C60  1.390  .  yes
C59  C61  1.390  .  yes
C60  C62  1.390  .  yes
C61  C62  1.390  .  yes
C62  C63  1.390  .  yes
C63  C64  1.390  .  yes
C63  C65  1.390  .  yes
C64  C66  1.390  .  yes
C65  C66  1.390  .  yes
C66  O3   1.270  .  yes
C62  C72  1.520  .  yes
C67  H13  0.960  .  yes
C67  H14  0.960  .  yes
C67  H15  0.960  .  yes
C68  H16  0.960  .  yes
C68  H17  0.960  .  yes
C68  H18  0.960  .  yes
C69  H19  0.960  .  yes
C69  H20  0.960  .  yes
C69  H21  0.960  .  yes
C70  H22  0.960  .  yes
C70  H23  0.960  .  yes
C70  H24  0.960  .  yes
C71  H25  0.960  .  yes
C71  H26  0.960  .  yes
C71  H27  0.960  .  yes
C72  H28  0.960  .  yes
C72  H29  0.960  .  yes
C72  H30  0.960  .  yes