data_GEN-MOF-6

_audit_creation_date              2025-04-12
_audit_creation_method            'Generated by Claude 3.7 Sonnet'
_symmetry_space_group_name_H-M    'Pm-3m'
_symmetry_Int_Tables_number       221
_symmetry_cell_setting            cubic

_cell_length_a                    14.9853
_cell_length_b                    14.9853
_cell_length_c                    14.9853
_cell_angle_alpha                 90.0000
_cell_angle_beta                  90.0000
_cell_angle_gamma                 90.0000
_cell_volume                      3368.46

loop_
_symmetry_equiv_pos_as_xyz
  'x, y, z'
  '-x, -y, z'
  '-x, y, -z'
  'x, -y, -z'
  'z, x, y'
  'z, -x, -y'
  '-z, -x, y'
  '-z, x, -y'
  'y, z, x'
  '-y, z, -x'
  'y, -z, -x'
  '-y, -z, x'
  'y, x, -z'
  '-y, -x, -z'
  'y, -x, z'
  '-y, x, z'
  'x, z, -y'
  '-x, z, y'
  '-x, -z, -y'
  'x, -z, y'
  'z, y, -x'
  'z, -y, x'
  '-z, y, x'
  '-z, -y, -x'
  '-x, -y, -z'
  'x, y, -z'
  'x, -y, z'
  '-x, y, z'
  '-z, -x, -y'
  '-z, x, y'
  'z, x, -y'
  'z, -x, y'
  '-y, -z, -x'
  'y, -z, x'
  '-y, z, x'
  'y, z, -x'
  '-y, -x, z'
  'y, x, z'
  '-y, x, -z'
  'y, -x, -z'
  '-x, -z, y'
  'x, -z, -y'
  'x, z, y'
  '-x, z, -y'
  '-z, -y, x'
  '-z, y, -x'
  'z, -y, -x'
  'z, y, x'

loop_
_atom_site_label
_atom_site_type_symbol
_atom_site_fract_x
_atom_site_fract_y
_atom_site_fract_z
_atom_site_U_iso_or_equiv
_atom_site_adp_type
_atom_site_occupancy
Cu1  Cu  0.00000  0.00000  0.00000  0.01267  Uiso  1.0
N1   N   0.07500  0.00000  0.00000  0.01900  Uiso  1.0
N2   N   0.00000  0.07500  0.00000  0.01900  Uiso  1.0
N3   N   0.00000  0.00000  0.07500  0.01900  Uiso  1.0
N4   N  -0.07500  0.00000  0.00000  0.01900  Uiso  1.0
N5   N   0.00000 -0.07500  0.00000  0.01900  Uiso  1.0
N6   N   0.00000  0.00000 -0.07500  0.01900  Uiso  1.0

# BPY (4,4'-Bipyridine) linker coordinates
C1   C   0.13500  0.00000  0.00000  0.01583  Uiso  1.0
C2   C   0.18000  0.00000  0.00000  0.01583  Uiso  1.0
C3   C   0.22500  0.00000  0.00000  0.01583  Uiso  1.0
C4   C   0.27000  0.00000  0.00000  0.01583  Uiso  1.0
C5   C   0.31500  0.00000  0.00000  0.01583  Uiso  1.0
C6   C   0.36000  0.00000  0.00000  0.01583  Uiso  1.0
C7   C   0.40500  0.00000  0.00000  0.01583  Uiso  1.0
C8   C   0.45000  0.00000  0.00000  0.01583  Uiso  1.0
N7   N   0.38000  0.00000  0.00000  0.01900  Uiso  1.0
H1   H   0.15750  0.00000  0.02700  0.01900  Uiso  1.0
H2   H   0.24750  0.00000  0.02700  0.01900  Uiso  1.0
H3   H   0.42750  0.00000  0.02700  0.01900  Uiso  1.0
H4   H   0.33750  0.00000  0.02700  0.01900  Uiso  1.0

# BPY along y-axis
C9   C   0.00000  0.13500  0.00000  0.01583  Uiso  1.0
C10  C   0.00000  0.18000  0.00000  0.01583  Uiso  1.0
C11  C   0.00000  0.22500  0.00000  0.01583  Uiso  1.0
C12  C   0.00000  0.27000  0.00000  0.01583  Uiso  1.0
C13  C   0.00000  0.31500  0.00000  0.01583  Uiso  1.0
C14  C   0.00000  0.36000  0.00000  0.01583  Uiso  1.0
C15  C   0.00000  0.40500  0.00000  0.01583  Uiso  1.0
C16  C   0.00000  0.45000  0.00000  0.01583  Uiso  1.0
N8   N   0.00000  0.38000  0.00000  0.01900  Uiso  1.0
H5   H   0.02700  0.15750  0.00000  0.01900  Uiso  1.0
H6   H   0.02700  0.24750  0.00000  0.01900  Uiso  1.0
H7   H   0.02700  0.42750  0.00000  0.01900  Uiso  1.0
H8   H   0.02700  0.33750  0.00000  0.01900  Uiso  1.0

# BPY along z-axis
C17  C   0.00000  0.00000  0.13500  0.01583  Uiso  1.0
C18  C   0.00000  0.00000  0.18000  0.01583  Uiso  1.0
C19  C   0.00000  0.00000  0.22500  0.01583  Uiso  1.0
C20  C   0.00000  0.00000  0.27000  0.01583  Uiso  1.0
C21  C   0.00000  0.00000  0.31500  0.01583  Uiso  1.0
C22  C   0.00000  0.00000  0.36000  0.01583  Uiso  1.0
C23  C   0.00000  0.00000  0.40500  0.01583  Uiso  1.0
C24  C   0.00000  0.00000  0.45000  0.01583  Uiso  1.0
N9   N   0.00000  0.00000  0.38000  0.01900  Uiso  1.0
H9   H   0.00000  0.02700  0.15750  0.01900  Uiso  1.0
H10  H   0.00000  0.02700  0.24750  0.01900  Uiso  1.0
H11  H   0.00000  0.02700  0.42750  0.01900  Uiso  1.0
H12  H   0.00000  0.02700  0.33750  0.01900  Uiso  1.0

# Linker-29 (extended aromatic linker) coordinates - with larger unit cell than MOF-5
# Linker-29 along x-axis
C25  C   0.22500  0.00000  0.22500  0.01583  Uiso  1.0
C26  C   0.27000  0.00000  0.22500  0.01583  Uiso  1.0
C27  C   0.31500  0.00000  0.22500  0.01583  Uiso  1.0
C28  C   0.36000  0.00000  0.22500  0.01583  Uiso  1.0
C29  C   0.40500  0.00000  0.22500  0.01583  Uiso  1.0
C30  C   0.45000  0.00000  0.22500  0.01583  Uiso  1.0
C31  C   0.18000  0.00000  0.22500  0.01583  Uiso  1.0
C32  C   0.13500  0.00000  0.22500  0.01583  Uiso  1.0
C33  C   0.09000  0.00000  0.22500  0.01583  Uiso  1.0
C34  C   0.04500  0.00000  0.22500  0.01583  Uiso  1.0
C35  C   0.00000  0.00000  0.22500  0.01583  Uiso  1.0
O1   O   0.00000  0.00000  0.18000  0.01900  Uiso  1.0
O2   O   0.00000  0.00000  0.27000  0.01900  Uiso  1.0

# Linker-29 along y-axis
C36  C   0.00000  0.22500  0.22500  0.01583  Uiso  1.0
C37  C   0.00000  0.27000  0.22500  0.01583  Uiso  1.0
C38  C   0.00000  0.31500  0.22500  0.01583  Uiso  1.0
C39  C   0.00000  0.36000  0.22500  0.01583  Uiso  1.0
C40  C   0.00000  0.40500  0.22500  0.01583  Uiso  1.0
C41  C   0.00000  0.45000  0.22500  0.01583  Uiso  1.0
C42  C   0.00000  0.18000  0.22500  0.01583  Uiso  1.0
C43  C   0.00000  0.13500  0.22500  0.01583  Uiso  1.0
C44  C   0.00000  0.09000  0.22500  0.01583  Uiso  1.0
C45  C   0.00000  0.04500  0.22500  0.01583  Uiso  1.0
O3   O   0.00000  0.18000  0.00000  0.01900  Uiso  1.0
O4   O   0.00000  0.27000  0.00000  0.01900  Uiso  1.0

# Linker-29 along z-axis
C46  C   0.22500  0.22500  0.00000  0.01583  Uiso  1.0
C47  C   0.22500  0.22500  0.04500  0.01583  Uiso  1.0
C48  C   0.22500  0.22500  0.09000  0.01583  Uiso  1.0
C49  C   0.22500  0.22500  0.13500  0.01583  Uiso  1.0
C50  C   0.22500  0.22500  0.18000  0.01583  Uiso  1.0
C51  C   0.22500  0.22500  0.22500  0.01583  Uiso  1.0
C52  C   0.22500  0.22500  0.27000  0.01583  Uiso  1.0
C53  C   0.22500  0.22500  0.31500  0.01583  Uiso  1.0
C54  C   0.22500  0.22500  0.36000  0.01583  Uiso  1.0
C55  C   0.22500  0.22500  0.40500  0.01583  Uiso  1.0
C56  C   0.22500  0.22500  0.45000  0.01583  Uiso  1.0
O5   O   0.18000  0.22500  0.45000  0.01900  Uiso  1.0
O6   O   0.27000  0.22500  0.45000  0.01900  Uiso  1.0

# OH functional groups - more than in MOF-5 to achieve higher performance
O7   O   0.29700  0.00000  0.22500  0.01900  Uiso  1.0
H13  H   0.31500  0.00000  0.20700  0.01900  Uiso  1.0
O8   O   0.00000  0.29700  0.22500  0.01900  Uiso  1.0
H14  H   0.00000  0.31500  0.20700  0.01900  Uiso  1.0
O9   O   0.22500  0.22500  0.29700  0.01900  Uiso  1.0
H15  H   0.20700  0.22500  0.31500  0.01900  Uiso  1.0
O10  O   0.38700  0.00000  0.22500  0.01900  Uiso  1.0
H16  H   0.40500  0.00000  0.20700  0.01900  Uiso  1.0
O11  O   0.00000  0.38700  0.22500  0.01900  Uiso  1.0
H17  H   0.00000  0.40500  0.20700  0.01900  Uiso  1.0
O12  O   0.22500  0.22500  0.38700  0.01900  Uiso  1.0
H18  H   0.20700  0.22500  0.40500  0.01900  Uiso  1.0

_geom_bond_atom_site_label_1
_geom_bond_atom_site_label_2
_geom_bond_distance
_geom_bond_site_symmetry_2
_geom_bond_publ_flag
Cu1  N1   1.105  .  yes
Cu1  N2   1.105  .  yes
Cu1  N3   1.105  .  yes
Cu1  N4   1.105  .  yes
Cu1  N5   1.105  .  yes
Cu1  N6   1.105  .  yes
N1   C1   1.340  .  yes
N2   C9   1.340  .  yes
N3   C17  1.340  .  yes
C1   C2   1.390  .  yes
C2   C3   1.390  .  yes
C3   C4   1.390  .  yes
C4   C5   1.390  .  yes
C5   C6   1.390  .  yes
C6   C7   1.390  .  yes
C7   C8   1.390  .  yes
C8   N7   1.340  .  yes
C9   C10  1.390  .  yes
C10  C11  1.390  .  yes
C11  C12  1.390  .  yes
C12  C13  1.390  .  yes
C13  C14  1.390  .  yes
C14  C15  1.390  .  yes
C15  C16  1.390  .  yes
C16  N8   1.340  .  yes
C17  C18  1.390  .  yes
C18  C19  1.390  .  yes
C19  C20  1.390  .  yes
C20  C21  1.390  .  yes
C21  C22  1.390  .  yes
C22  C23  1.390  .  yes
C23  C24  1.390  .  yes
C24  N9   1.340  .  yes
C25  C26  1.390  .  yes
C26  C27  1.390  .  yes
C27  C28  1.390  .  yes
C28  C29  1.390  .  yes
C29  C30  1.390  .  yes
C25  C31  1.390  .  yes
C31  C32  1.390  .  yes
C32  C33  1.390  .  yes
C33  C34  1.390  .  yes
C34  C35  1.390  .  yes
C35  O1   1.270  .  yes
C35  O2   1.270  .  yes
C26  O7   1.370  .  yes
O7   H13  0.980  .  yes
C28  O10  1.370  .  yes
O10  H16  0.980  .  yes
C36  C37  1.390  .  yes
C37  C38  1.390  .  yes
C38  C39  1.390  .  yes
C39  C40  1.390  .  yes
C40  C41  1.390  .  yes
C36  C42  1.390  .  yes
C42  C43  1.390  .  yes
C43  C44  1.390  .  yes
C44  C45  1.390  .  yes
C45  C35  1.390  .  yes
C37  O8   1.370  .  yes
O8   H14  0.980  .  yes
C39  O11  1.370  .  yes
O11  H17  0.980  .  yes
C46  C47  1.390  .  yes
C47  C48  1.390  .  yes
C48  C49  1.390  .  yes
C49  C50  1.390  .  yes
C50  C51  1.390  .  yes
C51  C52  1.390  .  yes
C52  C53  1.390  .  yes
C53  C54  1.390  .  yes
C54  C55  1.390  .  yes
C55  C56  1.390  .  yes
C56  O5   1.270  .  yes
C56  O6   1.270  .  yes
C52  O9   1.370  .  yes
O9   H15  0.980  .  yes
C54  O12  1.370  .  yes
O12  H18  0.980  .  yes  0.01900