data_GEN-MOF-4

_audit_creation_date              2025-04-12
_audit_creation_method            'Generated by Claude 3.7 Sonnet'
_symmetry_space_group_name_H-M    'I4/mmm'
_symmetry_Int_Tables_number       139
_symmetry_cell_setting            tetragonal

_cell_length_a                    10.5482
_cell_length_b                    10.5482
_cell_length_c                    15.6354
_cell_angle_alpha                 90.0000
_cell_angle_beta                  90.0000
_cell_angle_gamma                 90.0000
_cell_volume                      1738.76

loop_
_symmetry_equiv_pos_as_xyz
  'x, y, z'
  '-x, -y, z'
  '-y, x, z'
  'y, -x, z'
  'x, -y, -z'
  '-x, y, -z'
  'y, x, -z'
  '-y, -x, -z'
  '-x, -y, -z'
  'x, y, -z'
  'y, -x, -z'
  '-y, x, -z'
  '-x, y, z'
  'x, -y, z'
  '-y, -x, z'
  'y, x, z'
  'x+1/2, y+1/2, z+1/2'
  '-x+1/2, -y+1/2, z+1/2'
  '-y+1/2, x+1/2, z+1/2'
  'y+1/2, -x+1/2, z+1/2'
  'x+1/2, -y+1/2, -z+1/2'
  '-x+1/2, y+1/2, -z+1/2'
  'y+1/2, x+1/2, -z+1/2'
  '-y+1/2, -x+1/2, -z+1/2'
  '-x+1/2, -y+1/2, -z+1/2'
  'x+1/2, y+1/2, -z+1/2'
  'y+1/2, -x+1/2, -z+1/2'
  '-y+1/2, x+1/2, -z+1/2'
  '-x+1/2, y+1/2, z+1/2'
  'x+1/2, -y+1/2, z+1/2'
  '-y+1/2, -x+1/2, z+1/2'
  'y+1/2, x+1/2, z+1/2'

loop_
_atom_site_label
_atom_site_type_symbol
_atom_site_fract_x
_atom_site_fract_y
_atom_site_fract_z
_atom_site_U_iso_or_equiv
_atom_site_adp_type
_atom_site_occupancy
Mg1  Mg  0.00000  0.00000  0.00000  0.01267  Uiso  1.0
Mg2  Mg  0.00000  0.50000  0.25000  0.01267  Uiso  1.0
Mg3  Mg  0.50000  0.00000  0.25000  0.01267  Uiso  1.0
O1   O   0.10000  0.10000  0.05000  0.01900  Uiso  1.0
O2   O  -0.10000  0.10000  0.05000  0.01900  Uiso  1.0
O3   O   0.10000 -0.10000  0.05000  0.01900  Uiso  1.0
O4   O  -0.10000 -0.10000  0.05000  0.01900  Uiso  1.0
O5   O   0.10000  0.50000  0.20000  0.01900  Uiso  1.0
O6   O  -0.10000  0.50000  0.20000  0.01900  Uiso  1.0
O7   O   0.00000  0.60000  0.20000  0.01900  Uiso  1.0
O8   O   0.00000  0.40000  0.20000  0.01900  Uiso  1.0
O9   O   0.50000  0.10000  0.20000  0.01900  Uiso  1.0
O10  O   0.50000 -0.10000  0.20000  0.01900  Uiso  1.0
O11  O   0.60000  0.00000  0.20000  0.01900  Uiso  1.0
O12  O   0.40000  0.00000  0.20000  0.01900  Uiso  1.0

# BTC (1,3,5-Benzenetricarboxylate) linker coordinates - layer
C1   C   0.20000  0.20000  0.10000  0.01583  Uiso  1.0
C2   C   0.30000  0.20000  0.10000  0.01583  Uiso  1.0
C3   C   0.20000  0.30000  0.10000  0.01583  Uiso  1.0
C4   C   0.30000  0.30000  0.10000  0.01583  Uiso  1.0
C5   C   0.25000  0.25000  0.10000  0.01583  Uiso  1.0
C6   C   0.15000  0.15000  0.07500  0.01583  Uiso  1.0
C7   C   0.35000  0.15000  0.07500  0.01583  Uiso  1.0
C8   C   0.15000  0.35000  0.07500  0.01583  Uiso  1.0
H1   H   0.32500  0.17500  0.10000  0.01900  Uiso  1.0
H2   H   0.17500  0.32500  0.10000  0.01900  Uiso  1.0
H3   H   0.32500  0.32500  0.10000  0.01900  Uiso  1.0

# BTC layer at z = 0.4
C9   C   0.20000  0.20000  0.40000  0.01583  Uiso  1.0
C10  C   0.30000  0.20000  0.40000  0.01583  Uiso  1.0
C11  C   0.20000  0.30000  0.40000  0.01583  Uiso  1.0
C12  C   0.30000  0.30000  0.40000  0.01583  Uiso  1.0
C13  C   0.25000  0.25000  0.40000  0.01583  Uiso  1.0
C14  C   0.15000  0.15000  0.42500  0.01583  Uiso  1.0
C15  C   0.35000  0.15000  0.42500  0.01583  Uiso  1.0
C16  C   0.15000  0.35000  0.42500  0.01583  Uiso  1.0
H4   H   0.32500  0.17500  0.40000  0.01900  Uiso  1.0
H5   H   0.17500  0.32500  0.40000  0.01900  Uiso  1.0
H6   H   0.32500  0.32500  0.40000  0.01900  Uiso  1.0

# OX (Oxalate) pillar linkers
C17  C   0.00000  0.25000  0.15000  0.01583  Uiso  1.0
C18  C   0.00000  0.25000  0.35000  0.01583  Uiso  1.0
C19  C   0.25000  0.00000  0.15000  0.01583  Uiso  1.0
C20  C   0.25000  0.00000  0.35000  0.01583  Uiso  1.0
O13  O   0.00000  0.25000  0.10000  0.01900  Uiso  1.0
O14  O   0.00000  0.25000  0.40000  0.01900  Uiso  1.0
O15  O   0.25000  0.00000  0.10000  0.01900  Uiso  1.0
O16  O   0.25000  0.00000  0.40000  0.01900  Uiso  1.0

# OH functional groups at standard positions
O17  O   0.25000  0.40000  0.12500  0.01900  Uiso  1.0
H7   H   0.25000  0.42500  0.15000  0.01900  Uiso  1.0
O18  O   0.40000  0.25000  0.12500  0.01900  Uiso  1.0
H8   H   0.42500  0.25000  0.15000  0.01900  Uiso  1.0
O19  O   0.25000  0.40000  0.37500  0.01900  Uiso  1.0
H9   H   0.25000  0.42500  0.35000  0.01900  Uiso  1.0
O20  O   0.40000  0.25000  0.37500  0.01900  Uiso  1.0
H10  H   0.42500  0.25000  0.35000  0.01900  Uiso  1.0

_geom_bond_atom_site_label_1
_geom_bond_atom_site_label_2
_geom_bond_distance
_geom_bond_site_symmetry_2
_geom_bond_publ_flag
Mg1  O1   2.105  .  yes
Mg1  O2   2.105  .  yes
Mg1  O3   2.105  .  yes
Mg1  O4   2.105  .  yes
Mg2  O5   2.105  .  yes
Mg2  O6   2.105  .  yes
Mg2  O7   2.105  .  yes
Mg2  O8   2.105  .  yes
Mg3  O9   2.105  .  yes
Mg3  O10  2.105  .  yes
Mg3  O11  2.105  .  yes
Mg3  O12  2.105  .  yes
O1   C6   1.270  .  yes
O2   C6   1.270  .  yes
O3   C6   1.270  .  yes
O4   C6   1.270  .  yes
O5   C14  1.270  .  yes
O6   C14  1.270  .  yes
O7   C14  1.270  .  yes
O8   C14  1.270  .  yes
O9   C16  1.270  .  yes
O10  C16  1.270  .  yes
O11  C16  1.270  .  yes
O12  C16  1.270  .  yes
C1   C2   1.390  .  yes
C1   C3   1.390  .  yes
C1   C6   1.480  .  yes
C2   C4   1.390  .  yes
C3   C4   1.390  .  yes
C5   C1   1.390  .  yes
C5   C2   1.390  .  yes
C5   C3   1.390  .  yes
C5   C4   1.390  .  yes
C5   O17  1.370  .  yes
C9   C10  1.390  .  yes
C9   C11  1.390  .  yes
C9   C14  1.480  .  yes
C10  C12  1.390  .  yes
C11  C12  1.390  .  yes
C13  C9   1.390  .  yes
C13  C10  1.390  .  yes
C13  C11  1.390  .  yes
C13  C12  1.390  .  yes
C13  O19  1.370  .  yes
C17  C18  1.520  .  yes
C17  O13  1.270  .  yes
C17  O14  1.270  .  yes
C19  C20  1.520  .  yes
C19  O15  1.270  .  yes
C19  O16  1.270  .  yes
O17  H7   0.980  .  yes
O18  H8   0.980  .  yes
O19  H9   0.980  .  yes
O20  H10  0.980  .  yes