data_str_m3_o12_o15_f0_pcu.sym.154
_audit_creation_date              2012-12-10T17:16:36-0500
_audit_creation_method            fapswitch 2.2
_symmetry_space_group_name_H-M    P1
_symmetry_Int_Tables_number       1
_space_group_crystal_system       triclinic
_cell_length_a                    10.114625
_cell_length_b                    10.785047
_cell_length_c                    10.747173
_cell_angle_alpha                 91.252461
_cell_angle_beta                  95.61212
_cell_angle_gamma                 78.011878
_cell_volume                      1141.30665304

loop_
_atom_site_label
_atom_site_type_symbol
_atom_type_description
_atom_site_fract_x
_atom_site_fract_y
_atom_site_fract_z
_atom_type_partial_charge
C1    C     C_R   0.442687 0.510594 0.265855 0.853046
C2    C     C_R   0.556453 0.502346 0.734006 0.906166
C3    C     C_2   0.406245 0.524365 0.131231 -0.225498
C4    C     C_2   0.588882 0.521966 0.868817 -0.226317
C5    C     C_2   0.485751 0.581163 0.067658 -0.179948
C6    C     C_2   0.482883 0.577773 0.932226 -0.152628
C7    C     C_2   0.074046 0.491284 0.487340 -0.114107
C8    C     C_2   0.929661 0.499656 0.518477 -0.090391
C9    C     C_R   0.505222 0.258153 0.499818 0.896968
C10   C     C_R   0.492862 0.741448 0.489331 0.851512
C11   C     C_R   0.662304 0.088234 0.322291 -0.103194
C12   C     C_R   0.274098 0.950827 0.595548 -0.174926
C13   C     C_R   0.652216 0.039782 0.199436 0.193399
C14   C     C_R   0.228686 0.019955 0.703390 0.136909
C15   C     C_R   0.622810 0.918941 0.182931 -0.279542
C16   C     C_R   0.308397 0.100565 0.761803 -0.196468
C17   C     C_R   0.617231 0.849715 0.290061 -0.105685
C18   C     C_R   0.416280 0.128785 0.704069 -0.026922
C19   C     C_R   0.563452 0.920901 0.393444 0.054349
C20   C     C_R   0.449210 0.070929 0.588921 0.002932
C21   C     C_R   0.584387 0.045091 0.408881 0.000320
C22   C     C_R   0.399959 0.963450 0.552258 -0.010986
C23   C     C_R   0.478340 0.877184 0.472145 -0.130670
C24   C     C_R   0.522458 0.121292 0.505106 -0.075157
H1    H     H_    0.283112 0.147676 0.848787 0.189545
H2    H     H_    0.640015 0.870009 0.094921 0.166942
H3    H     H_    0.385172 0.616383 0.882051 0.225757
H4    H     H_    0.563071 0.623811 0.117917 0.238679
H5    H     H_    0.895452 0.555126 0.599053 0.201535
H6    H     H_    0.108941 0.434669 0.407660 0.194567
H7    H     H_    0.877729 0.401284 0.370459 0.220198
H8    H     H_    0.123818 0.593090 0.632468 0.200063
N1    N     N_2   0.157300 0.551390 0.551120 -0.166303
N2    N     N_2   0.842700 0.448610 0.448880 -0.175873
O1    O     O_R   0.568940 0.489660 0.307530 -0.596979
O2    O     O_R   0.431060 0.510340 0.692470 -0.582284
O3    O     O_R   0.348880 0.522640 0.340350 -0.578021
O4    O     O_R   0.651120 0.477360 0.659650 -0.571315
O5    O     O_R   0.610030 0.300280 0.483580 -0.594776
O6    O     O_R   0.389970 0.699720 0.516420 -0.624026
O7    O     O_R   0.389970 0.333270 0.516400 -0.609655
O8    O     O_R   0.610030 0.666730 0.483600 -0.607154
Zn1   Zn    Zn3+2 0.646940 0.477980 0.478080 1.021745
Zn2   Zn    Zn3+2 0.353060 0.522020 0.521920 1.010739
C25   C     C_2   0.789270 0.132330 0.367620 1.015503
O9    O     O_2   0.857434 0.169314 0.293960 -0.624576
O10   O     O_R   0.835510 0.124380 0.494721 -0.747214
H9    H     H_    0.920972 0.159306 0.513648 0.326063
C26   C     C_2   0.176670 0.892687 0.512575 1.004366
O11   O     O_2   0.169463 0.907137 0.399539 -0.559827
O12   O     O_R   0.092371 0.822088 0.560455 -0.770947
H10   H     H_    0.117431 0.801373 0.652201 0.304809
N3    N     N_2   0.688616 0.103275 0.097578 -0.282220
H11   H     H_    0.688497 0.054860 0.013696 0.235506
C27   C     C_3   0.619742 0.234428 0.085802 -0.605722
H12   H     H_    0.508302 0.241295 0.071389 0.242985
H13   H     H_    0.643775 0.289445 0.170061 0.261213
H14   H     H_    0.654431 0.276761 0.006052 0.250543
N4    N     N_2   0.101514 0.011832 0.747826 -0.325842
H15   H     H_    0.020158 0.024700 0.680646 0.278055
C28   C     C_3   0.067072 0.063159 0.868904 -0.661514
H16   H     H_    0.972596 0.035209 0.891827 0.257489
H17   H     H_    0.048726 0.168359 0.867283 0.252729
H18   H     H_    0.149207 0.024446 0.942651 0.247387
C29   C     C_2   0.743709 0.753766 0.314592 0.985807
O13   O     O_2   0.771416 0.664182 0.243621 -0.620856
O14   O     O_R   0.838172 0.774177 0.412489 -0.745049
H19   H     H_    0.930732 0.718672 0.404984 0.370951
C30   C     C_2   0.501789 0.208821 0.770830 0.862826
O15   O     O_2   0.451646 0.292353 0.840804 -0.648356
O16   O     O_R   0.640421 0.186819 0.754750 -0.787407
H20   H     H_    0.689459 0.248625 0.801934 0.339453
C31   C     C_2   0.731980 0.480454 0.927302 0.883918
O17   O     O_2   0.824805 0.448670 0.860851 -0.633116
O18   O     O_R   0.761803 0.475543 0.057020 -0.759592
H21   H     H_    0.862060 0.444149 0.083343 0.374260
C32   C     C_2   0.291754 0.467816 0.072950 0.971891
O19   O     O_2   0.250247 0.390172 0.131691 -0.640313
O20   O     O_R   0.229480 0.503402 0.953570 -0.780899
H22   H     H_    0.153830 0.457222 0.926089 0.361150

loop_
_geom_bond_atom_site_label_1
_geom_bond_atom_site_label_2
_ccdc_geom_bond_type
C27   H12   S    
C10   O8    A    
C7    N1    D    
C31   O17   D    
C2    C4    S    
C12   C26   S    
C7    C8    S    
C32   O19   D    
C14   N4    S    
C8    H5    S    
C19   C21   A    
C5    C6    S    
C12   C22   A    
C9    O5    A    
C10   O6    A    
C25   O10   S    
C30   O16   S    
O10   H9    S    
C29   O14   S    
O1    Zn1   S    
C1    O3    A    
C18   C30   S    
N3    C27   S    
N4    H15   S    
C7    H6    S    
C31   O18   S    
C30   O15   D    
C13   N3    S    
C32   O20   S    
N4    C28   S    
O14   H19   S    
C20   C24   A    
C4    C6    D    
C15   H2    S    
O5    Zn1   S    
C26   O12   S    
C25   O9    D    
C11   C21   A    
O4    Zn1   S    
O12   H10   S    
C1    C3    S    
C28   H18   S    
C19   C23   A    
O18   H21   S    
C5    H4    S    
C2    O4    A    
C6    H3    S    
C28   H17   S    
H7    N2    S    
C8    N2    D    
C4    C31   S    
C12   C14   A    
C29   O13   D    
C13   C15   A    
O7    Zn2   S    
C14   C16   A    
C11   C25   S    
O8    Zn1   S    
C21   C24   A    
C3    C32   S    
C1    O1    A    
C2    O2    A    
C16   H1    S    
C15   C17   A    
N1    Zn2   S    
C9    O7    A    
N2    Zn1   S    
C20   C22   A    
C3    C5    D    
C9    C24   S    
N3    H11   S    
C10   C23   S    
C17   C29   S    
H8    N1    S    
O3    Zn2   S    
C27   H13   S    
O16   H20   S    
C11   C13   A    
C17   C19   A    
C18   C20   A    
C28   H16   S    
O2    Zn2   S    
O20   H22   S    
O6    Zn2   S    
C16   C18   A    
C26   O11   D    
C27   H14   S    
C22   C23   A    
