data_str_m3_o10_o16_f0_pcu.sym.21
_audit_creation_date              2012-12-10T16:51:31-0500
_audit_creation_method            fapswitch 2.2
_symmetry_space_group_name_H-M    P1
_symmetry_Int_Tables_number       1
_space_group_crystal_system       triclinic
_cell_length_a                    7.902159
_cell_length_b                    8.593089
_cell_length_c                    12.620397
_cell_angle_alpha                 92.876242
_cell_angle_beta                  102.841072
_cell_angle_gamma                 93.628396
_cell_volume                      832.047855463

loop_
_atom_site_label
_atom_site_type_symbol
_atom_type_description
_atom_site_fract_x
_atom_site_fract_y
_atom_site_fract_z
_atom_type_partial_charge
C1    C     C_R   0.043356 0.793725 0.496207 0.848050
C2    C     C_R   0.179018 0.551155 0.826243 -0.103853
C3    C     C_2   0.063030 0.955501 0.486625 0.465648
C4    C     C_R   0.112133 0.521091 0.708365 0.853868
C5    C     C_2   0.940124 0.043416 0.509794 -0.516300
C6    C     C_R   0.956872 0.206041 0.502759 0.979037
C7    C     C_R   0.888580 0.481236 0.292567 0.860636
C8    C     C_R   0.830667 0.345468 0.999261 -0.157024
C9    C     C_R   0.817139 0.447902 0.177885 -0.058266
C10   C     C_R   0.069721 0.602760 0.892047 -0.192745
C11   C     C_R   0.126664 0.612560 0.004761 -0.114891
C12   C     C_R   0.402745 0.514518 0.987609 0.059628
C13   C     C_R   0.287003 0.559456 0.052728 -0.175006
C14   C     C_R   0.352077 0.524042 0.874802 0.035235
C15   C     C_R   0.570610 0.465503 0.029327 0.076588
C16   C     C_R   0.670376 0.405784 0.957706 0.126009
C17   C     C_R   0.621919 0.432803 0.847906 -0.281869
C18   C     C_R   0.482285 0.522390 0.815369 0.186727
C19   C     C_R   0.649325 0.490732 0.138012 -0.231610
C20   C     C_R   0.904297 0.366027 0.110422 -0.204778
F1    F     F_    0.202226 0.012148 0.448945 -0.629794
H1    H     H_    0.031632 0.325719 0.142397 0.171059
H2    H     H_    0.829899 0.996815 0.539187 0.185857
H3    H     H_    0.467153 0.346120 0.452071 0.198051
H4    H     H_    0.712407 0.417283 0.795821 0.179645
H5    H     H_    0.904741 0.294736 0.945373 0.157053
H6    H     H_    0.586045 0.555331 0.191478 0.168319
H7    H     H_    0.940182 0.634799 0.856559 0.185802
H8    H     H_    0.315874 0.554078 0.140069 0.144484
H9    H     H_    0.041922 0.653164 0.055170 0.166629
I1    I     I_    0.528568 0.773091 0.489628 -0.123976
I2    I     I_    0.553813 0.747343 0.773286 -0.336141
N1    N     N_2   0.434800 0.456690 0.470850 -0.134962
N2    N     N_2   0.565200 0.543310 0.529150 0.008286
O1    O     O_R   0.893060 0.738880 0.507150 -0.635178
O2    O     O_R   0.172250 0.711130 0.488470 -0.550317
O3    O     O_R   0.944700 0.520730 0.667600 -0.622879
O4    O     O_R   0.223890 0.492980 0.648920 -0.601691
O5    O     O_R   0.827750 0.288870 0.511530 -0.634178
O6    O     O_R   0.106940 0.261120 0.492850 -0.541029
O7    O     O_R   0.776110 0.507020 0.351080 -0.628006
O8    O     O_R   0.055300 0.479270 0.332400 -0.623476
Zn1   Zn    Zn3+2 0.813580 0.518530 0.512470 0.997287
Zn2   Zn    Zn3+2 0.186420 0.481470 0.487530 1.044070

loop_
_geom_bond_atom_site_label_1
_geom_bond_atom_site_label_2
_ccdc_geom_bond_type
O3    Zn1   S    
C2    C4    S    
O4    Zn2   S    
O1    Zn1   S    
C14   C18   A    
C9    C20   A    
H3    N1    S    
C5    H2    S    
C12   C15   A    
O6    Zn2   S    
C17   H4    S    
N1    N2    D    
I1    N2    S    
C8    C16   A    
C12   C13   A    
C15   C19   A    
O7    Zn1   S    
C8    C20   A    
O8    Zn2   S    
C11   H9    S    
C13   H8    S    
C19   H6    S    
C12   C14   A    
C17   C18   A    
C7    O7    A    
C5    C6    S    
C2    C14   A    
C6    O6    A    
O2    Zn2   S    
C3    F1    S    
C10   C11   A    
C8    H5    S    
C15   C16   A    
C2    C10   A    
C11   C13   A    
C18   I2    S    
C4    O3    A    
C1    O1    A    
C7    O8    A    
C10   H7    S    
C7    C9    S    
C6    O5    A    
O5    Zn1   S    
C3    C5    D    
C4    O4    A    
N1    Zn2   S    
C9    C19   A    
N2    Zn1   S    
C1    O2    A    
C20   H1    S    
C16   C17   A    
C1    C3    S    
