data_str_m2_o10_o29_f0_pcu.sym.186
_audit_creation_date              2012-12-10T16:51:16-0500
_audit_creation_method            fapswitch 2.2
_symmetry_space_group_name_H-M    P1
_symmetry_Int_Tables_number       1
_space_group_crystal_system       triclinic
_cell_length_a                    27.778559
_cell_length_b                    8.672352
_cell_length_c                    7.437827
_cell_angle_alpha                 103.00925
_cell_angle_beta                  94.000073
_cell_angle_gamma                 92.422476
_cell_volume                      1738.47056223

loop_
_atom_site_label
_atom_site_type_symbol
_atom_type_description
_atom_site_fract_x
_atom_site_fract_y
_atom_site_fract_z
_atom_type_partial_charge
C1    C     C_R   0.498540 0.199659 0.453183 0.890738
C2    C     C_R   0.501457 0.800341 0.546817 0.890933
C3    C     C_R   0.102701 0.495556 0.537989 -0.033742
C4    C     C_R   0.898306 0.502404 0.507351 -0.038945
C5    C     C_R   0.125326 0.350793 0.497661 -0.014618
C6    C     C_R   0.875638 0.647237 0.537659 -0.019388
C7    C     C_R   0.097228 0.208352 0.458684 -0.144665
C8    C     C_R   0.903814 0.789560 0.580022 -0.145853
C9    C     C_R   0.131461 0.638732 0.580321 -0.008946
C10   C     C_R   0.869506 0.359349 0.466044 -0.018454
C11   C     C_R   0.354769 0.498284 0.508918 -0.021277
C12   C     C_R   0.645387 0.502692 0.491237 -0.022261
C13   C     C_R   0.971784 0.353083 0.484830 0.045382
C14   C     C_R   0.029313 0.644701 0.572712 0.044713
C15   C     C_R   0.978035 0.646440 0.562252 0.047112
C16   C     C_R   0.023059 0.351328 0.491794 0.046703
C17   C     C_R   0.949608 0.500632 0.518378 0.071687
C18   C     C_R   0.051464 0.497186 0.534609 0.071310
C19   C     C_R   0.941555 0.211820 0.443532 -0.210649
C20   C     C_R   0.059550 0.785996 0.619369 -0.210396
C21   C     C_R   0.891568 0.215309 0.434907 -0.134610
C22   C     C_R   0.109485 0.782665 0.622653 -0.133931
C23   C     C_R   0.407548 0.499686 0.502767 0.804876
C24   C     C_R   0.592505 0.500611 0.497264 0.805857
C25   C     C_R   0.047223 0.208192 0.456083 -0.208563
C26   C     C_R   0.953881 0.789587 0.592311 -0.208094
C27   C     C_2   0.497838 0.031704 0.426816 -0.363341
C28   C     C_2   0.502155 0.968296 0.573186 -0.363522
C29   C     C_R   0.175800 0.351994 0.494700 0.593357
C30   C     C_R   0.824986 0.646327 0.525255 0.585717
C31   C     C_R   0.181827 0.634610 0.577332 0.600182
C32   C     C_R   0.818979 0.363739 0.457234 0.609976
C33   C     C_R   0.275139 0.523544 0.361764 0.037352
C34   C     C_R   0.716549 0.474718 0.313999 0.045763
C35   C     C_R   0.325532 0.526395 0.359257 -0.298734
C36   C     C_R   0.666201 0.472219 0.320837 -0.306492
C37   C     C_R   0.333247 0.466831 0.662843 -0.213911
C38   C     C_R   0.675447 0.536583 0.656374 -0.213402
C39   C     C_R   0.283207 0.462558 0.666568 -0.137297
C40   C     C_R   0.725376 0.539304 0.651475 -0.139327
C41   C     C_R   0.253947 0.491638 0.518234 0.351364
C42   C     C_R   0.746271 0.507779 0.482247 0.350481
Cu1   Cu    Cu3+1 0.505380 0.517380 0.684380 0.954581
Cu2   Cu    Cu3+1 0.494620 0.482620 0.315620 0.955826
H1    H     H_    0.355032 0.443785 0.779454 0.154030
H2    H     H_    0.660444 0.561357 0.789733 0.155563
H3    H     H_    0.462169 0.378149 0.948575 0.224687
H4    H     H_    0.537831 0.621851 0.051423 0.225802
H5    H     H_    0.266942 0.436968 0.785436 0.144663
H6    H     H_    0.748166 0.565194 0.779989 0.171512
H7    H     H_    0.113782 0.095435 0.428363 0.188322
H8    H     H_    0.887249 0.902495 0.604427 0.184760
H9    H     H_    0.643192 0.446669 0.192597 0.152406
H10   H     H_    0.342033 0.550927 0.239992 0.150789
H11   H     H_    0.870192 0.103692 0.402439 0.195397
H12   H     H_    0.130849 0.894350 0.657459 0.193359
H13   H     H_    0.955064 0.095213 0.416362 0.137778
H14   H     H_    0.046085 0.902499 0.654735 0.139922
H15   H     H_    0.028782 0.092599 0.423572 0.136313
H16   H     H_    0.972373 0.905067 0.624660 0.134023
H17   H     H_    0.493771 0.959926 0.285843 0.179985
H18   H     H_    0.506221 0.040073 0.714159 0.179694
N1    N     N_R   0.202727 0.492684 0.531066 -0.451663
N2    N     N_R   0.797881 0.505855 0.485292 -0.449163
N3    N     N_2   0.486510 0.456430 0.038510 -0.218211
N4    N     N_2   0.513490 0.543570 0.961490 -0.218394
O1    O     O_R   0.503500 0.286120 0.619780 -0.583913
O2    O     O_R   0.496500 0.713880 0.380220 -0.583764
O3    O     O_R   0.494410 0.256780 0.308360 -0.583385
O4    O     O_R   0.505590 0.743220 0.691640 -0.583161
O5    O     O_R   0.434810 0.514700 0.655690 -0.592448
O6    O     O_R   0.565190 0.485300 0.344310 -0.590717
O7    O     O_R   0.425720 0.485350 0.344280 -0.582162
O8    O     O_R   0.574280 0.514650 0.655720 -0.586943
O9    O     O_2   0.197787 0.214008 0.453421 -0.513659
O10   O     O_2   0.802923 0.784477 0.552886 -0.511994
O11   O     O_2   0.791086 0.227353 0.421292 -0.509818
O12   O     O_2   0.209725 0.771119 0.618041 -0.518792
C43   C     C_2   0.736140 0.443076 0.129434 0.391530
H19   H     H_    0.711672 0.403456 0.005662 0.056874
O13   O     O_2   0.779183 0.462461 0.111898 -0.536637
C44   C     C_2   0.246466 0.554408 0.198827 0.400009
H20   H     H_    0.264715 0.600781 0.096119 0.060012
O14   O     O_2   0.202754 0.526803 0.174822 -0.536098

loop_
_geom_bond_atom_site_label_1
_geom_bond_atom_site_label_2
_ccdc_geom_bond_type
C29   N1    A    
C30   N2    A    
C8    C26   A    
C14   C18   A    
C34   C42   A    
C39   C41   A    
C19   H13   S    
C3    C18   A    
C19   C21   A    
C2    O2    A    
C9    C22   A    
C14   C20   A    
C11   C37   A    
C36   H9    S    
C27   H17   S    
C1    O1    A    
C32   O11   S    
C5    C7    A    
C12   C36   A    
C33   C44   S    
C8    H8    S    
Cu1   O8    S    
C40   C42   A    
C35   H10   S    
Cu2   N3    S    
C23   O7    A    
C5    C29   A    
C10   C21   A    
C13   C19   A    
C31   N1    A    
C32   N2    A    
C4    C6    A    
C21   H11   S    
C15   C26   A    
C6    C8    A    
C1    O3    A    
Cu1   Cu2   S    
C3    C9    A    
C23   O5    A    
C34   C43   S    
C30   O10   S    
Cu2   O3    S    
C4    C17   A    
Cu1   O1    S    
C39   H5    S    
C20   C22   A    
C44   H20   S    
Cu1   O4    S    
C44   O14   D    
Cu2   O2    S    
C41   N1    S    
C20   H14   S    
C42   N2    S    
C24   O6    A    
C31   O12   S    
C43   O13   D    
C16   C25   A    
C15   C17   A    
Cu1   O5    S    
C6    C30   A    
C4    C10   A    
C3    C5    A    
C22   H12   S    
C29   O9    S    
C12   C24   S    
C7    C25   A    
C13   C17   A    
C33   C41   A    
C11   C35   A    
C7    H7    S    
C37   C39   A    
C38   C40   A    
C24   O8    A    
C26   H16   S    
Cu1   N4    S    
C40   H6    S    
C11   C23   S    
C33   C35   A    
Cu2   O6    S    
C34   C36   A    
C12   C38   A    
Cu2   O7    S    
C38   H2    S    
C9    C31   A    
C43   H19   S    
C10   C32   A    
C16   C18   A    
N3    N4    D    
C13   C16   A    
C27   C28   D    
C1    C27   S    
C14   C15   A    
C2    C28   S    
C25   H15   S    
H4    N4    S    
C2    O4    A    
C37   H1    S    
H3    N3    S    
C28   H18   S    
