data_str_m9_o7_o18_f0_sra.sym.129
_audit_creation_date              2012-12-11T17:36:11-0500
_audit_creation_method            fapswitch 2.2
_symmetry_space_group_name_H-M    P1
_symmetry_Int_Tables_number       1
_space_group_crystal_system       triclinic
_cell_length_a                    25.863132
_cell_length_b                    6.90246
_cell_length_c                    21.677915
_cell_angle_alpha                 89.992862
_cell_angle_beta                  96.088178
_cell_angle_gamma                 89.992016
_cell_volume                      3848.09774647

loop_
_atom_site_label
_atom_site_type_symbol
_atom_type_description
_atom_site_fract_x
_atom_site_fract_y
_atom_site_fract_z
_atom_type_partial_charge
O1    O     O_R   0.208650 0.594520 0.175450 -0.534407
O2    O     O_R   0.791350 0.405480 0.824550 -0.534548
O3    O     O_R   0.291350 0.094520 0.324550 -0.534415
O4    O     O_R   0.708650 0.905480 0.675450 -0.534548
O5    O     O_R   0.192980 0.260780 0.300160 -0.540610
O6    O     O_R   0.807020 0.739220 0.699840 -0.540687
O7    O     O_R   0.307020 0.760780 0.199840 -0.540584
O8    O     O_R   0.692980 0.239220 0.800160 -0.540681
C1    C     C_R   0.178765 0.432889 0.318391 0.687496
C2    C     C_R   0.821231 0.567111 0.681604 0.688352
C3    C     C_R   0.321235 0.932886 0.181609 0.687614
C4    C     C_R   0.678769 0.067115 0.818397 0.688435
O9    O     O_R   0.202550 0.264660 0.174420 -0.535827
O10   O     O_R   0.797450 0.735340 0.825580 -0.535833
O11   O     O_R   0.297450 0.764660 0.325580 -0.535817
O12   O     O_R   0.702550 0.235340 0.674420 -0.535844
O13   O     O_R   0.300990 0.096480 0.197920 -0.540122
O14   O     O_R   0.699010 0.903520 0.802080 -0.540330
O15   O     O_R   0.199010 0.596480 0.302080 -0.540123
O16   O     O_R   0.800990 0.403520 0.697920 -0.540342
C5    C     C_R   0.191152 0.433216 0.151009 0.700923
C6    C     C_R   0.808844 0.566787 0.848996 0.702878
C7    C     C_R   0.308850 0.933167 0.348995 0.700950
C8    C     C_R   0.691153 0.066837 0.651000 0.702898
O17   O     O_3   0.282290 0.427760 0.257860 -0.364374
O18   O     O_3   0.717710 0.572240 0.742140 -0.364599
O19   O     O_3   0.217710 0.927760 0.242140 -0.364388
O20   O     O_3   0.782290 0.072240 0.757860 -0.364601
V1    V     V_3+5 0.244010 0.152080 0.248540 1.436139
V2    V     V_3+5 0.755990 0.847920 0.751460 1.438536
V3    V     V_3+5 0.255990 0.652080 0.251460 1.436260
V4    V     V_3+5 0.744010 0.347920 0.748540 1.438549
C9    C     C_R   0.657694 0.062756 0.591482 -0.054142
C10   C     C_R   0.342324 0.937304 0.408497 -0.052766
C11   C     C_R   0.842298 0.562423 0.908507 -0.053951
C12   C     C_R   0.157682 0.437622 0.091514 -0.052584
C13   C     C_R   0.645928 0.145812 0.482806 -0.045489
C14   C     C_R   0.354011 0.855432 0.517267 -0.042720
C15   C     C_R   0.853852 0.642324 0.017417 -0.045556
C16   C     C_R   0.146196 0.358758 0.982526 -0.042725
C17   C     C_R   0.677731 0.129236 0.538353 -0.186615
C18   C     C_R   0.322199 0.872133 0.461728 -0.186742
C19   C     C_R   0.822121 0.626896 0.961781 -0.186909
C20   C     C_R   0.177939 0.374377 0.038149 -0.186973
C21   C     C_R   0.604932 0.012348 0.588706 -0.166304
C22   C     C_R   0.395149 0.986704 0.411194 -0.163117
C23   C     C_R   0.895129 0.513073 0.911203 -0.166434
C24   C     C_R   0.104792 0.485994 0.088893 -0.163374
C25   C     C_R   0.570859 0.030423 0.532554 0.069670
C26   C     C_R   0.429194 0.968977 0.467377 0.065574
C27   C     C_R   0.929129 0.530084 0.967441 0.069483
C28   C     C_R   0.070812 0.469224 0.032635 0.065379
C29   C     C_R   0.592460 0.099491 0.478785 0.001788
C30   C     C_R   0.407562 0.900344 0.521175 -0.014953
C31   C     C_R   0.907374 0.596802 0.021390 0.001522
C32   C     C_R   0.092592 0.402857 0.978664 -0.015234
C33   C     C_R   0.516176 0.986072 0.528504 -0.010376
C34   C     C_R   0.483881 0.013232 0.471428 0.008955
C35   C     C_R   0.983873 0.486763 0.971428 -0.010660
C36   C     C_R   0.016062 0.512415 0.028650 0.008686
C37   C     C_R   0.507173 0.083774 0.419982 -0.244686
C38   C     C_R   0.492860 0.915841 0.579979 -0.228190
C39   C     C_R   0.992600 0.580318 0.080312 -0.245194
C40   C     C_R   0.007352 0.419071 0.919747 -0.228494
C41   C     C_R   0.560166 0.124364 0.422542 0.390413
C42   C     C_R   0.439886 0.874816 0.577361 0.434621
C43   C     C_R   0.939557 0.620028 0.077786 0.390038
C44   C     C_R   0.060372 0.378865 0.922332 0.434413
H1    H     H_    0.408310 0.031472 0.367964 0.099148
H2    H     H_    0.591844 0.966430 0.631855 0.104735
H3    H     H_    0.091562 0.529502 0.132208 0.099033
H4    H     H_    0.908298 0.468539 0.867959 0.104578
H5    H     H_    0.281617 0.831181 0.460081 0.119494
H6    H     H_    0.718240 0.171261 0.540083 0.121361
H7    H     H_    0.218580 0.334268 0.039733 0.119453
H8    H     H_    0.781551 0.668062 0.960116 0.121302
H9    H     H_    0.664003 0.199467 0.443563 0.208784
H10   H     H_    0.335854 0.803160 0.556630 0.207969
H11   H     H_    0.835669 0.694346 0.056789 0.208827
H12   H     H_    0.164456 0.308076 0.943042 0.208013
H13   H     H_    0.484704 0.110832 0.376421 0.158930
H14   H     H_    0.515261 0.889791 0.623655 0.182353
H15   H     H_    0.014956 0.605806 0.124042 0.158983
H16   H     H_    0.985055 0.394498 0.875917 0.182452
C45   C     C_R   0.427199 0.793588 0.079186 -0.107481
C46   C     C_R   0.572836 0.206415 0.920865 -0.105671
C47   C     C_R   0.072793 0.293602 0.420798 -0.107637
C48   C     C_R   0.927164 0.706400 0.579141 -0.105483
H17   H     H_    0.445185 0.662963 0.063812 0.112632
H18   H     H_    0.554860 0.337041 0.936253 0.110346
H19   H     H_    0.054800 0.162981 0.436159 0.112675
H20   H     H_    0.945140 0.837024 0.563755 0.110373
C49   C     C_R   0.387940 0.778630 0.119136 -0.151890
C50   C     C_R   0.612088 0.221374 0.880905 -0.149164
C51   C     C_R   0.112052 0.278646 0.380848 -0.152137
C52   C     C_R   0.887912 0.721360 0.619100 -0.149059
H21   H     H_    0.376543 0.636163 0.133600 0.121224
H22   H     H_    0.623491 0.363844 0.866450 0.119663
H23   H     H_    0.123441 0.136183 0.366371 0.121244
H24   H     H_    0.876509 0.863827 0.633558 0.119656
C53   C     C_R   0.363651 0.945850 0.139827 -0.061183
C54   C     C_R   0.636362 0.054152 0.860191 -0.056883
C55   C     C_R   0.136350 0.445860 0.360172 -0.061158
C56   C     C_R   0.863638 0.554141 0.639810 -0.056901
C57   C     C_R   0.379995 0.127958 0.119493 -0.152139
C58   C     C_R   0.620012 0.872040 0.880517 -0.148767
C59   C     C_R   0.120013 0.627962 0.380522 -0.151927
C60   C     C_R   0.879989 0.372033 0.619482 -0.148762
H25   H     H_    0.362418 0.260262 0.134135 0.123051
H26   H     H_    0.637579 0.739734 0.865859 0.122181
H27   H     H_    0.137598 0.760260 0.365893 0.122978
H28   H     H_    0.862423 0.239730 0.634137 0.122191
C61   C     C_R   0.419139 0.142416 0.079682 -0.109272
C62   C     C_R   0.580875 0.857580 0.920337 -0.112825
C63   C     C_R   0.080869 0.642419 0.420334 -0.108896
C64   C     C_R   0.919127 0.357573 0.579662 -0.112856
H29   H     H_    0.430730 0.284260 0.064761 0.110512
H30   H     H_    0.569277 0.715733 0.935248 0.109476
H31   H     H_    0.069284 0.784257 0.435267 0.110454
H32   H     H_    0.930726 0.215729 0.564749 0.109522
C65   C     C_R   0.442947 0.975632 0.059146 0.126724
C66   C     C_R   0.557080 0.024366 0.940892 0.128629
C67   C     C_R   0.057053 0.475639 0.440853 0.126806
C68   C     C_R   0.942922 0.524356 0.559111 0.128534
C69   C     C_1   0.483226 0.992349 0.017452 -0.026518
C70   C     C_1   0.516803 0.007647 0.982589 -0.027720
C71   C     C_1   0.016775 0.492350 0.482548 -0.026433
C72   C     C_1   0.983198 0.507642 0.517413 -0.027694
S1    S     S_3+6 0.584165 0.210043 0.353570 0.051970
O21   O     O_2   0.605812 0.410556 0.364696 -0.285814
O22   O     O_2   0.626852 0.078821 0.336574 -0.297389
O23   O     O_3   0.536951 0.218781 0.293892 -0.480268
H33   H     H_    0.531970 0.082734 0.279951 0.347759
S2    S     S_3+6 0.415956 0.787966 0.646205 0.026659
O24   O     O_2   0.374381 0.922761 0.664070 -0.299460
O25   O     O_2   0.393214 0.589315 0.634369 -0.313865
O26   O     O_3   0.463732 0.775260 0.705147 -0.504824
H34   H     H_    0.446712 0.725427 0.740786 0.379941
S3    S     S_3+6 0.915338 0.702222 0.147033 0.052217
O27   O     O_2   0.893529 0.902845 0.136715 -0.285251
O28   O     O_2   0.872724 0.569540 0.163332 -0.297404
O29   O     O_3   0.962437 0.709085 0.206866 -0.480096
H35   H     H_    0.967540 0.572494 0.220195 0.347824
S4    S     S_3+6 0.084507 0.295228 0.853228 0.026958
O30   O     O_2   0.125996 0.431442 0.836001 -0.299421
O31   O     O_2   0.107422 0.096500 0.864339 -0.313344
O32   O     O_3   0.036835 0.284107 0.794134 -0.504680
H36   H     H_    0.053964 0.235961 0.758354 0.379953

loop_
_geom_bond_atom_site_label_1
_geom_bond_atom_site_label_2
_ccdc_geom_bond_type
O17   V3    S    
C48   C52   A    
O1    C5    A    
C47   H19   S    
O19   V1    S    
C9    C21   A    
O3    C7    A    
O32   H36   S    
C10   C18   A    
C48   C68   A    
C11   C23   A    
S2    O26   S    
C25   C33   A    
C33   C38   A    
C5    C12   S    
O7    C3    A    
C6    C11   S    
O5    C1    A    
C26   C30   A    
C58   C62   A    
C36   C39   A    
C40   C44   A    
C57   C61   A    
C14   C18   A    
C58   H26   S    
O4    C8    A    
S3    O29   S    
C51   H23   S    
C50   H22   S    
O1    V3    S    
O13   V1    S    
C31   C43   A    
O2    V4    S    
O3    V1    S    
C40   H16   S    
C22   H1    S    
C46   C50   A    
C17   H6    S    
C42   S2    S    
C45   C49   A    
C1    O15   A    
C15   C31   A    
C48   H20   S    
C2    O16   A    
O23   H33   S    
C16   C32   A    
C47   C51   A    
O2    C6    A    
C16   H12   S    
C45   C65   A    
C10   C22   A    
C11   C19   A    
C16   C20   A    
C1    C55   S    
C68   C72   S    
S1    O23   S    
C13   C29   A    
C34   C37   A    
O11   C7    A    
C38   H14   S    
O15   V3    S    
C35   C36   A    
O12   C8    A    
C53   C57   A    
O10   V2    S    
S4    O32   S    
C51   C55   A    
O5    V1    S    
O17   V1    S    
C39   C43   A    
C63   C67   A    
C38   C42   A    
O19   V3    S    
C26   C34   A    
O20   V4    S    
O7    V3    S    
C43   S3    S    
S4    O31   D    
C46   H18   S    
C49   C53   A    
C45   H17   S    
O18   V4    S    
C15   C19   A    
C14   H10   S    
C32   C44   A    
C13   H9    S    
C64   H32   S    
C39   H15   S    
O8    V4    S    
C66   C70   S    
C20   H7    S    
C4    C54   S    
C23   C27   A    
C41   S1    S    
C14   C30   A    
C21   C25   A    
O8    C4    A    
C7    C10   S    
C35   C40   A    
O9    C5    A    
C3    C53   S    
C59   C63   A    
C62   H30   S    
C61   H29   S    
O6    V2    S    
C65   C69   S    
O18   V2    S    
C63   H31   S    
C52   C56   A    
C69   C70   T    
C12   C20   A    
C27   C35   A    
C24   H3    S    
C71   C72   T    
C49   H21   S    
C67   C71   S    
C56   C60   A    
C29   C41   A    
S1    O21   D    
O16   V4    S    
O9    V1    S    
C19   H8    S    
C57   H25   S    
C3    O13   A    
C18   H5    S    
C64   C68   A    
C21   H2    S    
C59   H27   S    
S4    O30   D    
O6    C2    A    
C44   S4    S    
S2    O25   D    
S3    O27   D    
O11   V3    S    
S2    O24   D    
C30   C42   A    
O12   V4    S    
O26   H34   S    
C22   C26   A    
C8    C9    S    
C9    C17   A    
C60   C64   A    
C2    C56   S    
C37   H13   S    
C47   C67   A    
S3    O28   D    
O10   C6    A    
C33   C34   A    
C25   C29   A    
C52   H24   S    
O20   V2    S    
C12   C24   A    
C27   C31   A    
C37   C41   A    
C13   C17   A    
C46   C66   A    
C23   H4    S    
O14   V2    S    
C62   C66   A    
C60   H28   S    
C24   C28   A    
C61   C65   A    
C50   C54   A    
C28   C36   A    
C54   C58   A    
C4    O14   A    
O29   H35   S    
C55   C59   A    
O4    V2    S    
C28   C32   A    
C15   H11   S    
S1    O22   D    
