data_str_m2_o14_o18_f0_pcu.sym.119
_audit_creation_date              2013-03-05T15:50:49-0500
_audit_creation_method            fapswitch 2.2
_symmetry_space_group_name_H-M    P1
_symmetry_Int_Tables_number       1
_space_group_crystal_system       triclinic
_cell_length_a                    9.599853
_cell_length_b                    10.807661
_cell_length_c                    15.484807
_cell_angle_alpha                 86.749955
_cell_angle_beta                  74.050557
_cell_angle_gamma                 90.789609
_cell_volume                      1541.52704506

loop_
_atom_site_label
_atom_site_type_symbol
_atom_site_description
_atom_site_fract_x
_atom_site_fract_y
_atom_site_fract_z
_atom_type_partial_charge
O1    O     O_R   0.118810 0.319640 0.500010 -0.564306
O2    O     O_R   0.881240 0.319660 0.500000 -0.581018
C1    C     C_R   0.996770 0.262286 0.504842 0.862272
O3    O     O_R   0.055570 0.499980 0.629840 -0.581308
O4    O     O_R   0.818000 0.500010 0.629830 -0.572212
C2    C     C_R   0.918074 0.506843 0.671511 0.824458
Cu1   Cu    Cu3+1 0.140660 0.499990 0.500010 0.945518
Cu2   Cu    Cu3+1 0.859340 0.500010 0.499990 0.947148
O5    O     O_R   0.118760 0.680340 0.500000 -0.609429
O6    O     O_R   0.881190 0.680360 0.499990 -0.583734
O7    O     O_R   0.182000 0.499990 0.370170 -0.598979
O8    O     O_R   0.944430 0.500020 0.370160 -0.605223
C3    C     C_R   0.000021 0.737179 0.502934 0.763061
C4    C     C_R   0.082066 0.501502 0.327854 0.773079
C5    C     C_R   0.871233 0.529324 0.767826 -0.077750
C6    C     C_R   0.127473 0.505956 0.229101 -0.046626
C7    C     C_R   0.917323 0.602975 0.902205 -0.193102
C8    C     C_R   0.968343 0.571859 0.813052 -0.195237
C9    C     C_R   0.723288 0.517804 0.812657 -0.233587
C10   C     C_R   0.668635 0.550508 0.901832 0.102602
C11   C     C_R   0.768907 0.590651 0.947325 0.156200
C12   C     C_R   0.517871 0.541250 0.947442 0.061496
C13   C     C_R   0.471496 0.558240 0.041382 0.066464
C14   C     C_R   0.574777 0.600139 0.084047 -0.214949
C15   C     C_R   0.720224 0.617455 0.037373 -0.230367
C16   C     C_R   0.411932 0.516876 0.902036 -0.166359
C17   C     C_R   0.266646 0.500067 0.948233 -0.207441
C18   C     C_R   0.221186 0.505975 0.041210 0.160842
C19   C     C_R   0.323057 0.533819 0.089104 0.093851
C20   C     C_R   0.074526 0.482892 0.086969 -0.208285
C21   C     C_R   0.027636 0.484197 0.180258 -0.195265
C22   C     C_R   0.273542 0.530933 0.183526 -0.253638
H1    H     H_    0.795573 0.649867 0.072638 0.150078
H2    H     H_    0.347544 0.543974 0.223503 0.152722
H3    H     H_    0.914110 0.465086 0.214201 0.160370
H4    H     H_    0.189734 0.479730 0.910841 0.144479
H5    H     H_    0.993845 0.637055 0.935928 0.159542
H6    H     H_    0.082863 0.582679 0.779216 0.194870
H7    H     H_    0.653053 0.479350 0.776923 0.145999
H8    H     H_    0.546183 0.623776 0.153190 0.152602
H9    H     H_    0.436923 0.513101 0.830054 0.160971
H10   H     H_    0.996308 0.461742 0.050691 0.140907
H11   H     H_    0.889633 0.118662 0.405152 0.154673
C23   C     C_R   0.071936 0.113948 0.653380 0.185749
C24   C     C_R   0.147695 0.048363 0.705704 -0.279801
H12   H     H_    0.173762 0.092803 0.760497 0.177136
C25   C     C_R   0.178717 0.923823 0.692950 0.362134
C26   C     C_R   0.126375 0.863680 0.629884 -0.267986
H13   H     H_    0.137988 0.764887 0.628862 0.204969
C27   C     C_R   0.058807 0.929875 0.571555 0.000786
C28   C     C_R   0.042585 0.059147 0.578701 0.076099
C29   C     C_R   0.989143 0.127545 0.514112 -0.092208
C30   C     C_R   0.933184 0.066825 0.453322 -0.213081
H14   H     H_    0.891250 0.894407 0.404454 0.140885
C31   C     C_R   0.935706 0.939400 0.452247 -0.186584
C32   C     C_R   0.000559 0.870646 0.508938 -0.046366
H15   H     H_    0.581103 0.359108 0.603226 0.134706
C33   C     C_R   0.700953 0.664184 0.378288 -0.146646
H16   H     H_    0.813745 0.670193 0.372154 0.190622
C34   C     C_R   0.656233 0.745982 0.319566 -0.215351
H17   H     H_    0.734254 0.808386 0.272800 0.150787
C35   C     C_R   0.512064 0.748189 0.320937 -0.220805
H18   H     H_    0.477373 0.812280 0.275188 0.156587
C36   C     C_R   0.411905 0.667809 0.380426 -0.148689
H19   H     H_    0.304230 0.676844 0.375694 0.195825
C37   C     C_R   0.452766 0.582064 0.440971 0.219995
C38   C     C_R   0.602554 0.581165 0.440442 0.218701
N1    N     N_R   0.648320 0.501210 0.499140 -0.199737
C39   C     C_R   0.547528 0.422589 0.556733 -0.048902
H20   H     H_    0.322873 0.358856 0.602951 0.134176
C40   C     C_R   0.399676 0.422457 0.556595 -0.041977
N2    N     N_R   0.352470 0.501290 0.499110 -0.199220
N3    N     N_2   0.000526 0.222530 0.687478 -0.431107
H21   H     H_    0.054422 0.272131 0.724108 0.248305
C41   C     C_3   0.849703 0.197453 0.735952 -0.665195
H22   H     H_    0.798395 0.283235 0.762649 0.213167
H23   H     H_    0.840825 0.128973 0.793720 0.235791
H24   H     H_    0.788964 0.161288 0.690658 0.237675
N4    N     N_R   0.255699 0.856555 0.747499 0.127287
O9    O     O_R   0.286507 0.907404 0.814498 -0.366401
O10   O     O_R   0.302540 0.746376 0.727742 -0.396708

loop_
_geom_bond_atom_site_label_1
_geom_bond_atom_site_label_2
_geom_bond_distance
_ccdc_geom_bond_type
C5    C8    1.397977 A    
C31   C32   1.396251 A    
N3    H21   1.031945 S    
C9    C10   1.403295 A    
C25   N4    1.440980 S    
Cu1   Cu2   2.700718 S    
C24   H12   1.082941 S    
C23   C24   1.400270 A    
C6    C21   1.399368 A    
C5    C9    1.399290 A    
C16   C17   1.385616 A    
C13   C19   1.426581 A    
C18   C19   1.418707 A    
C19   C22   1.406112 A    
C20   C21   1.390932 A    
O7    C4    1.301798 A    
C33   C34   1.387987 A    
C34   C35   1.378879 A    
C24   C25   1.395797 A    
C39   C40   1.419929 A    
O5    C3    1.293350 A    
C35   C36   1.388234 A    
C2    C5    1.470066 S    
H11   C30   1.084206 S    
C37   N2    1.382376 A    
N1    C39   1.367753 A    
C13   C14   1.416366 A    
H20   C40   1.081934 S    
C3    C32   1.450741 S    
C26   C27   1.417689 A    
C37   C38   1.435879 A    
N3    C41   1.449854 S    
O3    Cu1   1.950996 S    
C27   C28   1.415096 A    
C30   C31   1.378680 A    
C38   N1    1.380859 A    
C14   C15   1.389171 A    
O3    C2    1.305432 A    
Cu1   N2    2.029409 S    
N4    O10   1.301620 A    
C33   H16   1.061370 S    
C7    C11   1.404632 A    
C28   C29   1.420772 A    
C34   H17   1.082994 S    
O1    C1    1.299593 A    
C36   C37   1.416060 A    
Cu1   O7    1.939404 S    
C41   H22   1.103243 S    
C35   H18   1.083019 S    
C25   C26   1.400474 A    
Cu2   O8    1.950996 S    
C7    C8    1.394411 A    
C7    H5    1.083123 S    
C41   H23   1.111989 S    
C9    H7    1.075594 S    
C23   C28   1.421111 A    
C26   H13   1.075603 S    
C10   C12   1.424693 A    
Cu2   N1    2.029632 S    
C21   H3    1.083204 S    
C29   C30   1.394107 A    
Cu1   O5    1.963341 S    
C11   C15   1.392128 A    
H14   C31   1.083946 S    
O1    Cu1   1.957539 S    
O2    Cu2   1.963341 S    
O8    C4    1.302972 A    
O6    C3    1.301133 A    
O4    Cu2   1.939404 S    
C1    C29   1.454011 S    
C17   H4    1.083326 S    
C6    C22   1.400465 A    
C36   H19   1.061584 S    
C18   C20   1.403048 A    
O2    C1    1.295977 A    
C8    H6    1.081560 S    
C40   N2    1.367473 A    
O4    C2    1.299684 A    
C14   H8    1.076281 S    
C4    C6    1.468133 S    
C23   N3    1.421039 S    
C41   H24   1.110956 S    
C27   C32   1.421651 A    
N4    O9    1.301772 A    
C33   C38   1.415176 A    
C10   C11   1.416643 A    
Cu2   O6    1.957539 S    
C12   C16   1.415853 A    
C15   H1    1.084397 S    
C17   C18   1.390408 A    
C12   C13   1.422863 A    
C20   H10   1.083198 S    
H15   C39   1.081908 S    
C16   H9    1.077063 S    
C22   H2    1.075455 S    
