data_str_m9_o4_o18_f0_sra.sym.110
_audit_creation_date              2013-03-05T16:07:35-0500
_audit_creation_method            fapswitch 2.2
_symmetry_space_group_name_H-M    P1
_symmetry_Int_Tables_number       1
_space_group_crystal_system       triclinic
_cell_length_a                    21.670704
_cell_length_b                    7.064029
_cell_length_c                    14.876633
_cell_angle_alpha                 89.998929
_cell_angle_beta                  106.362085
_cell_angle_gamma                 90.000783
_cell_volume                      2185.12051382

loop_
_atom_site_label
_atom_site_type_symbol
_atom_site_description
_atom_site_fract_x
_atom_site_fract_y
_atom_site_fract_z
_atom_type_partial_charge
O1    O     O_R   0.585850 0.505770 0.002130 -0.594004
O2    O     O_R   0.414150 0.005770 0.997870 -0.594012
O3    O     O_R   0.467530 0.173560 0.861970 -0.581720
O4    O     O_R   0.532470 0.673560 0.138030 -0.581716
C1    C     C_R   0.456103 0.344999 0.825201 0.921000
C2    C     C_R   0.543896 0.844997 0.174799 0.921005
O5    O     O_R   0.588690 0.175900 0.993250 -0.595093
O6    O     O_R   0.411310 0.675900 0.006750 -0.595098
O7    O     O_R   0.536170 0.007950 0.130090 -0.586784
O8    O     O_R   0.463830 0.507950 0.869910 -0.586786
C3    C     C_R   0.615083 0.344604 0.997820 0.949351
C4    C     C_R   0.384916 0.844601 0.002178 0.949357
O9    O     O_3   0.482630 0.339970 0.044740 -0.275973
O10   O     O_3   0.517370 0.839970 0.955260 -0.275970
V1    V     V_3+5 0.503220 0.064200 0.991700 1.191737
V2    V     V_3+5 0.496780 0.564200 0.008300 1.191741
C5    C     C_R   0.276488 0.003069 0.954880 0.130771
C6    C     C_R   0.723518 0.503048 0.045129 0.130749
C7    C     C_R   0.315674 0.852167 0.997941 -0.200748
C8    C     C_R   0.684324 0.352173 0.002049 -0.200754
C9    C     C_R   0.285635 0.702905 0.032413 -0.111434
C10   C     C_R   0.714356 0.202928 0.967554 -0.111368
H1    H     H_    0.313292 0.581023 0.064726 0.140639
H2    H     H_    0.686695 0.081062 0.935230 0.140618
C11   C     C_R   0.220429 0.715119 0.031269 -0.067827
C12   C     C_R   0.779562 0.215135 0.968698 -0.067728
H3    H     H_    0.200146 0.602009 0.062941 0.113865
H4    H     H_    0.799842 0.102037 0.937015 0.113821
C13   C     C_R   0.183029 0.876228 0.994947 -0.256467
C14   C     C_R   0.816969 0.376220 0.005040 -0.256427
C15   C     C_R   0.211828 0.014494 0.952230 0.165191
C16   C     C_R   0.788175 0.514466 0.047770 0.165256
C17   C     C_3   0.215395 0.225052 0.963798 0.169812
C18   C     C_3   0.784624 0.725029 0.036224 0.169779
C19   C     C_3   0.286525 0.210877 0.967479 -0.589352
C20   C     C_3   0.713495 0.710870 0.032560 -0.589353
H5    H     H_    0.205997 0.273571 0.029770 0.043315
H6    H     H_    0.794022 0.773578 0.970257 0.043326
H7    H     H_    0.319375 0.246333 0.037445 0.190915
H8    H     H_    0.680640 0.746384 0.962606 0.190937
H9    H     H_    0.300005 0.275016 0.907466 0.229029
H10   H     H_    0.700039 0.774994 0.092596 0.228970
C21   C     C_R   0.928460 0.877777 0.723284 -0.187782
C22   C     C_R   0.071538 0.377767 0.276717 -0.187800
C23   C     C_R   0.571778 0.857531 0.276227 -0.102832
C24   C     C_R   0.428219 0.357540 0.723774 -0.102828
C25   C     C_R   0.936703 0.764181 0.574278 -0.135729
C26   C     C_R   0.063295 0.264168 0.425725 -0.135721
C27   C     C_R   0.964835 0.797552 0.669060 0.228997
C28   C     C_R   0.035167 0.297500 0.330938 0.229012
C29   C     C_R   0.863456 0.918721 0.682848 -0.241162
C30   C     C_R   0.136539 0.418750 0.317158 -0.241176
C31   C     C_R   0.832541 0.875087 0.587710 0.120964
C32   C     C_R   0.167453 0.375127 0.412298 0.120953
C33   C     C_R   0.871271 0.805242 0.531876 -0.067734
C34   C     C_R   0.128721 0.305294 0.468134 -0.067732
C35   C     C_R   0.764391 0.892738 0.547561 0.045439
C36   C     C_R   0.235602 0.392780 0.452447 0.045449
C37   C     C_R   0.736487 0.852123 0.450712 0.002288
C38   C     C_R   0.263504 0.352192 0.549300 0.002246
C39   C     C_R   0.777407 0.793854 0.397108 -0.258884
C40   C     C_R   0.222580 0.293999 0.602914 -0.258879
C41   C     C_R   0.843366 0.769758 0.435834 0.345243
C42   C     C_R   0.156620 0.269894 0.564187 0.345228
C43   C     C_R   0.723003 0.942456 0.602117 -0.233013
C44   C     C_R   0.276991 0.442471 0.397887 -0.233012
C45   C     C_R   0.656748 0.955595 0.564068 0.170067
C46   C     C_R   0.343245 0.455618 0.435935 0.170066
C47   C     C_R   0.628702 0.920806 0.468306 0.074343
C48   C     C_R   0.371291 0.420841 0.531698 0.074348
C49   C     C_R   0.668348 0.868911 0.410450 0.116934
C50   C     C_R   0.331645 0.368950 0.589558 0.116936
C51   C     C_R   0.561664 0.938041 0.428888 -0.099111
C52   C     C_R   0.438329 0.438076 0.571114 -0.099113
C53   C     C_R   0.533684 0.908333 0.333626 -0.129995
C54   C     C_R   0.466311 0.408363 0.666375 -0.129993
C55   C     C_R   0.638062 0.837278 0.313883 -0.196803
C56   C     C_R   0.361935 0.337281 0.686121 -0.196814
H11   H     H_    0.664217 0.802698 0.264436 0.109010
H12   H     H_    0.335783 0.302651 0.735567 0.109038
H13   H     H_    0.482311 0.927508 0.304371 0.141534
H14   H     H_    0.517684 0.427542 0.695627 0.141531
H15   H     H_    0.966299 0.698184 0.535673 0.189900
H16   H     H_    0.033702 0.198142 0.464329 0.189878
H17   H     H_    0.838268 0.979278 0.728830 0.108571
H18   H     H_    0.161726 0.479333 0.271179 0.108586
H19   H     H_    0.759734 0.763522 0.323604 0.185367
H20   H     H_    0.240249 0.263761 0.676428 0.185489
H21   H     H_    0.740253 0.968244 0.676182 0.151330
H22   H     H_    0.259741 0.468230 0.323819 0.151333
H23   H     H_    0.530175 0.977639 0.470575 0.169321
H24   H     H_    0.469817 0.477680 0.529425 0.169320
O11   O     O_R   0.036080 0.231270 0.130120 -0.597785
O12   O     O_R   0.963920 0.731270 0.869880 -0.597764
O13   O     O_R   0.911300 0.558970 0.006750 -0.586852
O14   O     O_R   0.088700 0.058970 0.993250 -0.586810
C57   C     C_R   0.884852 0.389936 0.002131 0.958748
C58   C     C_R   0.115147 0.889939 0.997863 0.958737
O15   O     O_R   0.032450 0.561140 0.138040 -0.574880
O16   O     O_R   0.967550 0.061140 0.861960 -0.574893
O17   O     O_R   0.085870 0.728910 0.002130 -0.591422
O18   O     O_R   0.914130 0.228910 0.997870 -0.591453
C59   C     C_R   0.045070 0.392052 0.175013 0.958265
C60   C     C_R   0.954930 0.892055 0.824987 0.958236
O19   O     O_3   0.017320 0.394650 0.955270 -0.251680
O20   O     O_3   0.982680 0.894650 0.044730 -0.251792
V3    V     V_3+5 0.996780 0.670490 0.008300 1.251649
V4    V     V_3+5 0.003220 0.170490 0.991700 1.251659
I1    I     I_    0.602998 0.028784 0.659125 -0.492742
I2    I     I_    0.396995 0.528778 0.340872 -0.492737
I3    I     I_    0.062445 0.720160 0.727457 -0.099293
I4    I     I_    0.937571 0.219985 0.272531 -0.099125
N1    N     N_R   0.176051 0.322216 0.880323 0.276654
O21   O     O_R   0.200454 0.455397 0.840358 -0.372994
O22   O     O_R   0.114256 0.294290 0.853361 -0.302522
N2    N     N_R   0.823964 0.822143 0.119708 0.276576
O23   O     O_R   0.799615 0.955761 0.159485 -0.372969
O24   O     O_R   0.885736 0.793740 0.146856 -0.302438
N3    N     N_R   0.880865 0.707562 0.375461 0.251171
O25   O     O_R   0.933743 0.794893 0.375595 -0.363007
O26   O     O_R   0.856234 0.587943 0.308499 -0.355923
N4    N     N_R   0.119111 0.207822 0.624573 0.251205
O27   O     O_R   0.066214 0.295127 0.624356 -0.363102
O28   O     O_R   0.143746 0.088368 0.691616 -0.355895

loop_
_geom_bond_atom_site_label_1
_geom_bond_atom_site_label_2
_geom_bond_distance
_ccdc_geom_bond_type
O17   V3    2.001485 S    
C44   C46   1.390179 A    
C6    C20   1.488108 S    
C2    C23   1.461515 S    
C31   C33   1.424990 A    
C20   H10   1.111140 S    
O1    C3    1.313196 A    
O2    C4    1.313193 A    
O11   C59   1.304101 A    
C2    O7    1.316321 A    
C24   C54   1.391627 A    
C25   C27   1.389648 A    
C43   H21   1.074671 S    
O19   V3    2.194367 S    
C14   C57   1.486997 S    
C52   C54   1.391380 A    
C13   C58   1.487006 S    
C7    C9    1.409439 A    
O11   V4    2.026248 S    
C19   H7    1.111500 S    
C56   H12   1.075629 S    
C35   C37   1.425818 A    
O20   V3    1.728530 S    
C38   C50   1.433514 A    
C36   C38   1.425818 A    
O16   C60   1.311199 A    
N2    O23   1.302105 A    
C38   C40   1.410734 A    
C52   H24   1.080250 S    
C39   C41   1.392864 A    
C21   C60   1.462664 S    
C40   C42   1.392875 A    
C39   H19   1.073484 S    
C5    C7    1.400464 A    
C36   C44   1.413023 A    
C43   C45   1.390186 A    
C33   C41   1.408248 A    
C48   C52   1.410389 A    
C50   C56   1.418902 A    
C34   C42   1.408261 A    
C47   C51   1.410389 A    
C25   H15   1.079853 S    
C6    C8    1.400476 A    
C57   O18   1.312684 A    
C27   I3    2.119586 S    
C22   C30   1.397318 A    
O5    V1    2.007401 S    
O14   V4    2.007120 S    
O12   C60   1.304100 A    
O6    V2    2.007421 S    
C51   C53   1.391387 A    
C29   H17   1.076694 S    
C28   I4    2.119560 S    
C22   C59   1.462671 S    
C30   C32   1.418730 A    
C55   H11   1.075627 S    
C11   C13   1.413281 A    
C3    C8    1.484978 S    
O19   V4    1.728503 S    
C32   C34   1.424987 A    
O12   V3    2.026236 S    
O16   V4    2.019634 S    
C37   C39   1.410721 A    
C20   H8    1.111494 S    
C51   H23   1.080250 S    
O4    C2    1.323193 A    
O15   C59   1.311207 A    
C54   H14   1.083592 S    
C24   C56   1.394355 A    
C31   C35   1.434024 A    
C53   H13   1.083591 S    
C40   H20   1.073482 S    
C17   H5    1.111204 S    
C26   H16   1.079856 S    
O14   C58   1.317868 A    
C45   C47   1.404094 A    
C16   C18   1.496794 S    
O4    V2    2.019584 S    
O5    C3    1.315315 A    
C41   N3    1.439205 S    
O6    C4    1.315312 A    
C15   C17   1.496805 S    
O1    V2    2.001087 S    
C46   I2    2.133513 S    
O18   V4    2.001497 S    
O2    V1    2.001076 S    
N3    O26   1.300662 A    
O13   V3    2.007101 S    
C44   H22   1.074673 S    
C8    C10   1.409453 A    
C12   C14   1.413278 A    
C9    H1    1.081312 S    
C5    C15   1.392979 A    
C10   H2    1.081316 S    
C6    C16   1.392954 A    
N4    O28   1.300684 A    
C49   C55   1.418899 A    
O3    V1    2.019563 S    
C25   C33   1.410219 A    
N1    O21   1.302057 A    
C32   C36   1.434013 A    
C22   C28   1.396982 A    
C26   C34   1.410214 A    
C9    C11   1.410994 A    
C18   H6    1.111190 S    
C17   N1    1.464110 S    
C21   C27   1.396982 A    
C35   C43   1.413026 A    
O3    C1    1.323194 A    
C48   C50   1.424801 A    
N3    O25   1.300898 A    
O13   C57   1.317874 A    
C11   H3    1.081806 S    
C58   O17   1.312691 A    
O15   V3    2.019613 S    
C1    C24   1.461510 S    
C12   H4    1.081809 S    
C47   C49   1.424795 A    
C23   C53   1.391630 A    
C30   H18   1.076696 S    
O7    V1    2.019416 S    
C1    O8    1.316321 A    
C13   C15   1.403827 A    
O8    V2    2.019428 S    
C14   C16   1.403806 A    
C45   I1    2.133513 S    
O20   V4    2.194331 S    
C21   C29   1.397321 A    
C42   N4    1.439239 S    
C4    C7    1.484977 S    
C26   C28   1.389649 A    
C17   C19   1.530201 S    
N2    O24   1.300279 A    
C18   C20   1.530220 S    
C19   H9    1.111133 S    
C46   C48   1.404089 A    
C10   C12   1.411003 A    
O9    V2    1.729296 S    
O10   V1    1.729323 S    
C23   C55   1.394352 A    
C5    C19   1.488078 S    
C29   C31   1.418728 A    
N4    O27   1.300905 A    
C18   N2    1.464024 S    
C37   C49   1.433502 A    
N1    O22   1.300193 A    
