data_str_m4_o4_o14_f0_acs.sym.116
_audit_creation_date              2012-12-11T15:42:57-0500
_audit_creation_method            fapswitch 2.2
_symmetry_space_group_name_H-M    P1
_symmetry_Int_Tables_number       1
_space_group_crystal_system       triclinic
_cell_length_a                    19.096449
_cell_length_b                    10.9491
_cell_length_c                    18.850517
_cell_angle_alpha                 89.92685
_cell_angle_beta                  90.19119
_cell_angle_gamma                 90.231389
_cell_volume                      3941.37719505

loop_
_atom_site_label
_atom_site_type_symbol
_atom_type_description
_atom_site_fract_x
_atom_site_fract_y
_atom_site_fract_z
_atom_type_partial_charge
C1    C     C_R   0.727206 0.369956 0.143462 0.542910
C2    C     C_R   0.287385 0.331673 0.861542 0.545467
C3    C     C_R   0.227206 0.869957 0.143462 0.542910
C4    C     C_R   0.787385 0.831673 0.861542 0.545467
C5    C     C_R   0.512090 0.390572 0.925079 -0.109451
C6    C     C_R   0.494447 0.392414 0.071688 -0.108282
C7    C     C_R   0.012090 0.890572 0.925079 -0.109451
C8    C     C_R   0.994447 0.892414 0.071688 -0.108281
C9    C     C_R   0.008478 0.001403 0.961348 -0.143206
C10   C     C_R   0.997711 0.002278 0.034158 -0.146631
C11   C     C_R   0.508478 0.501403 0.961348 -0.143206
C12   C     C_R   0.497711 0.502278 0.034158 -0.146632
C13   C     C_R   0.773607 0.857560 0.935514 0.022828
C14   C     C_R   0.239937 0.897609 0.069740 0.055242
C15   C     C_R   0.273607 0.357560 0.935514 0.022828
C16   C     C_R   0.739936 0.397608 0.069740 0.055242
C17   C     C_R   0.705952 0.857510 0.963859 0.013962
C18   C     C_R   0.304942 0.883000 0.037296 -0.000146
C19   C     C_R   0.205952 0.357510 0.963859 0.013961
C20   C     C_R   0.804942 0.382999 0.037296 -0.000145
C21   C     C_R   0.695020 0.890438 0.034007 0.029084
C22   C     C_R   0.311202 0.897914 0.964301 0.021248
C23   C     C_R   0.195020 0.390438 0.034007 0.029084
C24   C     C_R   0.811202 0.397914 0.964301 0.021248
C25   C     C_R   0.818971 0.926376 0.048208 -0.127013
C26   C     C_R   0.186758 0.931725 0.954954 -0.149226
C27   C     C_R   0.318971 0.426376 0.048208 -0.127013
C28   C     C_R   0.686758 0.431725 0.954954 -0.149226
C29   C     C_R   0.829416 0.895364 0.977997 -0.115184
C30   C     C_R   0.181288 0.923667 0.027510 -0.109322
C31   C     C_R   0.329416 0.395364 0.977997 -0.115185
C32   C     C_R   0.681288 0.423667 0.027509 -0.109322
C33   C     C_3   0.654375 0.755043 0.967990 -0.270686
C34   C     C_3   0.352495 0.775046 0.038948 -0.268924
C35   C     C_3   0.154375 0.255044 0.967990 -0.270686
C36   C     C_3   0.852495 0.275045 0.038947 -0.268925
C37   C     C_3   0.640802 0.792930 0.044209 -0.069089
C38   C     C_3   0.360569 0.792020 0.959474 -0.067685
C39   C     C_3   0.140802 0.292931 0.044208 -0.069089
C40   C     C_3   0.860569 0.292020 0.959474 -0.067685
C41   C     C_R   0.751990 0.920512 0.077604 0.065535
C42   C     C_R   0.251474 0.920535 0.922549 0.052871
C43   C     C_R   0.251990 0.420512 0.077604 0.065536
C44   C     C_R   0.751474 0.420534 0.922549 0.052871
C45   C     C_R   0.531433 0.155811 0.146604 0.537166
C46   C     C_R   0.469153 0.155774 0.852960 0.529627
C47   C     C_R   0.031433 0.655811 0.146604 0.537166
C48   C     C_R   0.969153 0.655774 0.852960 0.529627
C49   C     C_R   0.504642 0.163143 0.579124 0.016027
C50   C     C_R   0.520837 0.163904 0.431106 0.015427
C51   C     C_R   0.004642 0.663143 0.579124 0.016026
C52   C     C_R   0.020837 0.663904 0.431106 0.015427
C53   C     C_R   0.515699 0.054449 0.541717 0.031322
C54   C     C_R   0.523200 0.055519 0.469567 0.038961
C55   C     C_R   0.015698 0.554449 0.541716 0.031322
C56   C     C_R   0.023200 0.555518 0.469567 0.038961
C57   C     C_R   0.523159 0.274808 0.469082 -0.160378
C58   C     C_R   0.515678 0.274362 0.543307 -0.166713
C59   C     C_R   0.023159 0.774808 0.469082 -0.160377
C60   C     C_R   0.015678 0.774362 0.543307 -0.166713
C61   C     C_3   0.473965 0.938140 0.538667 -0.269257
C62   C     C_3   0.482753 0.940259 0.459068 -0.280068
C63   C     C_3   0.973964 0.438140 0.538667 -0.269256
C64   C     C_3   0.982752 0.440259 0.459068 -0.280068
C65   C     C_R   0.749747 0.933094 0.580399 0.016109
C66   C     C_R   0.237579 0.891842 0.430224 0.014759
C67   C     C_R   0.249747 0.433094 0.580399 0.016110
C68   C     C_R   0.737578 0.391842 0.430224 0.014759
C69   C     C_R   0.798977 0.003244 0.543063 0.031535
C70   C     C_R   0.181985 0.942030 0.467622 0.039339
C71   C     C_R   0.298977 0.503246 0.543064 0.031536
C72   C     C_R   0.681986 0.442033 0.467621 0.039337
C73   C     C_R   0.795615 0.012174 0.470695 0.037887
C74   C     C_R   0.183847 0.952245 0.539939 0.029444
C75   C     C_R   0.295614 0.512176 0.470695 0.037888
C76   C     C_R   0.683848 0.452249 0.539938 0.029444
C77   C     C_R   0.686335 0.902817 0.469958 -0.160831
C78   C     C_R   0.292471 0.841239 0.543265 -0.164749
C79   C     C_R   0.186335 0.402816 0.469957 -0.160831
C80   C     C_R   0.792470 0.341238 0.543266 -0.164750
C81   C     C_R   0.689217 0.894038 0.544226 -0.167514
C82   C     C_R   0.290432 0.831703 0.469011 -0.161958
C83   C     C_R   0.189217 0.394037 0.544226 -0.167513
C84   C     C_R   0.790431 0.331701 0.469011 -0.161959
C85   C     C_3   0.877467 0.997483 0.541170 -0.268793
C86   C     C_3   0.146172 0.061379 0.457151 -0.278020
C87   C     C_3   0.377466 0.497488 0.541171 -0.268792
C88   C     C_3   0.646175 0.561384 0.457149 -0.278022
C89   C     C_R   0.740990 0.970490 0.147405 0.555375
C90   C     C_R   0.259130 0.969150 0.852055 0.541093
C91   C     C_R   0.240990 0.470490 0.147405 0.555376
C92   C     C_R   0.759130 0.469150 0.852055 0.541093
C93   C     C_3   0.872987 0.007678 0.461386 -0.281423
C94   C     C_3   0.148098 0.073887 0.536928 -0.271244
C95   C     C_3   0.372986 0.507683 0.461386 -0.281421
C96   C     C_3   0.648103 0.573894 0.536927 -0.271241
C97   C     C_R   0.743289 0.953144 0.432276 0.015304
C98   C     C_R   0.242528 0.913213 0.578328 0.017397
C99   C     C_R   0.243288 0.453144 0.432276 0.015304
C100  C     C_R   0.742528 0.413214 0.578328 0.017397
C101  C     C_R   0.727558 0.372614 0.354759 0.543793
C102  C     C_R   0.269993 0.380443 0.648279 0.552422
C103  C     C_R   0.227558 0.872614 0.354759 0.543793
C104  C     C_R   0.769993 0.880443 0.648279 0.552421
C105  C     C_R   0.536134 0.156840 0.355787 0.542194
C106  C     C_R   0.468606 0.156997 0.647057 0.542637
C107  C     C_R   0.036134 0.656840 0.355786 0.542194
C108  C     C_R   0.968606 0.656996 0.647057 0.542636
C109  C     C_R   0.739661 0.977334 0.356718 0.545975
C110  C     C_R   0.257730 0.969955 0.646349 0.546415
C111  C     C_R   0.239661 0.477334 0.356718 0.545975
C112  C     C_R   0.757730 0.469955 0.646349 0.546415
C113  C     C_R   0.498600 0.164875 0.924922 0.009772
C114  C     C_R   0.503831 0.165680 0.073918 0.010846
C115  C     C_R   0.998600 0.664875 0.924922 0.009772
C116  C     C_R   0.003831 0.665680 0.073918 0.010846
C117  C     C_R   0.504379 0.278050 0.961347 0.013328
C118  C     C_R   0.501167 0.278793 0.036604 0.017831
C119  C     C_R   0.004379 0.778050 0.961347 0.013328
C120  C     C_R   0.001167 0.778792 0.036604 0.017831
C121  C     C_R   0.500014 0.056228 0.036106 -0.147812
C122  C     C_R   0.500520 0.055737 0.963394 -0.145349
C123  C     C_R   0.000013 0.556228 0.036106 -0.147812
C124  C     C_R   0.000520 0.555737 0.963394 -0.145349
Cr1   Cr    Cr6+3 0.772010 0.169670 0.250090 1.013052
Cr2   Cr    Cr6+3 0.227990 0.169670 0.749910 1.007496
Cr3   Cr    Cr6+3 0.272010 0.669670 0.250090 1.013053
Cr4   Cr    Cr6+3 0.727990 0.669670 0.749910 1.007496
Cr5   Cr    Cr6+3 0.615000 0.323260 0.249260 1.037591
Cr6   Cr    Cr6+3 0.385000 0.323260 0.750740 1.031573
Cr7   Cr    Cr6+3 0.115000 0.823260 0.249260 1.037591
Cr8   Cr    Cr6+3 0.885000 0.823260 0.750740 1.031573
Cr9   Cr    Cr6+3 0.616710 0.010760 0.250840 1.045011
Cr10  Cr    Cr6+3 0.383290 0.010760 0.749160 1.031977
Cr11  Cr    Cr6+3 0.116710 0.510760 0.250840 1.045011
Cr12  Cr    Cr6+3 0.883290 0.510760 0.749160 1.031977
H1    H     H_    0.499523 0.968813 0.062867 0.130931
H2    H     H_    0.498842 0.967939 0.937238 0.131951
H3    H     H_    0.999522 0.468813 0.062867 0.130931
H4    H     H_    0.998842 0.467939 0.937238 0.131951
H5    H     H_    0.528302 0.361047 0.441540 0.132068
H6    H     H_    0.513215 0.360305 0.571441 0.122096
H7    H     H_    0.028301 0.861047 0.441539 0.132067
H8    H     H_    0.013215 0.860305 0.571441 0.122096
H9    H     H_    0.918878 0.451909 0.554823 0.166040
H10   H     H_    0.015608 0.364391 0.438997 0.135918
H11   H     H_    0.418879 0.951908 0.554824 0.166040
H12   H     H_    0.515610 0.864391 0.438998 0.135918
H13   H     H_    0.501333 0.860596 0.564733 0.129991
H14   H     H_    0.432827 0.954803 0.429757 0.138690
H15   H     H_    0.001332 0.360595 0.564733 0.129992
H16   H     H_    0.932826 0.454804 0.429757 0.138691
H17   H     H_    0.641181 0.866664 0.442188 0.134412
H18   H     H_    0.335860 0.801447 0.572113 0.126194
H19   H     H_    0.141180 0.366663 0.442188 0.134411
H20   H     H_    0.835858 0.301444 0.572113 0.126195
H21   H     H_    0.647381 0.847728 0.572161 0.123831
H22   H     H_    0.331033 0.781371 0.442119 0.133345
H23   H     H_    0.147381 0.347726 0.572161 0.123830
H24   H     H_    0.831031 0.281367 0.442120 0.133348
H25   H     H_    0.897345 0.907438 0.558589 0.166558
H26   H     H_    0.092290 0.050985 0.435563 0.137173
H27   H     H_    0.397346 0.407444 0.558590 0.166558
H28   H     H_    0.592293 0.550992 0.435562 0.137174
H29   H     H_    0.902555 0.078098 0.566692 0.131116
H30   H     H_    0.179567 0.129460 0.429213 0.140607
H31   H     H_    0.402553 0.578104 0.566692 0.131115
H32   H     H_    0.679571 0.629462 0.429211 0.140608
H33   H     H_    0.895031 0.094601 0.440611 0.135073
H34   H     H_    0.182971 0.148978 0.554618 0.166674
H35   H     H_    0.395030 0.594606 0.440611 0.135073
H36   H     H_    0.682979 0.648982 0.554615 0.166674
H37   H     H_    0.890426 0.923920 0.433302 0.138877
H38   H     H_    0.095315 0.071710 0.561625 0.129301
H39   H     H_    0.390427 0.423925 0.433302 0.138877
H40   H     H_    0.595320 0.571724 0.561624 0.129302
H41   H     H_    0.522713 0.394509 0.868859 0.144863
H42   H     H_    0.483485 0.398215 0.127742 0.146416
H43   H     H_    0.022713 0.894509 0.868859 0.144863
H44   H     H_    0.983485 0.898215 0.127742 0.146416
H45   H     H_    0.013336 0.086736 0.932701 0.135025
H46   H     H_    0.992489 0.088320 0.061813 0.142412
H47   H     H_    0.513336 0.586736 0.932701 0.135025
H48   H     H_    0.492489 0.588320 0.061813 0.142411
H49   H     H_    0.862887 0.957351 0.079492 0.130482
H50   H     H_    0.141297 0.955104 0.924089 0.135455
H51   H     H_    0.362887 0.457352 0.079492 0.130482
H52   H     H_    0.641297 0.455104 0.924089 0.135455
H53   H     H_    0.880898 0.901938 0.956146 0.168986
H54   H     H_    0.130273 0.934580 0.050431 0.180199
H55   H     H_    0.380898 0.401938 0.956146 0.168986
H56   H     H_    0.630273 0.434579 0.050431 0.180198
H57   H     H_    0.180396 0.165843 0.961992 0.163278
H58   H     H_    0.825031 0.189670 0.054791 0.180762
H59   H     H_    0.680396 0.665842 0.961992 0.163279
H60   H     H_    0.325031 0.689670 0.054791 0.180762
H61   H     H_    0.608639 0.769857 0.932431 0.116160
H62   H     H_    0.401528 0.794257 0.068904 0.108598
H63   H     H_    0.108639 0.269857 0.932431 0.116161
H64   H     H_    0.901528 0.294257 0.068904 0.108598
H65   H     H_    0.587582 0.830780 0.051617 0.099009
H66   H     H_    0.414230 0.820664 0.944190 0.098977
H67   H     H_    0.087582 0.330781 0.051617 0.099009
H68   H     H_    0.914230 0.320664 0.944190 0.098976
O1    O     O_R   0.787520 0.042810 0.170440 -0.541380
O2    O     O_R   0.212480 0.042810 0.829560 -0.542574
O3    O     O_R   0.287520 0.542810 0.170440 -0.541380
O4    O     O_R   0.712480 0.542810 0.829560 -0.542574
O5    O     O_R   0.556610 0.252880 0.323980 -0.510535
O6    O     O_R   0.443390 0.252880 0.676020 -0.512828
O7    O     O_R   0.056610 0.752880 0.323980 -0.510535
O8    O     O_R   0.943390 0.752880 0.676020 -0.512828
O9    O     O_R   0.545950 0.051210 0.330860 -0.518101
O10   O     O_R   0.454050 0.051210 0.669140 -0.519898
O11   O     O_R   0.045950 0.551210 0.330860 -0.518101
O12   O     O_R   0.954050 0.551210 0.669140 -0.519898
O13   O     O_R   0.681390 0.959480 0.325510 -0.505356
O14   O     O_R   0.318610 0.959480 0.674490 -0.505189
O15   O     O_R   0.181390 0.459480 0.325510 -0.505356
O16   O     O_R   0.818610 0.459480 0.674490 -0.505189
O17   O     O_3   0.667900 0.167900 0.250060 -0.260192
O18   O     O_3   0.332100 0.167900 0.749940 -0.271576
O19   O     O_3   0.167900 0.667900 0.250060 -0.260192
O20   O     O_3   0.832100 0.667900 0.749940 -0.271576
O21   O     O_R   0.765640 0.292100 0.175020 -0.507420
O22   O     O_R   0.234360 0.292100 0.824980 -0.501909
O23   O     O_R   0.265640 0.792100 0.175020 -0.507420
O24   O     O_R   0.734360 0.792100 0.824980 -0.501909
O25   O     O_R   0.670190 0.408840 0.168540 -0.493609
O26   O     O_R   0.329810 0.408840 0.831460 -0.470206
O27   O     O_R   0.170190 0.908840 0.168540 -0.493610
O28   O     O_R   0.829810 0.908840 0.831460 -0.470206
O29   O     O_R   0.556620 0.251410 0.175160 -0.512167
O30   O     O_R   0.443380 0.251410 0.824840 -0.526716
O31   O     O_R   0.056620 0.751410 0.175160 -0.512166
O32   O     O_R   0.943380 0.751410 0.824840 -0.526716
O33   O     O_R   0.545960 0.049620 0.170320 -0.517296
O34   O     O_R   0.454040 0.049620 0.829680 -0.517543
O35   O     O_R   0.045960 0.549620 0.170320 -0.517296
O36   O     O_R   0.954040 0.549620 0.829680 -0.517543
O37   O     O_R   0.681390 0.958010 0.176690 -0.485588
O38   O     O_R   0.318610 0.958010 0.823310 -0.489707
O39   O     O_R   0.181390 0.458010 0.176690 -0.485588
O40   O     O_R   0.818610 0.458010 0.823310 -0.489707
O41   O     O_R   0.787510 0.044390 0.330970 -0.518249
O42   O     O_R   0.212490 0.044390 0.669030 -0.522058
O43   O     O_R   0.287510 0.544390 0.330970 -0.518248
O44   O     O_R   0.712490 0.544390 0.669030 -0.522058
O45   O     O_R   0.765630 0.293570 0.323840 -0.509169
O46   O     O_R   0.234370 0.293570 0.676160 -0.506854
O47   O     O_R   0.265630 0.793570 0.323840 -0.509168
O48   O     O_R   0.734370 0.793570 0.676160 -0.506854
O49   O     O_R   0.670190 0.410420 0.329080 -0.511033
O50   O     O_R   0.329810 0.410420 0.670920 -0.512089
O51   O     O_R   0.170190 0.910420 0.329080 -0.511034
O52   O     O_R   0.829810 0.910420 0.670920 -0.512089
C125  C     C_2   0.660695 0.700295 0.099831 0.576896
O53   O     O_2   0.615907 0.660499 0.139931 -0.528451
O54   O     O_R   0.730657 0.665671 0.108187 -0.711665
H69   H     H_    0.739093 0.618927 0.153767 0.338710
C126  C     C_2   0.332312 0.689028 0.914935 0.578651
O55   O     O_2   0.369294 0.644258 0.869150 -0.510198
O56   O     O_R   0.263135 0.649335 0.923592 -0.703588
H70   H     H_    0.247680 0.590614 0.885114 0.348539
C127  C     C_2   0.160694 0.200294 0.099831 0.576897
O57   O     O_2   0.115906 0.160497 0.139929 -0.528453
O58   O     O_R   0.230657 0.165673 0.108189 -0.711664
H71   H     H_    0.239092 0.118928 0.153768 0.338711
C128  C     C_2   0.832312 0.189028 0.914935 0.578651
O59   O     O_2   0.869294 0.144258 0.869150 -0.510198
O60   O     O_R   0.763135 0.149335 0.923592 -0.703588
H72   H     H_    0.747680 0.090614 0.885114 0.348539

loop_
_geom_bond_atom_site_label_1
_geom_bond_atom_site_label_2
_ccdc_geom_bond_type
C87   H27   S    
C55   C56   A    
C88   C96   S    
C67   C83   A    
C98   C110  S    
C116  C123  A    
C39   H67   S    
Cr2   O42   S    
C103  O51   A    
C14   C18   A    
C101  O49   A    
C86   H30   S    
C73   C93   S    
C72   C76   A    
C29   H53   S    
Cr4   O20   S    
C84   H24   S    
C33   H59   S    
C75   C95   S    
O56   H70   S    
C74   C98   A    
C9    H45   S    
C22   C42   A    
C53   C54   A    
C15   C19   A    
Cr8   O8    S    
C108  O12   A    
C8    C120  A    
C7    H43   S    
C50   C54   A    
C17   C33   S    
C64   H16   S    
C104  O48   A    
C46   O30   A    
C13   C29   A    
C45   O29   A    
C5    C11   A    
Cr7   O19   S    
C28   H52   S    
C6    C12   A    
C126  O55   D    
C82   H22   S    
C23   C39   S    
C8    H44   S    
C107  O7    A    
Cr12  O36   S    
Cr6   O26   S    
Cr7   O27   S    
O60   H72   S    
C22   C38   S    
C31   H55   S    
Cr2   O18   S    
C85   H25   S    
C32   H56   S    
Cr3   O3    S    
C112  O44   A    
C125  O53   D    
Cr11  O39   S    
C4    C13   S    
C34   H62   S    
Cr10  O38   S    
C36   C40   S    
C95   H39   S    
C86   C94   S    
C81   H21   S    
Cr9   O37   S    
C90   O2    A    
C114  C121  A    
C85   C93   S    
C45   C114  S    
C89   O1    A    
C113  C122  A    
C40   H68   S    
C52   C107  S    
C51   C108  S    
C88   H32   S    
C55   C63   S    
C70   C74   A    
C50   C105  S    
Cr9   O17   S    
C56   C64   S    
C69   C73   A    
C99   C111  S    
C86   H26   S    
C77   C81   A    
C96   H40   S    
C127  O57   D    
C67   C102  S    
C63   H15   S    
Cr3   O47   S    
C44   C92   S    
C16   C20   A    
C123  C124  A    
C77   H17   S    
C110  O42   A    
C46   O34   A    
C72   C88   S    
C109  O41   A    
C59   C60   A    
C62   H12   S    
C128  O59   D    
C80   C100  A    
Cr3   O23   S    
Cr10  O34   S    
Cr8   O20   S    
Cr2   O22   S    
Cr9   O33   S    
C14   C30   A    
C111  O15   A    
Cr1   O21   S    
Cr8   O28   S    
C26   H50   S    
C87   H31   S    
C108  O8    A    
C80   H20   S    
C47   O31   A    
C38   H66   S    
C25   C29   A    
C47   C116  S    
C106  O10   A    
Cr11  O11   S    
C71   C75   A    
C105  O9    A    
Cr12  O40   S    
Cr1   O17   S    
C27   C31   A    
C80   C84   A    
C68   C84   A    
C35   H63   S    
C20   C24   A    
C76   C100  A    
C28   C32   A    
Cr6   O18   S    
C11   H47   S    
C68   C101  S    
C122  H2    S    
C10   H46   S    
Cr5   O17   S    
C91   O39   A    
C38   C126  S    
C25   C41   A    
C126  O56   S    
Cr2   O2    S    
C78   H18   S    
C20   C36   S    
C54   C62   S    
C51   C55   A    
Cr10  O18   S    
C88   H28   S    
C121  H1    S    
C15   C31   A    
C28   C44   A    
C43   C91   S    
C49   C58   A    
C116  C120  A    
Cr5   O29   S    
C68   C72   A    
C102  O50   A    
Cr6   O30   S    
C34   C38   S    
C19   C23   A    
C17   C21   A    
C78   C98   A    
C92   O4    A    
C52   C59   A    
C7    C119  A    
C76   C96   S    
C66   C82   A    
C97   C109  S    
C78   C82   A    
C65   C81   A    
C61   H13   S    
Cr12  O20   S    
C33   H61   S    
Cr4   O24   S    
Cr3   O43   S    
Cr11  O15   S    
C45   O33   A    
C75   C99   A    
C112  O16   A    
C79   C99   A    
C83   H23   S    
C1    C16   S    
C27   H51   S    
Cr5   O25   S    
C77   C97   A    
C2    C15   S    
C18   C34   S    
C5    H41   S    
C121  C122  A    
C114  C118  A    
Cr4   O44   S    
C25   H49   S    
C94   H38   S    
C48   C115  S    
C21   C41   A    
Cr6   O50   S    
C8    C10   A    
C103  O47   A    
Cr5   O49   S    
C73   C97   A    
C115  C119  A    
C94   H34   S    
C90   O38   A    
C102  O46   A    
Cr7   O7    S    
C24   C44   A    
C123  H3    S    
C89   O37   A    
Cr6   O6    S    
C3    C14   S    
C105  O5    A    
C3    O27   A    
O54   H69   S    
C70   C86   S    
C4    O28   A    
C115  C124  A    
C69   C85   S    
C26   C42   A    
C9    C10   A    
C113  C117  A    
C1    O21   A    
C7    C9    A    
C27   C43   A    
C40   C128  S    
C87   C95   S    
C93   H33   S    
C58   H6    S    
C62   H14   S    
C46   C113  S    
C64   H10   S    
C41   C89   S    
C18   C22   A    
C23   C43   A    
C66   C103  S    
C124  H4    S    
C101  O45   A    
C36   H64   S    
C37   C125  S    
C63   C64   S    
Cr1   O1    S    
C107  O11   A    
Cr10  O10   S    
C91   O3    A    
C119  C120  A    
C39   C127  S    
C100  C112  S    
C49   C106  S    
Cr12  O16   S    
Cr3   O19   S    
C16   C32   A    
C79   H19   S    
Cr11  O19   S    
C3    O23   A    
C48   O36   A    
C104  O52   A    
C57   H5    S    
Cr2   O46   S    
O58   H71   S    
C85   H29   S    
C36   H58   S    
C128  O60   S    
C61   H11   S    
Cr9   O9    S    
Cr7   O31   S    
C127  O58   S    
Cr10  O14   S    
C117  C118  A    
C60   H8    S    
C34   H60   S    
C79   C83   A    
C50   C57   A    
C57   C58   A    
C66   C70   A    
Cr8   O52   S    
C95   H35   S    
Cr1   O45   S    
Cr4   O48   S    
C92   O40   A    
C65   C69   A    
C35   C39   S    
C30   H54   S    
C93   H37   S    
C48   O32   A    
C47   O35   A    
Cr11  O35   S    
Cr7   O51   S    
C67   C71   A    
C53   C61   S    
C4    O24   A    
C61   C62   S    
C12   H48   S    
C33   C37   S    
C24   C40   S    
C49   C53   A    
C109  O13   A    
C2    O26   A    
C110  O14   A    
C59   H7    S    
C13   C17   A    
Cr8   O32   S    
C1    O25   A    
C21   C37   S    
C2    O22   A    
C111  O43   A    
Cr1   O41   S    
C96   H36   S    
C35   H57   S    
C5    C117  A    
C74   C94   S    
C37   H65   S    
C71   C87   S    
C19   C35   S    
C51   C60   A    
Cr4   O4    S    
C65   C104  S    
C42   C90   S    
C125  O54   S    
Cr5   O5    S    
C63   H9    S    
C6    H42   S    
C52   C56   A    
C11   C12   A    
C6    C118  A    
Cr9   O13   S    
Cr12  O12   S    
C26   C30   A    
C106  O6    A    
