data_str_m12_o30_o30_f0_the.sym.9
_audit_creation_date              2012-12-11T14:05:42-0500
_audit_creation_method            fapswitch 2.2
_symmetry_space_group_name_H-M    P1
_symmetry_Int_Tables_number       1
_space_group_crystal_system       triclinic
_cell_length_a                    17.665319
_cell_length_b                    17.570842
_cell_length_c                    17.491474
_cell_angle_alpha                 90.40045
_cell_angle_beta                  90.162699
_cell_angle_gamma                 89.544443
_cell_volume                      5428.93257884

loop_
_atom_site_label
_atom_site_type_symbol
_atom_type_description
_atom_site_fract_x
_atom_site_fract_y
_atom_site_fract_z
_atom_type_partial_charge
C1    C     C_R   0.702201 0.798368 0.215088 -0.058271
C2    C     C_R   0.290815 0.788378 0.194994 -0.000829
C3    C     C_R   0.905783 0.816975 0.618757 -0.064101
C4    C     C_R   0.096308 0.384623 0.814932 -0.103401
C5    C     C_R   0.912040 0.625232 0.181372 -0.091928
C6    C     C_R   0.096451 0.815547 0.615337 -0.120577
C7    C     C_R   0.903732 0.184388 0.384452 -0.120658
C8    C     C_R   0.817045 0.904639 0.617048 -0.132006
C9    C     C_R   0.179956 0.087075 0.374163 -0.142627
C10   C     C_R   0.621257 0.909652 0.182849 -0.158351
C11   C     C_R   0.377939 0.096794 0.819344 -0.150820
C12   C     C_R   0.179846 0.903086 0.377497 -0.130655
C13   C     C_R   0.226158 0.329484 0.772830 0.210313
C14   C     C_R   0.816981 0.095218 0.618483 -0.042794
C15   C     C_R   0.374660 0.912552 0.818880 -0.111012
C16   C     C_R   0.624604 0.089320 0.181199 -0.112650
C17   C     C_R   0.179574 0.095288 0.623815 -0.045970
C18   C     C_R   0.815605 0.903918 0.384823 -0.084597
C19   C     C_R   0.384188 0.095970 0.184828 -0.051374
C20   C     C_R   0.617290 0.904262 0.816349 -0.107956
C21   C     C_R   0.815900 0.096926 0.384359 -0.105743
C22   C     C_R   0.184082 0.903174 0.615611 -0.068251
C23   C     C_R   0.619023 0.094325 0.816858 -0.113872
C24   C     C_R   0.799065 0.704160 0.214250 0.012095
C25   C     C_R   0.375607 0.905139 0.179613 -0.045902
C26   C     C_2   0.787523 0.790589 0.101433 0.502869
C27   C     C_2   0.355081 0.340346 0.831208 0.526126
C28   C     C_2   0.355287 0.660721 0.166288 0.525119
C29   C     C_2   0.655443 0.344680 0.843317 0.602326
C30   C     C_2   0.341199 0.353589 0.171694 0.529523
C31   C     C_2   0.651763 0.652713 0.836060 0.525675
C32   C     C_2   0.795855 0.201530 0.096959 0.494835
C33   C     C_2   0.204420 0.797880 0.903412 0.518754
C34   C     C_2   0.167871 0.644224 0.661333 0.536758
C35   C     C_R   0.290951 0.804072 0.787881 -0.000220
C36   C     C_2   0.832958 0.355592 0.339474 0.519567
C37   C     C_2   0.168089 0.338981 0.642959 0.518655
C38   C     C_2   0.832755 0.646127 0.344432 0.519654
C39   C     C_2   0.098837 0.204079 0.201830 0.509369
C40   C     C_2   0.838169 0.650690 0.650265 0.525174
C41   C     C_2   0.170644 0.661210 0.355430 0.542737
C42   C     C_2   0.834554 0.348405 0.650040 0.529868
C43   C     C_2   0.650708 0.161794 0.652705 0.519257
C44   C     C_2   0.201718 0.902045 0.203475 0.497314
C45   C     C_2   0.645491 0.172339 0.339617 0.533158
C46   C     C_R   0.708862 0.197807 0.211355 -0.085223
C47   C     C_2   0.353791 0.830016 0.659505 0.526975
C48   C     C_2   0.337110 0.166901 0.356948 0.494974
C49   C     C_2   0.655863 0.841179 0.653314 0.601468
C50   C     C_2   0.204972 0.099649 0.798459 0.517996
C51   C     C_2   0.644715 0.832643 0.344544 0.529321
C52   C     C_R   0.777252 0.678664 0.775424 0.038014
C53   C     C_R   0.212137 0.292190 0.197339 0.069777
C54   C     C_R   0.196153 0.212326 0.708620 -0.005074
C55   C     C_R   0.773347 0.773676 0.330357 0.058966
C56   C     C_R   0.196809 0.788155 0.290865 -0.083490
C57   C     C_R   0.292104 0.212882 0.802920 -0.082292
C58   C     C_R   0.775678 0.223674 0.678149 0.044900
C59   C     C_R   0.775021 0.226842 0.328342 0.226836
C60   C     C_R   0.225182 0.773379 0.671517 0.211376
C61   C     C_R   0.778413 0.777581 0.679173 0.125732
C62   C     C_R   0.210830 0.196339 0.291438 -0.069655
C63   C     C_R   0.639761 0.829713 0.829696 0.033187
C64   C     C_R   0.364515 0.171340 0.172879 0.069385
C65   C     C_R   0.157312 0.653457 0.834700 0.041604
C66   C     C_R   0.842867 0.347492 0.166124 0.076545
C67   C     C_R   0.349442 0.167776 0.840996 0.032403
C68   C     C_R   0.226890 0.671574 0.225085 0.226472
C69   C     C_R   0.645881 0.837885 0.169473 0.035845
C70   C     C_R   0.830230 0.360424 0.829862 0.067698
C71   C     C_R   0.172161 0.635130 0.171414 0.100573
C72   C     C_R   0.651574 0.159584 0.166357 0.040507
C73   C     C_R   0.348810 0.841641 0.832390 0.078230
C74   C     C_R   0.167544 0.349880 0.159417 0.144212
C75   C     C_R   0.829943 0.639267 0.829344 0.071993
C76   C     C_R   0.348005 0.833808 0.157951 0.080765
C77   C     C_R   0.639943 0.169297 0.830367 0.043026
C78   C     C_R   0.840305 0.649663 0.168024 0.113244
C79   C     C_R   0.776902 0.320219 0.777583 0.126119
C80   C     C_R   0.171589 0.365310 0.827331 0.087615
C81   C     C_R   0.829289 0.170380 0.639011 0.070761
C82   C     C_R   0.158258 0.832933 0.348125 0.048037
C83   C     C_R   0.827792 0.828207 0.365849 0.073527
C84   C     C_R   0.158348 0.166757 0.651565 0.077328
C85   C     C_R   0.165325 0.157827 0.347521 0.042445
C86   C     C_R   0.830932 0.830094 0.639228 0.074098
C87   C     C_R   0.171255 0.828033 0.635390 0.080796
C88   C     C_R   0.828839 0.171994 0.364426 0.095459
C89   C     C_R   0.759005 0.760216 0.175302 -0.090979
C90   C     C_R   0.327531 0.225309 0.227513 0.041620
C91   C     C_R   0.290468 0.293649 0.804225 -0.154230
C92   C     C_R   0.290100 0.707546 0.193054 -0.201407
C93   C     C_R   0.709550 0.290590 0.807599 -0.148764
C94   C     C_R   0.292467 0.290093 0.196769 -0.163387
C95   C     C_R   0.707134 0.706302 0.802302 -0.071609
C96   C     C_R   0.768417 0.231946 0.172502 -0.062819
C97   C     C_R   0.232293 0.768971 0.827438 -0.075391
C98   C     C_R   0.194159 0.709896 0.708006 -0.161066
C99   C     C_R   0.806500 0.290270 0.292401 -0.205842
C100  C     C_R   0.195057 0.292981 0.708698 -0.189325
C101  C     C_R   0.680676 0.777380 0.776462 -0.027700
C102  C     C_R   0.803757 0.708341 0.295123 -0.148940
C103  C     C_R   0.173199 0.232826 0.231803 -0.116749
C104  C     C_R   0.804644 0.706347 0.705395 -0.165676
C105  C     C_R   0.196449 0.707575 0.289893 -0.173303
C106  C     C_R   0.802036 0.294013 0.705731 -0.162712
C107  C     C_R   0.706628 0.195927 0.706506 -0.102308
C108  C     C_R   0.231588 0.826835 0.231248 -0.067295
C109  C     C_R   0.710592 0.196714 0.292446 -0.179505
C110  C     C_R   0.289371 0.804269 0.706939 -0.190617
C111  C     C_R   0.291166 0.193987 0.291138 -0.071478
C112  C     C_R   0.805255 0.290644 0.211364 -0.005597
C113  C     C_R   0.709800 0.806538 0.708037 -0.154571
C114  C     C_R   0.232526 0.174254 0.768139 -0.074038
C115  C     C_R   0.707599 0.803821 0.295921 -0.114494
C116  C     C_R   0.619169 0.816798 0.904985 -0.076824
C117  C     C_R   0.385266 0.184648 0.097865 -0.130564
C118  C     C_R   0.179013 0.624311 0.905321 -0.130879
C119  C     C_R   0.821075 0.375788 0.095095 -0.035576
C120  C     C_R   0.374982 0.181166 0.912600 -0.103512
C121  C     C_R   0.619729 0.818417 0.096938 -0.048325
C122  C     C_R   0.817055 0.382831 0.904691 -0.092222
C123  C     C_R   0.195945 0.709606 0.789136 -0.078045
C124  C     C_R   0.184169 0.615312 0.095913 -0.097063
C125  C     C_R   0.623317 0.180029 0.095181 -0.154145
C126  C     C_R   0.377424 0.820083 0.903166 -0.035313
C127  C     C_R   0.180869 0.375038 0.087937 -0.015509
C128  C     C_R   0.817003 0.618825 0.904753 -0.002506
C129  C     C_R   0.375098 0.819471 0.087118 -0.074597
C130  C     C_R   0.617391 0.183084 0.905130 -0.114239
C131  C     C_R   0.819491 0.621166 0.096787 -0.087628
C132  C     C_R   0.184496 0.385633 0.902645 -0.107899
C133  C     C_R   0.904244 0.617221 0.816187 -0.141133
C134  C     C_R   0.680992 0.221756 0.778360 -0.025728
C135  C     C_R   0.096731 0.377956 0.180577 -0.046924
C136  C     C_R   0.903574 0.183719 0.617477 -0.119646
C137  C     C_R   0.087420 0.819403 0.373681 -0.126069
C138  C     C_R   0.913206 0.374252 0.180520 -0.053331
C139  C     C_R   0.087070 0.626382 0.819846 -0.114970
C140  C     C_R   0.902779 0.815141 0.385875 -0.138628
C141  C     C_R   0.087626 0.180949 0.625259 -0.094791
C142  C     C_R   0.097477 0.614930 0.184868 -0.133536
C143  C     C_R   0.904986 0.380848 0.816536 -0.056938
C144  C     C_R   0.094699 0.179522 0.376051 -0.157167
H1    H     H_    0.622714 0.764070 0.935916 0.087966
H2    H     H_    0.374071 0.764205 0.928130 0.069493
H3    H     H_    0.232105 0.368417 0.055133 0.089211
H4    H     H_    0.764133 0.621695 0.935311 0.124590
H5    H     H_    0.369542 0.767916 0.053953 0.064104
H6    H     H_    0.616912 0.236257 0.935563 0.072770
H7    H     H_    0.763705 0.622352 0.071238 0.130256
H8    H     H_    0.239181 0.388641 0.929991 0.120248
H9    H     H_    0.933021 0.616904 0.762167 0.077818
H10   H     H_    0.071453 0.374556 0.236565 0.082566
H11   H     H_    0.931850 0.237663 0.617811 0.070320
H12   H     H_    0.387899 0.239701 0.071214 0.072795
H13   H     H_    0.054630 0.768363 0.366304 0.080767
H14   H     H_    0.946118 0.367985 0.232099 0.062829
H15   H     H_    0.054866 0.632732 0.767902 0.079281
H16   H     H_    0.930269 0.760221 0.388611 0.083514
H17   H     H_    0.055101 0.232736 0.631416 0.073681
H18   H     H_    0.070583 0.613096 0.240099 0.123407
H19   H     H_    0.935141 0.377444 0.763107 0.111948
H20   H     H_    0.067384 0.234557 0.371044 0.101126
H21   H     H_    0.936667 0.763929 0.621762 0.114096
H22   H     H_    0.067599 0.385434 0.760371 0.118426
H23   H     H_    0.233820 0.629062 0.932509 0.101031
H24   H     H_    0.944797 0.631751 0.233089 0.109677
H25   H     H_    0.068199 0.761312 0.614173 0.120853
H26   H     H_    0.932389 0.238440 0.385266 0.121660
H27   H     H_    0.763838 0.934384 0.616290 0.085413
H28   H     H_    0.231324 0.054121 0.367988 0.081292
H29   H     H_    0.624273 0.940124 0.236183 0.085584
H30   H     H_    0.374657 0.071393 0.763054 0.095419
H31   H     H_    0.235483 0.927885 0.374472 0.102509
H32   H     H_    0.764330 0.064847 0.620777 0.111835
H33   H     H_    0.368081 0.945408 0.767453 0.068849
H34   H     H_    0.766265 0.370580 0.068021 0.070162
H35   H     H_    0.629266 0.059425 0.234367 0.077102
H36   H     H_    0.234274 0.067760 0.629175 0.072312
H37   H     H_    0.761757 0.933398 0.385388 0.119064
H38   H     H_    0.384630 0.066810 0.238956 0.108792
H39   H     H_    0.616467 0.933725 0.762903 0.073154
H40   H     H_    0.761768 0.068825 0.384989 0.124060
H41   H     H_    0.238089 0.931524 0.615078 0.109736
H42   H     H_    0.622442 0.063293 0.763668 0.068805
H43   H     H_    0.369692 0.932666 0.234760 0.074755
H44   H     H_    0.827819 0.836830 0.102463 0.031310
H45   H     H_    0.368447 0.232538 0.946040 0.077274
H46   H     H_    0.408127 0.313902 0.847965 0.029131
H47   H     H_    0.408500 0.686888 0.151390 -0.003090
H48   H     H_    0.650360 0.350089 0.904710 -0.057161
H49   H     H_    0.400959 0.343307 0.161273 0.015946
H50   H     H_    0.595499 0.672177 0.851697 0.009377
H51   H     H_    0.763163 0.160721 0.064421 0.034790
H52   H     H_    0.164617 0.765767 0.936965 0.027242
H53   H     H_    0.153025 0.590931 0.687964 0.064928
H54   H     H_    0.848561 0.408791 0.313142 0.067057
H55   H     H_    0.152525 0.312043 0.589349 0.016379
H56   H     H_    0.621879 0.762760 0.070294 0.121753
H57   H     H_    0.845121 0.657459 0.404224 0.078390
H58   H     H_    0.065883 0.163416 0.233552 0.040402
H59   H     H_    0.852345 0.593416 0.668270 0.075515
H60   H     H_    0.154116 0.687916 0.408903 0.062901
H61   H     H_    0.848628 0.329794 0.592554 0.067800
H62   H     H_    0.594717 0.146586 0.672260 0.013833
H63   H     H_    0.160851 0.934650 0.236350 0.027394
H64   H     H_    0.591440 0.159239 0.313444 0.051745
H65   H     H_    0.407087 0.846003 0.685577 0.023086
H66   H     H_    0.310523 0.151828 0.410410 0.023058
H67   H     H_    0.764337 0.383789 0.934925 0.075152
H68   H     H_    0.650181 0.902202 0.647640 -0.046093
H69   H     H_    0.237949 0.067301 0.839320 0.060643
H70   H     H_    0.590187 0.846837 0.319742 0.012820
H71   H     H_    0.237881 0.614227 0.066622 0.123927
H72   H     H_    0.628155 0.234721 0.067812 0.094400
N1    N     N_R   0.584840 0.879720 0.932190 -0.049073
N2    N     N_R   0.415160 0.879720 0.932190 -0.041647
N3    N     N_R   0.120280 0.415160 0.067810 -0.054937
N4    N     N_R   0.879720 0.584840 0.932190 -0.061812
N5    N     N_R   0.415160 0.879720 0.067810 -0.042559
N6    N     N_R   0.584840 0.120280 0.932190 -0.042969
N7    N     N_R   0.879720 0.584840 0.067810 -0.063035
N8    N     N_R   0.120280 0.415160 0.932190 -0.047451
N9    N     N_R   0.932190 0.584840 0.879720 -0.046416
N10   N     N_R   0.067810 0.415160 0.120280 -0.047630
N11   N     N_R   0.932190 0.120280 0.584840 -0.039935
N12   N     N_R   0.415160 0.120280 0.067810 -0.037133
N13   N     N_R   0.067810 0.879720 0.415160 -0.040468
N14   N     N_R   0.932190 0.415160 0.120280 -0.042766
N15   N     N_R   0.067810 0.584840 0.879720 -0.041539
N16   N     N_R   0.932190 0.879720 0.415160 -0.043162
N17   N     N_R   0.067810 0.120280 0.584840 -0.042616
N18   N     N_R   0.067810 0.584840 0.120280 -0.053649
N19   N     N_R   0.932190 0.415160 0.879720 -0.051542
N20   N     N_R   0.067810 0.120280 0.415160 -0.043909
N21   N     N_R   0.932190 0.879720 0.584840 -0.050870
N22   N     N_R   0.067810 0.415160 0.879720 -0.048979
N23   N     N_R   0.120280 0.584840 0.932190 -0.046445
N24   N     N_R   0.932190 0.584840 0.120280 -0.057482
N25   N     N_R   0.067810 0.879720 0.584840 -0.048455
N26   N     N_R   0.932190 0.120280 0.415160 -0.051469
N27   N     N_R   0.879720 0.932190 0.584840 -0.044866
N28   N     N_R   0.120280 0.067810 0.415160 -0.042322
N29   N     N_R   0.584840 0.932190 0.120280 -0.042780
N30   N     N_R   0.415160 0.067810 0.879720 -0.035217
N31   N     N_R   0.120280 0.932190 0.415160 -0.045610
N32   N     N_R   0.879720 0.067810 0.584840 -0.052122
N33   N     N_R   0.415160 0.932190 0.879720 -0.039795
N34   N     N_R   0.879720 0.415160 0.067810 -0.047286
N35   N     N_R   0.584840 0.067810 0.120280 -0.039164
N36   N     N_R   0.120280 0.067810 0.584840 -0.045568
N37   N     N_R   0.879720 0.932190 0.415160 -0.053329
N38   N     N_R   0.415160 0.067810 0.120280 -0.045055
N39   N     N_R   0.584840 0.932190 0.879720 -0.045191
N40   N     N_R   0.879720 0.067810 0.415160 -0.053007
N41   N     N_R   0.120280 0.932190 0.584840 -0.046104
N42   N     N_R   0.584840 0.067810 0.879720 -0.040171
N43   N     N_R   0.415160 0.932190 0.120280 -0.044720
N44   N     N_R   0.415160 0.120280 0.932190 -0.035721
N45   N     N_R   0.584840 0.879720 0.067810 -0.054969
N46   N     N_R   0.879720 0.415160 0.932190 -0.042672
N47   N     N_R   0.120280 0.584840 0.067810 -0.054500
N48   N     N_R   0.584840 0.120280 0.067810 -0.041324
Ni1   Ni    Ni4+2 0.500000 0.880920 0.000000 0.212576
Ni2   Ni    Ni4+2 0.119080 0.000000 0.500000 0.228152
Ni3   Ni    Ni4+2 0.500000 0.000000 0.119080 0.226866
Ni4   Ni    Ni4+2 0.500000 0.000000 0.880920 0.219304
Ni5   Ni    Ni4+2 0.500000 0.119080 0.000000 0.222387
Ni6   Ni    Ni4+2 0.119080 0.500000 0.000000 0.256827
Ni7   Ni    Ni4+2 0.880920 0.500000 0.000000 0.234853
Ni8   Ni    Ni4+2 0.000000 0.500000 0.880920 0.242347
Ni9   Ni    Ni4+2 0.000000 0.500000 0.119080 0.248797
Ni10  Ni    Ni4+2 0.000000 0.119080 0.500000 0.227634
Ni11  Ni    Ni4+2 0.000000 0.880920 0.500000 0.241644
Ni12  Ni    Ni4+2 0.880920 0.000000 0.500000 0.252452
O1    O     O_2   0.766034 0.765194 0.040055 -0.620193
O2    O     O_2   0.834521 0.351783 0.409164 -0.559394
O3    O     O_2   0.165900 0.408398 0.646959 -0.560751
O4    O     O_2   0.838216 0.580795 0.320798 -0.583982
O5    O     O_2   0.076011 0.220951 0.138148 -0.543170
O6    O     O_2   0.843981 0.665507 0.582428 -0.576416
O7    O     O_2   0.170575 0.591781 0.351462 -0.545205
O8    O     O_2   0.839819 0.416134 0.665134 -0.571751
O9    O     O_2   0.663796 0.156466 0.584352 -0.521482
O10   O     O_2   0.218008 0.926040 0.140316 -0.535520
O11   O     O_2   0.650546 0.169774 0.409191 -0.508237
O12   O     O_2   0.350799 0.409760 0.832033 -0.556685
O13   O     O_2   0.349057 0.830631 0.589832 -0.555604
O14   O     O_2   0.406124 0.164296 0.353297 -0.575819
O15   O     O_2   0.616410 0.800272 0.613339 -0.505368
O16   O     O_2   0.142003 0.075958 0.782636 -0.551235
O17   O     O_2   0.651952 0.837402 0.413877 -0.539587
O18   O     O_2   0.351349 0.591396 0.163727 -0.519810
O19   O     O_2   0.615325 0.384582 0.802908 -0.508659
O20   O     O_2   0.316923 0.418626 0.167223 -0.526758
O21   O     O_2   0.665672 0.584677 0.840583 -0.555322
O22   O     O_2   0.858512 0.217189 0.072627 -0.539434
O23   O     O_2   0.221113 0.861127 0.927063 -0.533137
O24   O     O_2   0.165657 0.647829 0.591651 -0.559230

loop_
_geom_bond_atom_site_label_1
_geom_bond_atom_site_label_2
_ccdc_geom_bond_type
C118  N23   A    
C49   C113  S    
N48   Ni5   S    
C80   C132  A    
C135  N10   A    
C101  C113  A    
C131  H7    S    
C52   C75   S    
C41   C105  S    
C20   N39   A    
C90   C111  A    
N33   Ni4   S    
C133  N9    A    
C60   C98   A    
C116  H1    S    
C45   C109  S    
N39   Ni4   S    
C73   C126  A    
C75   C128  A    
N44   Ni5   S    
C31   O21   D    
C27   O12   D    
N31   Ni2   S    
N47   Ni6   S    
C52   C104  A    
C65   C118  A    
C6    N25   A    
C67   C120  A    
C46   C72   S    
C16   H35   S    
C139  H15   S    
C144  H20   S    
N16   Ni11  S    
C85   C144  A    
C143  H19   S    
C83   C140  A    
C22   N41   A    
C127  N3    A    
C61   C104  A    
C119  N34   A    
C122  N46   A    
C15   N33   A    
C120  N44   A    
C50   C114  S    
N7    Ni7   S    
C7    C88   A    
C22   C87   A    
C23   C77   A    
C42   C106  S    
C15   C73   A    
N19   N46   A    
N14   Ni9   S    
C132  H8    S    
C55   C83   S    
C47   O13   D    
N35   Ni3   S    
C44   O10   D    
C81   C136  A    
C70   C79   S    
N16   N37   A    
C23   H42   S    
C12   N31   A    
C17   N36   A    
C18   H37   S    
C72   C125  A    
C25   C76   A    
C30   C94   S    
C120  H45   S    
C21   N40   A    
N17   Ni10  S    
C54   C114  A    
C125  N48   A    
C2    C108  A    
C59   C109  A    
C36   C99   S    
C8    C86   A    
N5    Ni1   S    
C65   C139  A    
C10   C69   A    
C46   C96   A    
C141  N17   A    
C39   H58   S    
N40   Ni12  S    
C139  N15   A    
C1    C115  A    
C14   C81   A    
N8    N22   A    
C126  N2    A    
N17   N36   A    
C5    N24   A    
C79   C93   A    
C28   O18   D    
N42   Ni4   S    
C40   O6    D    
C70   C143  A    
C4    C80   A    
C107  C134  A    
C35   C97   A    
C30   H49   S    
C118  H23   S    
N24   Ni9   S    
C42   H61   S    
C58   C107  A    
C70   C122  A    
C56   C108  A    
C25   H43   S    
C9    C85   A    
C26   H44   S    
C62   C111  A    
C33   H52   S    
C130  H6    S    
C27   C91   S    
N10   Ni9   S    
C128  N4    A    
C24   C102  A    
C8    H27   S    
N46   Ni7   S    
C21   C88   A    
C43   H62   S    
N29   Ni3   S    
N34   Ni7   S    
N30   Ni4   S    
C138  N14   A    
N43   Ni3   S    
C136  H11   S    
C32   O22   D    
C50   H69   S    
C44   H63   S    
C79   C106  A    
C33   O23   D    
N22   Ni8   S    
N9    Ni8   S    
C129  H5    S    
C138  H14   S    
C74   C127  A    
C66   C138  A    
N15   Ni8   S    
C34   O24   D    
C41   H60   S    
C36   O2    D    
C51   H70   S    
N36   Ni2   S    
C45   H64   S    
C66   C119  A    
C15   H33   S    
C7    H26   S    
C77   C134  S    
C71   C142  A    
C28   H47   S    
C3    H21   S    
C11   H30   S    
C53   C94   A    
N37   Ni12  S    
C56   C82   S    
C137  H13   S    
C17   C84   A    
C20   C63   A    
C47   H65   S    
C5    C78   A    
C97   C123  A    
C140  H16   S    
C49   H68   S    
N3    N10   A    
C48   O14   D    
N13   N31   A    
C68   C105  A    
C4    N22   A    
C131  N7    A    
C37   C100  S    
C13   C91   A    
C95   C101  A    
C124  H71   S    
C21   H40   S    
C117  N12   A    
C53   C74   S    
C16   C72   A    
C64   C90   S    
C29   O19   D    
C54   C84   S    
C30   O20   D    
C55   C102  A    
C135  H10   S    
C36   H54   S    
C59   C99   A    
C52   C95   A    
C5    H24   S    
C14   H32   S    
N6    Ni5   S    
C23   N42   A    
C27   H46   S    
C10   H29   S    
C13   C80   S    
N29   N45   A    
C3    C86   A    
N21   Ni11  S    
C32   H51   S    
C19   H38   S    
C16   N35   A    
C90   C94   A    
N38   Ni3   S    
N21   N27   A    
C130  N6    A    
C137  N13   A    
C58   C81   S    
C144  N20   A    
N11   N32   A    
C8    N27   A    
N19   Ni8   S    
C51   C115  S    
C64   C117  A    
C121  H56   S    
N45   Ni1   S    
C19   C64   A    
C74   C135  A    
C18   C83   A    
C10   N29   A    
C43   C107  S    
C35   C110  A    
C37   O3    D    
C20   H39   S    
C63   C116  A    
C24   C78   S    
C136  N11   A    
C140  N16   A    
N1    Ni1   S    
N2    N33   A    
C50   O16   D    
C2    C76   S    
N13   Ni11  S    
C57   C91   A    
N23   Ni6   S    
C132  N8    A    
C11   N30   A    
C128  H4    S    
N41   Ni2   S    
C142  H18   S    
C42   O8    D    
C75   C133  A    
C39   C103  S    
N18   Ni9   S    
C45   O11   D    
N12   Ni5   S    
N25   Ni11  S    
C29   C93   S    
C55   C115  A    
C84   C141  A    
C53   C103  A    
C68   C71   S    
C31   C95   S    
C7    N26   A    
C34   C98   S    
N28   Ni2   S    
C77   C130  A    
C65   C123  S    
C1    C69   S    
C56   C105  A    
C60   C110  A    
C61   C86   S    
C46   C109  A    
C122  H67   S    
C9    H28   S    
C33   C97   S    
C116  N1    A    
C26   O1    D    
C141  H17   S    
N26   N40   A    
C63   C101  S    
C24   C89   A    
C126  H2    S    
C26   C89   S    
C96   C112  A    
N25   N41   A    
C133  H9    S    
N11   Ni10  S    
N32   Ni12  S    
C82   C137  A    
N7    N24   A    
C125  H72   S    
N2    Ni1   S    
N15   N23   A    
N1    N39   A    
C143  N19   A    
N4    Ni7   S    
C59   C88   S    
C121  N45   A    
C68   C92   A    
C38   H57   S    
C119  H34   S    
N35   N48   A    
C54   C100  A    
C57   C67   S    
C60   C87   S    
C11   C67   A    
C14   N32   A    
C44   C108  S    
C18   N37   A    
C98   C123  A    
C62   C85   S    
C71   C124  A    
N26   Ni10  S    
C129  N5    A    
C93   C134  A    
C6    C87   A    
C58   C106  A    
C25   N43   A    
C78   C131  A    
C40   C104  S    
C76   C129  A    
C19   N38   A    
C40   H59   S    
C69   C121  A    
C117  H12   S    
C29   H48   S    
C12   C82   A    
C28   C92   S    
C2    C92   A    
N6    N42   A    
C3    N21   A    
C12   H31   S    
N12   N38   A    
C17   H36   S    
N18   N47   A    
C32   C96   S    
C48   H66   S    
C13   C100  A    
C61   C113  A    
C49   O15   D    
C62   C103  A    
C38   O4    D    
C35   C73   S    
C1    C89   A    
C41   O7    D    
C31   H50   S    
C57   C114  A    
C47   C110  S    
N3    Ni6   S    
N20   N28   A    
C22   H41   S    
C38   C102  S    
N14   N34   A    
C34   H53   S    
C39   O5    D    
C99   C112  A    
C4    H22   S    
N4    N9    A    
N20   Ni10  S    
C37   H55   S    
C51   O17   D    
C124  N47   A    
N8    Ni6   S    
C142  N18   A    
C48   C111  S    
C66   C112  S    
N5    N43   A    
C9    N28   A    
N27   Ni12  S    
N30   N44   A    
C127  H3    S    
C43   O9    D    
C6    H25   S    
