data_str_m3_o14_o17_f0_pcu.sym.109
_audit_creation_date              2012-12-10T17:43:31-0500
_audit_creation_method            fapswitch 2.2
_symmetry_space_group_name_H-M    P1
_symmetry_Int_Tables_number       1
_space_group_crystal_system       triclinic
_cell_length_a                    14.881534
_cell_length_b                    10.656722
_cell_length_c                    9.997428
_cell_angle_alpha                 89.117845
_cell_angle_beta                  90.399366
_cell_angle_gamma                 93.870813
_cell_volume                      1581.64358614

loop_
_atom_site_label
_atom_site_type_symbol
_atom_type_description
_atom_site_fract_x
_atom_site_fract_y
_atom_site_fract_z
_atom_type_partial_charge
C1    C     C_R   0.502358 0.261308 0.500912 0.856233
C2    C     C_R   0.181268 0.391240 0.474760 -0.280534
C3    C     C_R   0.232401 0.501524 0.499955 -0.027142
C4    C     C_R   0.327499 0.500074 0.499776 0.841008
C5    C     C_R   0.193743 0.613138 0.526910 -0.217024
C6    C     C_R   0.648663 0.140875 0.631845 -0.191730
C7    C     C_R   0.717397 0.079916 0.695347 -0.149377
C8    C     C_R   0.716596 0.949547 0.694081 -0.095427
C9    C     C_R   0.647448 0.879922 0.628471 -0.139311
C10   C     C_R   0.575882 0.939957 0.565310 0.107416
C11   C     C_R   0.576704 0.071370 0.567555 0.097623
C12   C     C_R   0.911912 0.618427 0.518942 0.071244
C13   C     C_R   0.506154 0.129457 0.502513 -0.144561
C14   C     C_R   0.436896 0.062285 0.435753 -0.185244
C15   C     C_R   0.433956 0.932943 0.433390 -0.035038
C16   C     C_R   0.500782 0.739265 0.499221 0.829136
C17   C     C_R   0.503963 0.872530 0.498313 -0.187180
C18   C     C_R   0.371809 0.350998 0.148840 -0.220417
C19   C     C_R   0.298292 0.287624 0.089981 0.043398
C20   C     C_R   0.292855 0.283060 0.952534 0.077644
C21   C     C_R   0.362453 0.340808 0.873110 0.086899
C22   C     C_R   0.433745 0.423870 0.930622 0.120934
C23   C     C_R   0.943851 0.280530 0.438688 0.061355
C24   C     C_R   0.435598 0.425861 0.075004 0.113412
C25   C     C_R   0.561383 0.571207 0.070319 -0.090524
C26   C     C_R   0.561423 0.571194 0.927985 -0.105051
C27   C     C_R   0.672662 0.500552 0.500233 0.854148
C28   C     C_R   0.818177 0.612630 0.526688 -0.209677
C29   C     C_R   0.768157 0.501448 0.499828 -0.047020
C30   C     C_R   0.808135 0.392785 0.466361 -0.267651
C31   C     C_R   0.901444 0.392020 0.465639 0.079985
C32   C     C_R   0.953665 0.505614 0.493477 0.015626
C33   C     C_2   0.355762 0.863182 0.367435 0.406870
C34   C     C_R   0.037024 0.281814 0.442482 -0.178582
C35   C     C_2   0.115355 0.850044 0.573176 0.388906
C36   C     C_2   0.921237 0.853632 0.554678 0.444346
C37   C     C_R   0.088500 0.392343 0.471564 0.086368
C38   C     C_R   0.047287 0.505574 0.496679 0.051577
C39   C     C_R   0.100178 0.617724 0.525515 0.046696
C40   C     C_R   0.059086 0.731790 0.546598 -0.090023
C41   C     C_R   0.964319 0.732718 0.539819 -0.048814
H1    H     H_    0.782638 0.693506 0.553423 0.154407
H2    H     H_    0.069333 0.195926 0.422252 0.212061
H3    H     H_    0.214116 0.304996 0.457969 0.125792
H4    H     H_    0.238015 0.695550 0.546438 0.108931
H5    H     H_    0.383744 0.111997 0.388131 0.166911
H6    H     H_    0.347744 0.761568 0.371445 0.084913
H7    H     H_    0.260237 0.163764 0.238185 0.226626
H8    H     H_    0.197818 0.290499 0.223222 0.195676
H9    H     H_    0.219410 0.117627 0.925929 0.220011
H10   H     H_    0.159066 0.247114 0.919329 0.213464
H11   H     H_    0.374137 0.200274 0.744788 0.185470
H12   H     H_    0.653104 0.242395 0.633123 0.156699
H13   H     H_    0.300392 0.304341 0.695625 0.200702
H14   H     H_    0.851904 0.139157 0.488431 0.216963
H15   H     H_    0.854885 0.178272 0.322698 0.200039
H16   H     H_    0.170298 0.850088 0.645045 0.057512
H17   H     H_    0.943484 0.918256 0.632906 0.067402
H18   H     H_    0.771868 0.134092 0.744508 0.141860
H19   H     H_    0.770247 0.902139 0.742816 0.121552
H20   H     H_    0.651306 0.779213 0.627676 0.133085
H21   H     H_    0.611847 0.629903 0.122662 0.151409
H22   H     H_    0.377208 0.337619 0.253565 0.216777
H23   H     H_    0.765513 0.309290 0.443766 0.132554
H24   H     H_    0.611831 0.629825 0.874537 0.139239
N1    N     N_R   0.499150 0.498800 0.142780 -0.110752
N2    N     N_R   0.499120 0.498720 0.857170 -0.101922
N3    N     N_3   0.229790 0.223052 0.169925 -0.441258
N4    N     N_3   0.219372 0.210540 0.890701 -0.469026
N5    N     N_3   0.363546 0.296417 0.740332 -0.354100
N6    N     N_3   0.894178 0.164542 0.408081 -0.390395
O1    O     O_R   0.500000 0.316780 0.614690 -0.602184
O2    O     O_2   0.101987 0.947624 0.512917 -0.556936
O3    O     O_2   0.863763 0.884511 0.475286 -0.571730
O4    O     O_R   0.499990 0.316750 0.385360 -0.634315
O5    O     O_R   0.367850 0.499980 0.614680 -0.598683
O6    O     O_R   0.367840 0.499960 0.385350 -0.640641
O7    O     O_R   0.500010 0.683250 0.614640 -0.614420
O8    O     O_R   0.500000 0.683220 0.385310 -0.615858
O9    O     O_R   0.632160 0.500040 0.614650 -0.634706
O10   O     O_R   0.632150 0.500020 0.385320 -0.600536
O11   O     O_2   0.298251 0.918971 0.307832 -0.564686
Zn1   Zn    Zn3+2 0.500010 0.500020 0.653130 0.952966
Zn2   Zn    Zn3+2 0.499990 0.499980 0.346870 0.948631

loop_
_geom_bond_atom_site_label_1
_geom_bond_atom_site_label_2
_ccdc_geom_bond_type
N2    Zn1   S    
H8    N3    S    
C30   H23   S    
C27   C29   S    
C34   C37   A    
C19   C20   A    
C7    C8    A    
C14   H5    S    
C29   C30   A    
C12   C28   A    
C9    H20   S    
C26   N2    A    
C28   C29   A    
H9    N4    S    
C36   H17   S    
O8    Zn2   S    
O4    Zn2   S    
C10   C17   A    
C18   C19   A    
O7    Zn1   S    
C2    H3    S    
C8    C9    A    
C18   C24   A    
C32   C38   A    
C9    C10   A    
C24   N1    A    
C23   C34   A    
C21   C22   A    
C12   C32   A    
C36   C41   S    
O9    Zn1   S    
O5    Zn1   S    
C7    H18   S    
C38   C39   A    
C1    O1    A    
C25   N1    A    
C1    O4    A    
C23   N6    S    
C27   O10   A    
C27   O9    A    
C39   C40   A    
C16   C17   S    
O6    Zn2   S    
C25   C26   A    
C5    H4    S    
C23   C31   A    
C37   C38   A    
C31   C32   A    
H13   N5    S    
H15   N6    S    
C19   N3    S    
H7    N3    S    
C36   O3    D    
C40   C41   A    
C5    C39   A    
C33   H6    S    
C22   C24   A    
C20   N4    S    
C1    C13   S    
C6    H12   S    
C3    C4    S    
C6    C11   A    
O10   Zn2   S    
C12   C41   A    
C33   O11   D    
C15   C17   A    
C35   O2    D    
C26   H24   S    
C34   H2    S    
C3    C5    A    
C6    C7    A    
C21   N5    S    
C35   H16   S    
C16   O8    A    
C2    C3    A    
C4    O6    A    
C8    H19   S    
C11   C13   A    
C2    C37   A    
C30   C31   A    
C28   H1    S    
C35   C40   S    
C16   O7    A    
C25   H21   S    
C18   H22   S    
C22   N2    A    
C4    O5    A    
O1    Zn1   S    
H11   N5    S    
C10   C11   A    
N1    Zn2   S    
C20   C21   A    
C14   C15   A    
H10   N4    S    
C13   C14   A    
C15   C33   S    
H14   N6    S    
