data_str_m9_o11_o16_f0_sra.sym.21
_audit_creation_date              2012-12-11T14:17:40-0500
_audit_creation_method            fapswitch 2.2
_symmetry_space_group_name_H-M    P1
_symmetry_Int_Tables_number       1
_space_group_crystal_system       triclinic
_cell_length_a                    6.944563
_cell_length_b                    13.617382
_cell_length_c                    20.445966
_cell_angle_alpha                 102.252482
_cell_angle_beta                  89.966705
_cell_angle_gamma                 90.627215
_cell_volume                      1889.35106069

loop_
_atom_site_label
_atom_site_type_symbol
_atom_type_description
_atom_site_fract_x
_atom_site_fract_y
_atom_site_fract_z
_atom_type_partial_charge
O1    O     O_R   0.506860 0.599390 0.449240 -0.535838
O2    O     O_R   0.180220 0.594600 0.586780 -0.543282
O3    O     O_R   0.004500 0.400610 0.550760 -0.544033
C1    C     C_R   0.349069 0.616278 0.613396 0.735287
O4    O     O_R   0.177490 0.611290 0.451970 -0.534609
O5    O     O_R   0.001750 0.417420 0.414990 -0.527389
C2    C     C_R   0.346920 0.637516 0.434991 0.767870
O6    O     O_R   0.509610 0.582580 0.585010 -0.546704
O7    O     O_3   0.337420 0.436370 0.488020 -0.373648
V1    V     V_3+5 0.064680 0.511800 0.502220 1.479375
O8    O     O_R   0.671710 0.405400 0.413220 -0.542008
C3    C     C_R   0.839746 0.384227 0.386477 0.761164
O9    O     O_R   0.674440 0.388710 0.548030 -0.546168
C4    C     C_R   0.842530 0.362341 0.565099 0.679443
V2    V     V_3+5 0.564010 0.488200 0.497780 1.457699
O10   O     O_3   0.841140 0.563630 0.511980 -0.372884
C5    C     C_R   0.833723 0.109807 0.610993 -0.111255
H1    H     H_    0.813495 0.162059 0.519447 0.106192
H2    H     H_    0.814275 0.033086 0.584141 0.165350
C6    C     C_R   0.848759 0.284478 0.604602 -0.024934
C7    C     C_R   0.865495 0.315057 0.927643 -0.154199
C8    C     C_R   0.864757 0.390749 0.891670 -0.128811
C9    C     C_R   0.863870 0.367171 0.821940 -0.153775
C10   C     C_R   0.863726 0.265862 0.785890 0.080046
C11   C     C_R   0.862520 0.188733 0.823220 0.064775
C12   C     C_R   0.861589 0.238916 0.714332 0.048586
C13   C     C_R   0.854502 0.135220 0.681376 0.109294
C14   C     C_R   0.861896 0.059856 0.719659 -0.016267
C15   C     C_R   0.862009 0.087562 0.789360 -0.274657
C16   C     C_R   0.863972 0.312019 0.674203 -0.203607
C17   C     C_R   0.830464 0.183664 0.573290 -0.196165
C18   C     C_R   0.864135 0.214365 0.894254 -0.067127
H3    H     H_    0.875517 0.391351 0.695199 0.091125
H4    H     H_    0.867378 0.335042 0.981856 0.124417
H5    H     H_    0.861995 0.430419 0.798124 0.105203
H6    H     H_    0.865046 0.468615 0.918060 0.118661
H7    H     H_    0.865210 0.028297 0.817324 0.107664
C19   C     C_2   0.005424 0.287020 0.285617 -0.106621
C20   C     C_2   0.841925 0.316584 0.319431 -0.311112
H8    H     H_    0.142987 0.312621 0.308616 0.171450
H9    H     H_    0.702740 0.291391 0.298132 0.135810
C21   C     C_2   0.013715 0.219806 0.217699 -0.119899
C22   C     C_2   0.858576 0.183061 0.180429 -0.295172
H10   H     H_    0.156591 0.200175 0.197862 0.144187
H11   H     H_    0.714384 0.201362 0.198830 0.134821
C23   C     C_2   0.204867 0.792140 0.781901 -0.128273
C24   C     C_2   0.363685 0.816104 0.819768 -0.311711
H12   H     H_    0.067424 0.823016 0.801086 0.125248
H13   H     H_    0.502009 0.785725 0.801847 0.123984
C25   C     C_2   0.203069 0.723710 0.714365 -0.094745
C26   C     C_2   0.361096 0.684863 0.680039 -0.300165
H14   H     H_    0.061863 0.705407 0.692004 0.140025
H15   H     H_    0.504206 0.702993 0.700287 0.121250
C27   C     C_R   0.430450 0.881926 0.383731 -0.148644
H16   H     H_    0.453821 0.829200 0.474704 0.125151
H17   H     H_    0.430808 0.009537 0.302559 0.118200
H18   H     H_    0.468511 0.958307 0.408203 0.115725
C28   C     C_R   0.359321 0.711430 0.392624 -0.108684
C29   C     C_R   0.357243 0.683281 0.069186 -0.268305
C30   C     C_R   0.370420 0.605952 0.103995 0.041641
C31   C     C_R   0.375810 0.629548 0.174140 -0.098467
C32   C     C_R   0.358010 0.729763 0.210676 0.052810
C33   C     C_R   0.361990 0.807934 0.174264 0.070950
C34   C     C_R   0.354681 0.755294 0.282375 0.031287
C35   C     C_R   0.396797 0.856480 0.314674 0.139034
C36   C     C_R   0.405501 0.931798 0.277858 -0.190453
C37   C     C_R   0.380345 0.908522 0.209013 -0.185294
C38   C     C_R   0.313740 0.685054 0.323582 -0.080052
C39   C     C_R   0.420691 0.808821 0.421721 -0.173453
C40   C     C_R   0.357009 0.783577 0.103524 -0.066747
H19   H     H_    0.355145 0.665678 0.014893 0.097081
H20   H     H_    0.404565 0.569155 0.199197 0.159665
H21   H     H_    0.385279 0.969919 0.182959 0.113360
O11   O     O_R   0.203230 0.917310 0.915020 -0.541249
O12   O     O_R   0.535500 0.888690 0.048040 -0.542617
O13   O     O_R   0.711080 0.082610 0.085000 -0.541576
C41   C     C_R   0.366198 0.861566 0.064242 0.695045
O14   O     O_R   0.532630 0.905370 0.913230 -0.550873
O15   O     O_R   0.708190 0.099410 0.949230 -0.536972
C42   C     C_R   0.364407 0.884376 0.886455 0.739492
O16   O     O_R   0.206120 0.900510 0.050790 -0.541744
O17   O     O_3   0.375360 0.063570 0.011990 -0.364797
V3    V     V_3+5 0.648170 0.988200 0.997780 1.430560
O18   O     O_R   0.038240 0.111390 0.951940 -0.538445
C43   C     C_R   0.870155 0.137482 0.934770 0.697678
O19   O     O_R   0.041120 0.094710 0.086750 -0.540000
C44   C     C_R   0.872516 0.115704 0.113526 0.753951
V4    V     V_3+5 0.148810 0.011930 0.002180 1.449850
O20   O     O_3   0.871750 0.936430 0.988010 -0.377725
C45   C     C_2   0.874071 0.950516 0.690180 0.348852
H22   H     H_    0.808726 0.896873 0.716185 0.034707
O21   O     O_2   0.967263 0.918811 0.639629 -0.537170
C46   C     C_2   0.199549 0.591629 0.298032 0.719253
O22   O     O_2   0.249723 0.511556 0.310197 -0.570558
O23   O     O_R   0.035221 0.595627 0.259229 -0.653595
H23   H     H_    0.969950 0.527544 0.244468 0.306937
C47   C     C_2   0.383171 0.500737 0.066132 0.367526
H24   H     H_    0.382539 0.484466 0.011790 0.042616
O24   O     O_2   0.394000 0.431019 0.094907 -0.527818

loop_
_geom_bond_atom_site_label_1
_geom_bond_atom_site_label_2
_ccdc_geom_bond_type
O15   V3    S    
C46   O22   D    
O23   H23   S    
C1    O6    A    
C47   H24   S    
C24   H13   S    
C27   C35   A    
C6    C16   A    
C12   C13   A    
C34   C38   A    
C14   C15   A    
C10   C12   A    
C19   C21   S    
O5    C3    A    
C19   C20   D    
O14   C42   A    
V2    O10   S    
C32   C34   A    
O8    V2    S    
O14   V3    S    
C25   H14   S    
C9    C10   A    
H17   C36   S    
C37   H21   S    
O7    V1    S    
C2    C28   S    
C11   C18   A    
C36   C37   A    
C29   C30   A    
C46   O23   S    
O11   C42   A    
O9    C4    A    
C40   C41   S    
C21   H10   S    
C24   C42   S    
O13   V3    S    
C47   O24   D    
C23   H12   S    
C11   C15   A    
V3    O20   S    
C7    C18   A    
C33   C37   A    
C1    C26   S    
C5    C13   A    
C4    C6    S    
C10   C11   A    
C20   H9    S    
C30   C47   S    
O4    C2    A    
O19   C44   A    
C7    H4    S    
C30   C31   A    
C26   H15   S    
O2    C1    A    
C32   C33   A    
O12   C41   A    
C45   O21   D    
C33   C40   A    
C41   O16   A    
C25   C26   D    
O18   C43   A    
C22   H11   S    
O13   C44   A    
H16   C39   S    
O3    C4    A    
O1    V2    S    
C31   H20   S    
C28   C38   A    
C12   C16   A    
O6    V2    S    
C9    H5    S    
O9    V2    S    
C5    C17   A    
C21   C22   D    
O2    V1    S    
O15   C43   A    
C23   C24   D    
C16   H3    S    
O1    C2    A    
O18   V4    S    
O5    V1    S    
O8    C3    A    
C28   C39   A    
C8    H6    S    
C23   C25   S    
C38   C46   S    
C22   C44   S    
C34   C35   A    
C3    C20   S    
O7    V2    S    
O4    V1    S    
O3    V1    S    
V1    O10   S    
C19   H8    S    
O12   V3    S    
C45   H22   S    
C27   C39   A    
O17   V4    S    
C18   C43   S    
C5    H2    S    
O19   V4    S    
C35   C36   A    
C31   C32   A    
O16   V4    S    
C29   C40   A    
V4    O20   S    
O17   V3    S    
C15   H7    S    
C13   C14   A    
C8    C9    A    
C14   C45   S    
H1    C17   S    
O11   V4    S    
C7    C8    A    
C6    C17   A    
C29   H19   S    
C27   H18   S    
