data_str_m3_o10_o25_f0_pcu.sym.176
_audit_creation_date              2012-12-10T16:56:31-0500
_audit_creation_method            fapswitch 2.2
_symmetry_space_group_name_H-M    P1
_symmetry_Int_Tables_number       1
_space_group_crystal_system       triclinic
_cell_length_a                    7.769328
_cell_length_b                    8.569196
_cell_length_c                    15.72539
_cell_angle_alpha                 90.82262
_cell_angle_beta                  85.802362
_cell_angle_gamma                 93.640962
_cell_volume                      1041.98210467

loop_
_atom_site_label
_atom_site_type_symbol
_atom_type_description
_atom_site_fract_x
_atom_site_fract_y
_atom_site_fract_z
_atom_type_partial_charge
C1    C     C_R   0.545787 0.794740 0.497804 0.965068
C2    C     C_3   0.395120 0.381983 0.030297 0.503338
C3    C     C_1   0.505565 0.498733 0.750520 -0.156223
C4    C     C_1   0.494435 0.501267 0.249479 -0.156223
C5    C     C_3   0.335334 0.516287 0.976677 -0.472334
C6    C     C_3   0.664665 0.483713 0.023323 -0.472334
C7    C     C_3   0.500891 0.499303 0.916586 -0.035054
C8    C     C_3   0.499109 0.500697 0.083414 -0.035054
C9    C     C_1   0.504941 0.498456 0.825742 0.106254
C10   C     C_1   0.495059 0.501544 0.174258 0.106254
C11   C     C_3   0.809212 0.817785 0.991968 -0.259547
C12   C     C_R   0.454213 0.205260 0.502196 0.965068
C13   C     C_3   0.190788 0.182215 0.008032 -0.259548
C14   C     C_R   0.501990 0.499767 0.661895 0.896539
C15   C     C_R   0.498010 0.500233 0.338105 0.896539
C16   C     C_2   0.569907 0.958229 0.496550 -0.363349
C17   C     C_2   0.430093 0.041771 0.503450 -0.363349
C18   C     C_3   0.442736 0.633948 0.029835 0.372218
C19   C     C_3   0.557264 0.366052 0.970165 0.372218
C20   C     C_3   0.604880 0.618016 0.969703 0.503338
H1    H     H_    0.796390 0.468602 0.043687 0.185585
H2    H     H_    0.270926 0.143042 0.951109 0.188963
H3    H     H_    0.090898 0.259430 0.988869 0.164646
H4    H     H_    0.122393 0.076574 0.037390 0.184455
H5    H     H_    0.360888 0.837202 0.014686 0.344789
H6    H     H_    0.639112 0.162798 0.985314 0.344789
H7    H     H_    0.203610 0.531397 0.956312 0.185585
H8    H     H_    0.701951 0.009299 0.489970 0.182489
H9    H     H_    0.298049 0.990701 0.510030 0.182489
H10   H     H_    0.013514 0.382030 0.436447 0.198011
H11   H     H_    0.986485 0.617969 0.563553 0.198011
H12   H     H_    0.909102 0.740570 0.011131 0.164645
H13   H     H_    0.729074 0.856958 0.048891 0.188962
H14   H     H_    0.877607 0.923425 0.962610 0.184454
N1    N     N_2   0.950320 0.457950 0.477300 -0.169542
N2    N     N_2   0.049680 0.542050 0.522700 -0.169541
O1    O     O_R   0.389250 0.738570 0.505570 -0.612910
O2    O     O_3   0.292628 0.256966 0.068927 -0.588163
O3    O     O_3   0.385623 0.774457 0.064325 -0.745390
O4    O     O_3   0.614377 0.225543 0.935675 -0.745390
O5    O     O_R   0.610750 0.261430 0.494430 -0.612910
O6    O     O_R   0.678390 0.711630 0.491020 -0.629552
O7    O     O_R   0.321610 0.288370 0.508980 -0.629552
O8    O     O_R   0.355460 0.513480 0.630490 -0.611138
O9    O     O_R   0.644540 0.486520 0.369510 -0.611138
O10   O     O_R   0.644600 0.486540 0.615950 -0.614681
O11   O     O_R   0.355400 0.513460 0.384050 -0.614681
O12   O     O_3   0.707372 0.743034 0.931073 -0.588163
Zn1   Zn    Zn3+2 0.306940 0.517990 0.509710 0.965530
Zn2   Zn    Zn3+2 0.693060 0.482010 0.490290 0.965530

loop_
_geom_bond_atom_site_label_1
_geom_bond_atom_site_label_2
_ccdc_geom_bond_type
C12   C17   S    
C16   H8    S    
C18   O3    S    
C12   O5    A    
C3    C9    T    
C1    O1    A    
O1    Zn1   S    
C6    C20   S    
C2    O2    S    
C18   C20   S    
N1    N2    D    
C15   O11   A    
N1    Zn2   S    
C13   H2    S    
C11   O12   S    
C14   O10   A    
C1    C16   S    
H5    O3    S    
C6    C19   S    
H6    O4    S    
C13   O2    S    
C20   O12   S    
C3    C14   S    
O9    Zn2   S    
O6    Zn2   S    
H10   N1    S    
C14   O8    A    
C11   H12   S    
C12   O7    A    
C7    C19   S    
C11   H14   S    
C4    C15   S    
C8    C10   S    
C2    C8    S    
C2    C5    S    
C19   O4    S    
C15   O9    A    
C4    C10   T    
C7    C9    S    
C1    O6    A    
C11   H13   S    
C17   H9    S    
C13   H3    S    
O11   Zn1   S    
C7    C20   S    
C5    C7    S    
O5    Zn2   S    
O10   Zn2   S    
H11   N2    S    
O7    Zn1   S    
C6    C8    S    
C5    C18   S    
C2    C19   S    
C5    H7    S    
C6    H1    S    
O8    Zn1   S    
C8    C18   S    
N2    Zn1   S    
C13   H4    S    
C16   C17   D    
