data_str_m3_o14_o16_f0_pcu.sym.203
_audit_creation_date              2012-12-10T17:42:40-0500
_audit_creation_method            fapswitch 2.2
_symmetry_space_group_name_H-M    P1
_symmetry_Int_Tables_number       1
_space_group_crystal_system       triclinic
_cell_length_a                    9.922465
_cell_length_b                    10.732508
_cell_length_c                    13.132748
_cell_angle_alpha                 91.099055
_cell_angle_beta                  71.722013
_cell_angle_gamma                 90.613859
_cell_volume                      1327.72218858

loop_
_atom_site_label
_atom_site_type_symbol
_atom_type_description
_atom_site_fract_x
_atom_site_fract_y
_atom_site_fract_z
_atom_type_partial_charge
C1    C     C_R   0.504102 0.739019 0.488946 0.886897
C2    C     C_R   0.442936 0.408796 0.975818 0.087903
C3    C     C_R   0.483537 0.409707 0.863222 0.082849
C4    C     C_R   0.550603 0.425338 0.024853 0.083288
C5    C     C_R   0.695382 0.426533 0.961117 0.113662
C6    C     C_R   0.731916 0.395243 0.852824 -0.217252
C7    C     C_R   0.626101 0.382525 0.805241 -0.184402
C8    C     C_R   0.517836 0.451752 0.133775 -0.316044
C9    C     C_R   0.765804 0.493849 0.114214 0.378409
C10   C     C_R   0.380704 0.439984 0.813146 -0.121394
C11   C     C_R   0.266071 0.880690 0.450147 -0.168434
C12   C     C_R   0.423491 0.483505 0.701810 0.859679
C13   C     C_R   0.132192 0.934520 0.484243 -0.203494
C14   C     C_R   0.110986 0.045701 0.543876 0.025517
C15   C     C_R   0.228475 0.108525 0.558039 -0.217808
C16   C     C_R   0.366713 0.058613 0.515669 0.072941
C17   C     C_R   0.380448 0.935643 0.477940 0.102863
C18   C     C_R   0.506377 0.871717 0.474040 -0.142039
C19   C     C_R   0.627889 0.937182 0.475282 -0.171058
C20   C     C_R   0.622457 0.064310 0.487504 -0.159607
C21   C     C_R   0.492577 0.125847 0.509183 -0.132462
C22   C     C_R   0.804651 0.662896 0.639808 -0.150977
C23   C     C_R   0.496411 0.259892 0.506260 0.859834
C24   C     C_R   0.846882 0.740990 0.710036 -0.134109
C25   C     C_R   0.985602 0.738779 0.711539 -0.182557
C26   C     C_R   0.083156 0.658962 0.642371 -0.169194
C27   C     C_R   0.044321 0.578608 0.569989 0.159490
C28   C     C_R   0.900105 0.579521 0.569330 0.148535
C29   C     C_R   0.955461 0.424756 0.433024 -0.042372
C30   C     C_R   0.098571 0.424974 0.432886 -0.054714
C31   C     C_R   0.577932 0.499898 0.296099 0.917583
C32   C     C_R   0.801152 0.461739 0.005735 -0.252758
C33   C     C_R   0.623249 0.483936 0.179569 -0.141068
C34   C     C_R   0.236358 0.431083 0.872052 -0.206604
C35   C     C_R   0.195731 0.401721 0.980189 -0.091747
C36   C     C_R   0.296831 0.396405 0.033340 -0.160359
H1    H     H_    0.278507 0.796271 0.401886 0.179472
H2    H     H_    0.044928 0.887826 0.466021 0.175517
H3    H     H_    0.209846 0.193085 0.606365 0.198176
H4    H     H_    0.720163 0.114142 0.480950 0.197444
H5    H     H_    0.923721 0.362941 0.378520 0.151474
H6    H     H_    0.696794 0.671473 0.642991 0.213012
H7    H     H_    0.771410 0.804016 0.763351 0.171703
H8    H     H_    0.018312 0.800034 0.766010 0.162622
H9    H     H_    0.187953 0.663664 0.647465 0.216301
H10   H     H_    0.842042 0.385324 0.804218 0.172939
H11   H     H_    0.174174 0.363296 0.378254 0.135491
H12   H     H_    0.910361 0.468952 0.955161 0.154297
H13   H     H_    0.408891 0.451309 0.184006 0.179810
H14   H     H_    0.155240 0.445547 0.834355 0.159857
H15   H     H_    0.258123 0.379264 0.118292 0.136085
H16   H     H_    0.085182 0.387199 0.024075 0.183297
H17   H     H_    0.657107 0.352234 0.722726 0.176381
H18   H     H_    0.726866 0.890297 0.467679 0.195542
N1    N     N_R   0.856860 0.501200 0.500990 -0.125720
N2    N     N_R   0.142450 0.501280 0.501020 -0.122036
O1    O     O_R   0.385310 0.683220 0.500000 -0.648759
O2    O     O_R   0.614640 0.683250 0.500010 -0.627099
O3    O     O_R   0.328400 0.499950 0.653610 -0.634131
O4    O     O_R   0.557730 0.499970 0.653620 -0.647094
O5    O     O_R   0.385360 0.316750 0.499990 -0.618087
O6    O     O_R   0.614690 0.316780 0.500000 -0.634630
O7    O     O_R   0.442270 0.500030 0.346380 -0.634532
O8    O     O_R   0.671600 0.500050 0.346390 -0.553112
Zn1   Zn    Zn3+2 0.346880 0.499980 0.499990 0.933449
Zn2   Zn    Zn3+2 0.653120 0.500020 0.500010 0.957102
Cl1   Cl    Cl    0.901358 0.553109 0.162269 -0.662399
C37   C     C_2   0.967693 0.098694 0.588332 0.868700
O9    O     O_2   0.862904 0.032393 0.601091 -0.665733
O10   O     O_R   0.952194 0.225074 0.615838 -0.836488
H19   H     H_    0.849832 0.251591 0.637311 0.332155

loop_
_geom_bond_atom_site_label_1
_geom_bond_atom_site_label_2
_ccdc_geom_bond_type
C22   H6    S    
C2    C4    A    
C24   C25   A    
O7    Zn1   S    
C16   C21   A    
C1    O1    A    
C31   O7    A    
C32   H12   S    
C19   C20   A    
C9    C32   A    
C4    C8    A    
C5    C32   A    
N1    Zn2   S    
C31   C33   S    
C2    C3    A    
C1    C18   S    
O4    Zn2   S    
C10   C34   A    
C3    C10   A    
C22   C28   A    
C1    O2    A    
O3    Zn1   S    
C9    C33   A    
C11   C13   A    
C15   H3    S    
C26   C27   A    
C29   C30   A    
C36   H15   S    
C10   C12   S    
C9    Cl1   S    
C31   O8    A    
C19   H18   S    
C28   N1    A    
C13   H2    S    
C17   C18   A    
C6    C7    A    
C3    C7    A    
C8    C33   A    
C21   C23   S    
C6    H10   S    
C5    C6    A    
C20   H4    S    
C22   C24   A    
C34   H14   S    
C16   C17   A    
O6    Zn2   S    
C15   C16   A    
C12   O4    A    
O5    Zn1   S    
C30   H11   S    
C23   O5    A    
O10   H19   S    
C20   C21   A    
C25   H8    S    
C37   O10   S    
C34   C35   A    
C37   O9    D    
C2    C36   A    
C35   H16   S    
C11   H1    S    
C24   H7    S    
C7    H17   S    
C27   N2    A    
C18   C19   A    
C14   C37   S    
C14   C15   A    
C29   N1    A    
C26   H9    S    
C29   H5    S    
C25   C26   A    
C13   C14   A    
C12   O3    A    
C30   N2    A    
C8    H13   S    
O2    Zn2   S    
C23   O6    A    
C11   C17   A    
N2    Zn1   S    
O1    Zn1   S    
C4    C5    A    
C27   C28   A    
C35   C36   A    
O8    Zn2   S    
