data_str_m4_o4_o22_f0_acs.sym.129
_audit_creation_date              2012-12-11T15:48:36-0500
_audit_creation_method            fapswitch 2.2
_symmetry_space_group_name_H-M    P1
_symmetry_Int_Tables_number       1
_space_group_crystal_system       triclinic
_cell_length_a                    10.936952
_cell_length_b                    10.981653
_cell_length_c                    18.829863
_cell_angle_alpha                 90.587241
_cell_angle_beta                  90.107666
_cell_angle_gamma                 60.284346
_cell_volume                      1964.0534455

loop_
_atom_site_label
_atom_site_type_symbol
_atom_type_description
_atom_site_fract_x
_atom_site_fract_y
_atom_site_fract_z
_atom_type_partial_charge
C1    C     C_R   0.240297 0.645372 0.610556 0.537729
C2    C     C_3   0.644640 0.571857 0.799820 -0.260639
C3    C     C_3   0.700557 0.674099 0.811764 -0.031197
C4    C     C_3   0.671709 0.648376 0.675774 0.084905
C5    C     C_3   0.829055 0.594808 0.693358 0.188516
C6    C     C_3   0.618627 0.564292 0.720058 -0.188133
C7    C     C_R   0.682085 0.153547 0.822659 0.009534
C8    C     C_R   0.778330 0.177452 0.785319 -0.007258
C9    C     C_R   0.772177 0.187307 0.711326 0.028304
C10   C     C_R   0.578035 0.142945 0.710153 -0.189808
C11   C     C_R   0.574492 0.148949 0.783215 -0.176311
C12   C     C_R   0.654925 0.623299 0.600294 0.554590
C13   C     C_3   0.934261 0.097904 0.786237 -0.266502
C14   C     C_3   0.929074 0.106203 0.705837 -0.255313
C15   C     C_R   0.673731 0.166709 0.672605 -0.000102
C16   C     C_R   0.180768 0.667999 0.835038 0.008739
C17   C     C_R   0.156291 0.575246 0.794210 0.013695
C18   C     C_R   0.165255 0.572738 0.720466 0.007647
C19   C     C_R   0.214407 0.763193 0.726083 -0.168088
C20   C     C_R   0.212956 0.760466 0.799860 -0.178976
C21   C     C_3   0.234122 0.419372 0.797713 -0.276683
C22   C     C_3   0.242324 0.417079 0.717452 -0.249815
C23   C     C_R   0.630033 0.226349 0.602074 0.533718
C24   C     C_R   0.195886 0.665467 0.684996 -0.006202
C25   C     C_R   0.672852 0.679621 0.173272 0.009200
C26   C     C_R   0.792245 0.617749 0.216595 0.005095
C27   C     C_R   0.784109 0.614413 0.289061 -0.009075
C28   C     C_R   0.530756 0.745434 0.280266 -0.155156
C29   C     C_R   0.540527 0.751506 0.206093 -0.165418
C30   C     C_3   0.919241 0.475262 0.212806 -0.221194
C31   C     C_3   0.914956 0.474334 0.293114 -0.260294
C32   C     C_R   0.653538 0.667860 0.321802 0.014506
C33   C     C_R   0.632932 0.187351 0.169116 -0.002373
C34   C     C_R   0.223759 0.647076 0.401141 0.550263
C35   C     C_R   0.524896 0.187469 0.208857 0.166758
C36   C     C_R   0.523322 0.199237 0.281284 -0.028902
C37   C     C_R   0.718033 0.242146 0.276302 -0.160630
C38   C     C_R   0.720009 0.230679 0.202204 -0.177287
C39   C     C_3   0.477260 0.081245 0.212945 0.281308
C40   C     C_3   0.474232 0.096523 0.292884 -0.232648
C41   C     C_R   0.627325 0.213038 0.316623 -0.012189
C42   C     C_R   0.144770 0.681254 0.183550 0.026417
C43   C     C_R   0.116681 0.796859 0.226504 -0.018686
C44   C     C_R   0.131439 0.785734 0.297967 0.008635
C45   C     C_R   0.641334 0.623191 0.392391 0.543560
C46   C     C_R   0.219863 0.536886 0.287201 -0.135761
C47   C     C_R   0.206329 0.548183 0.213439 0.316721
C48   C     C_3   0.986309 0.936620 0.232606 -0.240122
C49   C     C_3   0.003143 0.923256 0.312270 -0.271191
C50   C     C_R   0.174586 0.658688 0.329976 -0.044019
C51   C     C_R   0.702120 0.100152 0.895347 0.541531
C52   C     C_R   0.723616 0.688017 0.888104 0.539888
C53   C     C_R   0.118902 0.705796 0.905958 0.541385
C54   C     C_R   0.672367 0.111664 0.102303 0.529526
C55   C     C_R   0.697151 0.690951 0.098306 0.536300
C56   C     C_R   0.612180 0.238209 0.392292 0.549127
C57   C     C_R   0.093140 0.710542 0.112312 0.576183
C58   C     C_3   0.595489 0.818298 0.778993 -0.197497
C59   C     C_3   0.586020 0.805535 0.697901 0.181365
C60   C     C_3   0.843112 0.619483 0.772278 -0.186642
Cr1   Cr    Cr6+3 0.392960 0.397920 0.502240 1.024620
Cr2   Cr    Cr6+3 0.398340 0.708480 0.501250 1.058383
Cr3   Cr    Cr6+3 0.708670 0.393570 0.496460 1.038467
Cr4   Cr    Cr6+3 0.937650 0.938540 0.007610 1.021812
Cr5   Cr    Cr6+3 0.625330 0.937370 0.994520 1.051951
Cr6   Cr    Cr6+3 0.937940 0.625230 0.001190 1.057312
H1    H     H_    0.633761 0.892507 0.790400 0.110161
H2    H     H_    0.673038 0.453261 0.702633 0.169290
H3    H     H_    0.924992 0.519570 0.795648 0.195346
H4    H     H_    0.497391 0.130182 0.683172 0.170438
H5    H     H_    0.492958 0.135242 0.808057 0.153526
H6    H     H_    0.973335 0.990891 0.806651 0.166948
H7    H     H_    0.979602 0.158553 0.811473 0.150643
H8    H     H_    0.972861 0.170676 0.684476 0.208501
H9    H     H_    0.967420 0.003094 0.678802 0.133963
H10   H     H_    0.237512 0.838090 0.701589 0.221577
H11   H     H_    0.489539 0.860495 0.803752 0.176267
H12   H     H_    0.228423 0.837175 0.829170 0.145409
H13   H     H_    0.168255 0.376618 0.818534 0.149199
H14   H     H_    0.337037 0.380208 0.824610 0.144238
H15   H     H_    0.349932 0.377301 0.696685 0.167676
H16   H     H_    0.180563 0.374034 0.691291 0.207690
H17   H     H_    0.426938 0.792111 0.304073 0.159180
H18   H     H_    0.445949 0.808469 0.174770 0.165043
H19   H     H_    0.011319 0.477529 0.190892 0.230871
H20   H     H_    0.896873 0.396504 0.187555 0.145920
H21   H     H_    0.899173 0.389436 0.313917 0.155855
H22   H     H_    0.002745 0.481772 0.318467 0.143248
H23   H     H_    0.792203 0.265481 0.301974 0.138119
H24   H     H_    0.799783 0.239070 0.172214 0.130900
H25   H     H_    0.557628 0.976844 0.192833 0.113542
H26   H     H_    0.366448 0.146675 0.316013 0.178102
H27   H     H_    0.554048 0.000255 0.320101 0.086569
H28   H     H_    0.266700 0.433922 0.310544 0.166746
H29   H     H_    0.891405 0.934141 0.213317 0.138657
H30   H     H_    0.630834 0.864259 0.670816 0.102693
H31   H     H_    0.003020 0.020931 0.210841 0.165928
H32   H     H_    0.028481 0.000613 0.336748 0.151054
H33   H     H_    0.918338 0.912937 0.339224 0.130403
H34   H     H_    0.878281 0.698313 0.778129 0.077843
H35   H     H_    0.869489 0.651612 0.660955 0.105257
H36   H     H_    0.722454 0.465880 0.819278 0.149853
H37   H     H_    0.544814 0.607685 0.829872 0.121198
H38   H     H_    0.504503 0.605644 0.710795 0.151937
O1    O     O_R   0.507380 0.255700 0.581440 -0.527125
O2    O     O_R   0.524480 0.695810 0.424040 -0.513379
O3    O     O_R   0.736390 0.504290 0.414790 -0.528179
O4    O     O_R   0.691300 0.277290 0.422170 -0.512797
O5    O     O_3   0.499990 0.499990 0.499980 -0.271415
O6    O     O_R   0.089400 0.825690 0.930570 -0.528770
O7    O     O_R   0.818460 0.054440 0.929850 -0.499754
O8    O     O_R   0.606060 0.077150 0.915510 -0.530139
O9    O     O_R   0.646550 0.806680 0.917570 -0.510840
O10   O     O_R   0.837170 0.593410 0.915250 -0.524645
O11   O     O_R   0.065200 0.635530 0.931570 -0.495851
O12   O     O_R   0.280320 0.527350 0.578930 -0.501227
O13   O     O_R   0.068260 0.828890 0.091840 -0.526139
O14   O     O_R   0.798870 0.057410 0.079340 -0.517660
O15   O     O_R   0.584930 0.080350 0.076780 -0.472062
O16   O     O_R   0.626960 0.809650 0.067060 -0.497935
O17   O     O_R   0.816040 0.596610 0.076510 -0.513959
O18   O     O_R   0.045610 0.638500 0.081060 -0.461801
O19   O     O_3   0.833640 0.833710 0.001100 -0.271865
O20   O     O_R   0.260510 0.739590 0.584590 -0.500455
O21   O     O_R   0.532300 0.695080 0.573820 -0.448468
O22   O     O_R   0.744840 0.503500 0.576370 -0.458239
O23   O     O_R   0.699120 0.276560 0.571960 -0.493212
O24   O     O_R   0.498940 0.256500 0.419860 -0.518182
O25   O     O_R   0.272500 0.528080 0.429150 -0.513912
O26   O     O_R   0.252060 0.740380 0.423010 -0.511597
F1    F     F_    0.911737 0.452484 0.678654 -0.655613
F2    F     F_    0.445673 0.865851 0.678906 -0.654519
F3    F     F_    0.344411 0.130781 0.184370 -0.581249
F4    F     F_    0.248450 0.432159 0.172153 -0.602383

loop_
_geom_bond_atom_site_label_1
_geom_bond_atom_site_label_2
_ccdc_geom_bond_type
C53   O6    A    
C44   C49   S    
C55   O17   A    
C51   O8    A    
C48   H29   S    
C32   C45   S    
Cr2   O26   S    
C19   C20   A    
C40   H27   S    
C9    C14   S    
Cr1   O5    S    
Cr2   O20   S    
C7    C8    A    
Cr5   O8    S    
C52   O9    A    
C7    C11   A    
C48   H31   S    
C26   C27   A    
C8    C13   S    
C18   C24   A    
C14   H8    S    
C23   O23   A    
C28   C29   A    
C54   O15   A    
C10   C15   A    
C30   C31   S    
C11   H5    S    
C12   O22   A    
C2    H36   S    
C23   O1    A    
Cr4   O14   S    
C4    C59   S    
C16   C53   S    
C56   O4    A    
C56   O24   A    
C58   H11   S    
C49   H32   S    
C35   C36   A    
C34   O25   A    
C8    C9    A    
Cr6   O18   S    
C1    O12   A    
C6    H38   S    
C30   H20   S    
Cr1   O1    S    
C43   C48   S    
Cr1   O25   S    
C3    C60   S    
C15   C23   S    
C57   O18   A    
C21   C22   S    
C28   H17   S    
C37   C41   A    
C36   C41   A    
C2    C6    S    
C42   C57   S    
C39   H25   S    
C55   O16   A    
C25   C29   A    
C5    H35   S    
C59   F2    S    
C34   C50   S    
C31   H21   S    
Cr6   O11   S    
C27   C31   S    
C22   H15   S    
C28   C32   A    
C29   H18   S    
C4    C6    S    
C39   C40   S    
C16   C17   A    
Cr4   O7    S    
C12   O21   A    
C25   C26   A    
C17   C21   S    
Cr4   O13   S    
Cr3   O5    S    
C35   C39   S    
C43   C44   A    
C41   C56   S    
C37   C38   A    
C49   H33   S    
Cr4   O6    S    
C46   H28   S    
C36   C40   S    
C16   C20   A    
C21   H13   S    
Cr1   O12   S    
C17   C18   A    
Cr5   O15   S    
Cr6   O17   S    
C40   H26   S    
C30   H19   S    
C10   H4    S    
C60   H3    S    
C48   C49   S    
C13   H7    S    
C26   C30   S    
C54   O14   A    
C47   F4    S    
C4    C12   S    
C42   C43   A    
Cr3   O3    S    
C22   H16   S    
C45   O2    A    
C57   O13   A    
C39   F3    S    
C44   C50   A    
C33   C54   S    
C46   C50   A    
C46   C47   A    
C19   H10   S    
C51   O7    A    
C31   H22   S    
Cr6   O10   S    
C5    C60   S    
C27   C32   A    
C18   C22   S    
Cr5   O9    S    
C25   C55   S    
C4    C5    S    
C60   H34   S    
Cr2   O21   S    
C3    C52   S    
Cr2   O2    S    
C13   H6    S    
C52   O10   A    
Cr4   O19   S    
C38   H24   S    
C33   C38   A    
C37   H23   S    
C14   H9    S    
C19   C24   A    
C58   C59   S    
C1    O20   A    
C7    C51   S    
Cr2   O5    S    
C20   H12   S    
C21   H14   S    
C6    H2    S    
C33   C35   A    
Cr5   O16   S    
C2    C3    S    
Cr1   O24   S    
C42   C47   A    
Cr5   O19   S    
C9    C15   A    
C2    H37   S    
Cr3   O22   S    
C10   C11   A    
C3    C58   S    
C53   O11   A    
C58   H1    S    
C5    F1    S    
C34   O26   A    
C1    C24   S    
C59   H30   S    
Cr6   O19   S    
Cr3   O4    S    
C13   C14   S    
Cr3   O23   S    
C45   O3    A    
