data_str_m3_o10_o14_f0_pcu.sym.42
_audit_creation_date              2012-12-10T16:50:09-0500
_audit_creation_method            fapswitch 2.2
_symmetry_space_group_name_H-M    P1
_symmetry_Int_Tables_number       1
_space_group_crystal_system       triclinic
_cell_length_a                    7.870546
_cell_length_b                    8.556761
_cell_length_c                    10.59983
_cell_angle_alpha                 92.396257
_cell_angle_beta                  84.934721
_cell_angle_gamma                 93.662609
_cell_volume                      709.150124087

loop_
_atom_site_label
_atom_site_type_symbol
_atom_type_description
_atom_site_fract_x
_atom_site_fract_y
_atom_site_fract_z
_atom_type_partial_charge
C1    C     C_R   0.545388 0.794316 0.497030 0.933025
C2    C     C_R   0.454640 0.205691 0.502804 0.948291
C3    C     C_R   0.499935 0.502842 0.261000 0.846787
C4    C     C_R   0.417919 0.787802 0.883548 -0.180771
C5    C     C_R   0.375670 0.921353 0.956717 -0.136227
C6    C     C_R   0.373250 0.920585 0.088157 -0.144698
C7    C     C_R   0.413274 0.786320 0.146815 -0.174810
C8    C     C_R   0.455698 0.649673 0.074016 0.098418
C9    C     C_3   0.012079 0.317197 0.400798 -0.120588
C10   C     C_3   0.925897 0.277925 0.279075 -0.863096
C11   C     C_R   0.457835 0.650400 0.941740 0.091885
C12   C     C_R   0.504365 0.513735 0.871623 -0.088587
C13   C     C_R   0.553716 0.381983 0.927975 -0.204486
C14   C     C_R   0.551979 0.381351 0.056961 -0.227352
C15   C     C_R   0.500799 0.512418 0.128828 -0.081799
C16   C     C_2   0.569072 0.958006 0.494766 -0.388183
C17   C     C_2   0.430958 0.041973 0.504207 -0.401446
C18   C     C_R   0.501254 0.503852 0.739089 0.859244
H1    H     H_    0.590312 0.278593 0.871921 0.150172
H2    H     H_    0.791674 0.233595 0.298490 0.280777
H3    H     H_    0.933612 0.382003 0.219147 0.273737
H4    H     H_    0.993379 0.183375 0.224251 0.210732
H5    H     H_    0.145598 0.331948 0.367291 0.234602
H6    H     H_    0.991220 0.216877 0.464725 0.159695
H7    H     H_    0.990992 0.631336 0.585125 0.178920
H8    H     H_    0.421284 0.794055 0.781654 0.142425
H9    H     H_    0.345867 0.026007 0.911260 0.139797
H10   H     H_    0.341475 0.024606 0.144801 0.131186
H11   H     H_    0.412568 0.791438 0.248835 0.151927
H12   H     H_    0.587948 0.277703 0.101201 0.147211
H13   H     H_    0.699629 0.008839 0.485509 0.182005
H14   H     H_    0.300394 0.991135 0.513267 0.180468
N1    N     N_2   0.950330 0.457950 0.466250 -0.038373
N2    N     N_2   0.049670 0.542050 0.533750 -0.158001
O1    O     O_R   0.389250 0.738570 0.508280 -0.622942
O2    O     O_R   0.678390 0.711630 0.486650 -0.625015
O3    O     O_R   0.355400 0.513470 0.694050 -0.612260
O4    O     O_R   0.644540 0.486530 0.672420 -0.617598
O5    O     O_R   0.321610 0.288370 0.513350 -0.657918
O6    O     O_R   0.610750 0.261430 0.491720 -0.612681
O7    O     O_R   0.355460 0.513470 0.327580 -0.644553
O8    O     O_R   0.644600 0.486530 0.305950 -0.607160
Zn1   Zn    Zn3+2 0.306930 0.517990 0.514440 0.924580
Zn2   Zn    Zn3+2 0.693070 0.482010 0.485560 0.942662

loop_
_geom_bond_atom_site_label_1
_geom_bond_atom_site_label_2
_ccdc_geom_bond_type
O3    Zn1   S    
C4    H8    S    
C11   C12   A    
C9    H6    S    
O4    Zn2   S    
C6    C7    A    
C7    H11   S    
O1    Zn1   S    
C9    C10   S    
H7    N2    S    
C4    C11   A    
N1    N2    D    
C18   O4    A    
C7    C8    A    
C3    O8    A    
C1    C16   S    
C13   C14   A    
C10   H4    S    
C2    C17   S    
C9    N1    S    
O7    Zn1   S    
C16   C17   D    
O8    Zn2   S    
C14   H12   S    
C8    C11   A    
C18   O3    A    
C9    H5    S    
C8    C15   A    
C10   H3    S    
C5    C6    A    
O2    Zn2   S    
C13   H1    S    
C2    O6    A    
O6    Zn2   S    
C3    C15   S    
C12   C13   A    
C1    O1    A    
C12   C18   S    
C17   H14   S    
C14   C15   A    
C3    O7    A    
O5    Zn1   S    
C5    H9    S    
N1    Zn2   S    
C2    O5    A    
C6    H10   S    
N2    Zn1   S    
C1    O2    A    
C10   H2    S    
C4    C5    A    
C16   H13   S    
