data_str_m3_o10_o15_f0_pcu.sym.92
_audit_creation_date              2012-12-10T16:51:00-0500
_audit_creation_method            fapswitch 2.2
_symmetry_space_group_name_H-M    P1
_symmetry_Int_Tables_number       1
_space_group_crystal_system       triclinic
_cell_length_a                    8.003863
_cell_length_b                    8.524109
_cell_length_c                    10.61465
_cell_angle_alpha                 94.380887
_cell_angle_beta                  86.210692
_cell_angle_gamma                 93.147175
_cell_volume                      719.593420294

loop_
_atom_site_label
_atom_site_type_symbol
_atom_type_description
_atom_site_fract_x
_atom_site_fract_y
_atom_site_fract_z
_atom_type_partial_charge
C1    C     C_R   0.544289 0.793478 0.496616 0.902545
C2    C     C_R   0.970866 0.604050 0.083708 -0.105472
C3    C     C_R   0.091310 0.728961 0.086703 -0.163136
C4    C     C_R   0.988460 0.571033 0.952945 -0.135298
C5    C     C_R   0.236514 0.701609 0.148467 -0.161353
C6    C     C_R   0.843852 0.555754 0.881907 -0.128688
C7    C     C_R   0.373107 0.630914 0.080439 0.088337
C8    C     C_R   0.679509 0.572716 0.940099 0.089557
C9    C     C_R   0.381561 0.625317 0.948094 0.040282
C10   C     C_R   0.669008 0.600415 0.072382 0.076402
C11   C     C_R   0.512964 0.588995 0.139134 -0.229332
C12   C     C_R   0.455789 0.206366 0.499866 0.970906
C13   C     C_R   0.524743 0.567862 0.876996 -0.194701
C14   C     C_2   0.567409 0.957475 0.497467 -0.337606
C15   C     C_2   0.433855 0.041872 0.490715 -0.350099
C16   C     C_R   0.506901 0.517364 0.741012 0.842511
C17   C     C_R   0.502494 0.526951 0.264612 0.854491
C18   C     C_R   0.254138 0.695009 0.891378 -0.154822
C19   C     C_R   0.813853 0.639248 0.137321 -0.172066
C20   C     C_R   0.094901 0.710344 0.952679 -0.079361
H1    H     H_    0.057539 0.465888 0.924348 0.168895
H2    H     H_    0.308661 0.990731 0.476842 0.253190
H3    H     H_    0.870950 0.087814 0.288789 0.359217
H4    H     H_    0.106499 0.944304 0.674023 0.376509
H5    H     H_    0.044168 0.840611 0.127262 0.170883
H6    H     H_    0.285455 0.749036 0.804750 0.220099
H7    H     H_    0.806366 0.696201 0.232392 0.184892
H8    H     H_    0.035964 0.804866 0.910999 0.189078
H9    H     H_    0.004988 0.504742 0.134262 0.213003
H10   H     H_    0.242334 0.740733 0.247683 0.187291
H11   H     H_    0.867380 0.513998 0.785015 0.207760
H12   H     H_    0.693562 0.008572 0.508209 0.250908
N1    N     N_2   0.950330 0.457950 0.466250 0.111806
N2    N     N_2   0.049670 0.542050 0.533750 0.094862
O1    O     O_R   0.389250 0.738570 0.508280 -0.575610
O2    O     O_2   0.015583 0.166216 0.506575 -0.314150
O3    O     O_3   0.843427 0.198423 0.313088 -0.536220
O4    O     O_2   0.975429 0.815380 0.455166 -0.320622
O5    O     O_2   0.850818 0.746936 0.665632 -0.341827
O6    O     O_3   0.153859 0.841365 0.646513 -0.585191
O7    O     O_R   0.610750 0.261430 0.491720 -0.565523
O8    O     O_R   0.678390 0.711630 0.486650 -0.550631
O9    O     O_R   0.321610 0.288370 0.513350 -0.544474
O10   O     O_R   0.355430 0.513480 0.694040 -0.622312
O11   O     O_R   0.644570 0.486520 0.305960 -0.595196
O12   O     O_R   0.644570 0.486540 0.672410 -0.618162
O13   O     O_R   0.355430 0.513460 0.327590 -0.589330
O14   O     O_2   0.155163 0.275886 0.315664 -0.307974
S1    S     S_3+6 0.999380 0.272564 0.401944 0.118361
S2    S     S_3+6 0.001213 0.736559 0.573896 0.095042
Zn1   Zn    Zn3+2 0.306940 0.517990 0.514440 1.101958
Zn2   Zn    Zn3+2 0.693060 0.482010 0.485560 1.110370

loop_
_geom_bond_atom_site_label_1
_geom_bond_atom_site_label_2
_ccdc_geom_bond_type
C2    C4    A    
C1    O8    A    
C5    C7    A    
C8    C13   A    
O4    S2    D    
O3    S1    S    
C16   O10   A    
O7    Zn2   S    
C18   H6    S    
C12   C15   S    
C10   C19   A    
C2    C3    A    
C3    C20   A    
N1    Zn2   S    
C7    C11   A    
C4    H1    S    
O9    Zn1   S    
N2    Zn1   S    
C12   O7    A    
C2    H9    S    
O6    S2    S    
C6    C8    A    
O10   Zn1   S    
C4    C6    A    
O14   S1    D    
H4    O6    S    
C17   O11   A    
N1    N2    D    
C12   O9    A    
C18   C20   A    
O1    Zn1   S    
N2    S2    S    
C10   C11   A    
N1    S1    S    
C4    C20   A    
O12   Zn2   S    
C9    C18   A    
C3    H5    S    
O5    S2    D    
C19   H7    S    
C1    O1    A    
C8    C10   A    
C5    H10   S    
C13   C16   S    
C16   O12   A    
C7    C9    A    
C9    C13   A    
C14   C15   D    
C11   C17   S    
C6    H11   S    
C1    C14   S    
C20   H8    S    
O11   Zn2   S    
C2    C19   A    
H3    O3    S    
C15   H2    S    
O13   Zn1   S    
O2    S1    D    
C17   O13   A    
C14   H12   S    
C3    C5    A    
O8    Zn2   S    
