data_str_m3_o41_o41_f0_fof.sym.62
_audit_creation_date              2012-12-10T16:39:37-0500
_audit_creation_method            fapswitch 2.2
_symmetry_space_group_name_H-M    P1
_symmetry_Int_Tables_number       1
_space_group_crystal_system       triclinic
_cell_length_a                    16.882154
_cell_length_b                    16.760498
_cell_length_c                    17.024402
_cell_angle_alpha                 65.60764
_cell_angle_beta                  65.767434
_cell_angle_gamma                 65.982727
_cell_volume                      3833.48067082

loop_
_atom_site_label
_atom_site_type_symbol
_atom_type_description
_atom_site_fract_x
_atom_site_fract_y
_atom_site_fract_z
_atom_type_partial_charge
C1    C     C_R   0.327501 0.949175 0.455562 0.066112
C2    C     C_R   0.314276 0.434235 0.000360 0.050461
C3    C     C_R   0.551238 0.427642 0.957771 0.029186
C4    C     C_R   0.015401 0.453267 0.586831 0.037088
C5    C     C_R   0.022487 0.533749 0.404935 0.037068
C6    C     C_R   0.063712 0.669795 0.540510 0.059731
C7    C     C_R   0.955836 0.325985 0.455794 0.064311
C8    C     C_R   0.452409 0.990693 0.453717 -0.051076
C9    C     C_R   0.547518 0.009378 0.546304 -0.051157
C10   C     C_R   0.997674 0.451946 0.452352 -0.052876
C11   C     C_R   0.036321 0.537073 0.540287 -0.053245
C12   C     C_R   0.456130 0.452946 0.986124 -0.051462
C13   C     C_R   0.548188 0.548854 0.004983 -0.051477
C14   C     C_R   0.964059 0.179306 0.437461 0.899895
C15   C     C_R   0.672467 0.050843 0.544453 0.065934
C16   C     C_R   0.037491 0.820656 0.562318 0.900643
C17   C     C_R   0.176053 0.430311 0.980611 0.909081
C18   C     C_R   0.825121 0.570437 0.016656 0.936101
C19   C     C_R   0.430173 0.981932 0.175428 0.916514
C20   C     C_R   0.569828 0.018058 0.824578 0.913837
C21   C     C_R   0.561953 0.820511 0.037783 0.910334
C22   C     C_R   0.438820 0.179405 0.960748 0.910993
C23   C     C_R   0.034793 0.563339 0.821114 0.917447
C24   C     C_R   0.977309 0.431992 0.176882 0.920756
C25   C     C_R   0.820878 0.036917 0.562297 0.897478
C26   C     C_R   0.992725 0.444181 0.313777 0.060815
C27   C     C_R   0.179119 0.963086 0.437702 0.895465
C28   C     C_R   0.405501 0.980482 0.407353 0.068180
C29   C     C_R   0.594451 0.019557 0.592665 0.068099
C30   C     C_R   0.980518 0.408236 0.407579 0.064599
C31   C     C_R   0.051211 0.581786 0.585569 0.066928
C32   C     C_R   0.409649 0.405838 0.976030 0.068077
C33   C     C_R   0.594092 0.595744 0.016057 0.069958
C34   C     C_R   0.276959 0.948908 0.405599 -0.118031
C35   C     C_R   0.723033 0.051081 0.594412 -0.119021
C36   C     C_R   0.972988 0.398773 0.271110 -0.103422
C37   C     C_R   0.051252 0.539426 0.676332 0.058695
C38   C     C_R   0.054687 0.591561 0.723578 -0.107485
C39   C     C_R   0.407450 0.277917 0.944059 -0.121621
C40   C     C_R   0.594645 0.722481 0.051476 -0.120849
C41   C     C_R   0.606330 0.019255 0.731025 -0.104294
C42   C     C_R   0.393663 0.980734 0.268988 -0.105199
C43   C     C_R   0.732026 0.607645 0.017264 -0.113411
C44   C     C_R   0.270301 0.393678 0.977407 -0.106215
C45   C     C_R   0.060442 0.720845 0.591894 -0.119357
C46   C     C_R   0.949771 0.277787 0.406608 -0.116259
C47   C     C_R   0.495937 0.951196 0.734872 -0.244646
C48   C     C_R   0.457955 0.328569 0.944178 0.061651
C49   C     C_R   0.504025 0.048826 0.265148 -0.244129
C50   C     C_R   0.077547 0.703772 0.446244 -0.243676
C51   C     C_R   0.941870 0.293366 0.550342 -0.241277
C52   C     C_R   0.737475 0.500505 0.945578 -0.246071
C53   C     C_R   0.266935 0.501734 0.046083 -0.247225
C54   C     C_R   0.303193 0.919552 0.550886 -0.243617
C55   C     C_R   0.696765 0.080475 0.449131 -0.243717
C56   C     C_R   0.553743 0.304751 0.914407 -0.250733
C57   C     C_R   0.449707 0.695763 0.078778 -0.250648
C58   C     C_R   0.024511 0.523358 0.267298 -0.252744
C59   C     C_R   0.545199 0.672190 0.049370 0.061704
C60   C     C_R   0.045604 0.447741 0.715866 -0.253899
C61   C     C_R   0.315953 0.954047 0.316169 -0.308147
C62   C     C_R   0.684050 0.045924 0.683846 -0.308405
C63   C     C_R   0.949430 0.319030 0.318660 -0.314576
C64   C     C_R   0.062929 0.678799 0.679704 -0.310593
C65   C     C_R   0.317489 0.317081 0.948973 -0.301883
C66   C     C_R   0.684446 0.683824 0.046312 -0.299425
C67   C     C_R   0.647693 0.074552 0.402851 0.111607
C68   C     C_R   0.352244 0.925502 0.597171 0.111707
C69   C     C_R   0.019041 0.409025 0.675667 0.103991
C70   C     C_R   0.564868 0.996347 0.687639 0.053193
C71   C     C_R   0.032332 0.571125 0.312655 0.106332
C72   C     C_R   0.403773 0.647278 0.071030 0.108617
C73   C     C_R   0.600315 0.354556 0.919886 0.109733
C74   C     C_R   0.550854 0.058784 0.310663 0.105714
C75   C     C_R   0.449085 0.941266 0.689361 0.105637
C76   C     C_R   0.312389 0.549891 0.054336 0.107631
C77   C     C_R   0.692342 0.453059 0.935232 0.107239
C78   C     C_R   0.966078 0.332092 0.592896 0.113265
C79   C     C_R   0.062653 0.660035 0.401406 0.114723
C80   C     C_R   0.671097 0.105597 0.308310 -0.203075
C81   C     C_R   0.435101 0.003670 0.312378 0.053208
C82   C     C_R   0.328848 0.894444 0.691713 -0.203504
C83   C     C_R   0.995475 0.326787 0.723387 -0.219801
C84   C     C_R   0.051847 0.655402 0.266101 -0.214658
C85   C     C_R   0.308913 0.670906 0.100312 -0.205604
C86   C     C_R   0.695294 0.332707 0.888094 -0.209412
C87   C     C_R   0.622739 0.098427 0.262704 -0.201383
C88   C     C_R   0.377209 0.901610 0.737320 -0.202025
C89   C     C_R   0.263881 0.622562 0.091747 -0.198743
C90   C     C_R   0.740855 0.382047 0.894990 -0.201404
C91   C     C_R   0.966199 0.290283 0.683266 -0.203209
C92   C     C_R   0.689284 0.567508 0.992298 0.047284
C93   C     C_R   0.068143 0.698988 0.309742 -0.199246
C94   C     C_R   0.526130 0.028199 0.405346 0.033027
C95   C     C_R   0.473793 0.971876 0.594677 0.033000
C96   C     C_R   0.992875 0.412505 0.543991 0.030624
C97   C     C_R   0.039499 0.577449 0.449195 0.030376
C98   C     C_R   0.407294 0.526046 0.023880 0.031166
C99   C     C_R   0.597278 0.476137 0.966534 0.031567
C100  C     C_R   0.573994 0.037051 0.451560 0.030024
C101  C     C_R   0.425928 0.963025 0.548463 0.030059
C102  C     C_R   0.453161 0.574286 0.032966 0.028723
H1    H     H_    0.281572 0.943486 0.281176 0.191729
H2    H     H_    0.911948 0.237961 0.592539 0.167580
H3    H     H_    0.809980 0.485315 0.915012 0.176042
H4    H     H_    0.194839 0.516527 0.078292 0.164262
H5    H     H_    0.248399 0.888405 0.589771 0.161653
H6    H     H_    0.751576 0.111598 0.410245 0.161648
H7    H     H_    0.592439 0.249817 0.883831 0.162523
H8    H     H_    0.410536 0.749531 0.110840 0.164078
H9    H     H_    0.048886 0.549122 0.195425 0.173596
H10   H     H_    0.062974 0.402747 0.776849 0.184581
H11   H     H_    0.357450 0.877296 0.810337 0.142973
H12   H     H_    0.718443 0.056462 0.718843 0.191899
H13   H     H_    0.642517 0.122714 0.189688 0.143105
H14   H     H_    0.083750 0.763642 0.272147 0.131389
H15   H     H_    0.946450 0.227860 0.721989 0.132432
H16   H     H_    0.814191 0.363598 0.870248 0.144792
H17   H     H_    0.191028 0.643253 0.112032 0.133043
H18   H     H_    0.272946 0.864735 0.730503 0.140878
H19   H     H_    0.727012 0.135288 0.269519 0.141237
H20   H     H_    0.734400 0.277391 0.858005 0.137496
H21   H     H_    0.269535 0.727102 0.129157 0.136740
H22   H     H_    0.052438 0.688637 0.196325 0.125663
H23   H     H_    0.938047 0.284366 0.284360 0.192004
H24   H     H_    0.997147 0.292150 0.792571 0.131076
H25   H     H_    0.062670 0.717785 0.717280 0.193998
H26   H     H_    0.282011 0.282916 0.938131 0.194982
H27   H     H_    0.719252 0.717604 0.058557 0.196816
H28   H     H_    0.479126 0.920529 0.807022 0.179575
H29   H     H_    0.520854 0.079467 0.192996 0.179476
H30   H     H_    0.101696 0.763254 0.405958 0.167259
O1    O     O_R   0.982940 0.138950 0.510160 -0.633397
O2    O     O_R   0.982940 0.510160 0.138950 -0.653840
O3    O     O_R   0.861050 0.017060 0.489840 -0.625864
O4    O     O_R   0.138950 0.982940 0.510160 -0.626494
O5    O     O_R   0.867700 0.025880 0.612340 -0.628255
O6    O     O_R   0.132300 0.974120 0.387660 -0.629333
O7    O     O_R   0.025880 0.612340 0.867700 -0.626525
O8    O     O_R   0.974120 0.387660 0.132300 -0.624527
O9    O     O_R   0.612340 0.867700 0.025880 -0.621677
O10   O     O_R   0.387660 0.132300 0.974120 -0.622638
O11   O     O_R   0.387660 0.974120 0.132300 -0.635380
O12   O     O_R   0.017060 0.861050 0.489840 -0.630522
O13   O     O_R   0.612340 0.025880 0.867700 -0.636241
O14   O     O_R   0.132300 0.387660 0.974120 -0.635698
O15   O     O_R   0.867700 0.612340 0.025880 -0.625116
O16   O     O_R   0.974120 0.132300 0.387660 -0.626619
O17   O     O_R   0.025880 0.867700 0.612340 -0.628424
O18   O     O_R   0.138950 0.510160 0.982940 -0.647302
O19   O     O_R   0.861050 0.489840 0.017060 -0.637491
O20   O     O_R   0.510160 0.982940 0.138950 -0.640019
O21   O     O_R   0.489840 0.017060 0.861050 -0.641345
O22   O     O_R   0.489840 0.861050 0.017060 -0.643475
O23   O     O_R   0.510160 0.138950 0.982940 -0.642355
O24   O     O_R   0.017060 0.489840 0.861050 -0.660072
Zn1   Zn    Zn3+2 0.004880 0.004880 0.583590 0.936331
Zn2   Zn    Zn3+2 0.995120 0.995120 0.416410 0.938074
Zn3   Zn    Zn3+2 0.004880 0.583590 0.004880 0.927596
Zn4   Zn    Zn3+2 0.995120 0.416410 0.995120 0.923335
Zn5   Zn    Zn3+2 0.583590 0.004880 0.004880 0.931844
Zn6   Zn    Zn3+2 0.416410 0.995120 0.995120 0.929248

loop_
_geom_bond_atom_site_label_1
_geom_bond_atom_site_label_2
_ccdc_geom_bond_type
O9    Zn5   S    
C6    C45   A    
C39   C65   A    
C74   C94   A    
C17   O18   A    
C82   H18   S    
O15   Zn3   S    
C50   C79   A    
C20   C41   S    
C75   C95   A    
C14   C46   S    
O23   Zn5   S    
C49   H29   S    
C24   C36   S    
C72   C102  A    
C54   H5    S    
C69   C83   A    
C27   O4    A    
C90   H16   S    
C23   O7    A    
C61   H1    S    
C62   H12   S    
C80   C87   A    
C58   C71   A    
C57   C59   A    
O14   Zn4   S    
C76   C98   A    
C14   O16   A    
C2    C32   A    
C49   C81   A    
C88   H11   S    
O6    Zn2   S    
C6    C31   A    
C3    C12   A    
C4    C96   A    
C53   H4    S    
C89   H17   S    
C78   C96   A    
C86   H20   S    
C1    C28   A    
C21   O22   A    
C91   H15   S    
C77   C99   A    
C16   O17   A    
C10   C96   A    
C74   C87   A    
C35   C62   A    
C36   C63   A    
C8    C101  A    
C9    C95   A    
O11   Zn6   S    
C12   C98   A    
O20   Zn5   S    
C19   C42   S    
C9    C29   A    
C76   C89   A    
C22   O23   A    
C66   H27   S    
O2    Zn3   S    
C11   C31   A    
C33   C59   A    
C40   C59   A    
C40   C66   A    
C23   O24   A    
C12   C32   A    
C32   C48   A    
C44   C65   A    
C42   C81   A    
C41   C62   A    
C3    C73   A    
C15   C35   A    
C4    C69   A    
C79   C97   A    
C1    C34   A    
C15   C29   A    
C38   C64   A    
C80   H19   S    
C27   C34   S    
C77   C90   A    
C27   O6    A    
O18   Zn3   S    
C47   H28   S    
C58   H9    S    
C7    C46   A    
O24   Zn4   S    
C8    C94   A    
C68   C101  A    
C18   O15   A    
C86   C90   A    
C33   C92   A    
C2    C44   A    
C85   C89   A    
C52   C77   A    
C51   H2    S    
C98   C102  A    
C34   C61   A    
C24   O8    A    
C31   C37   A    
C93   H14   S    
C15   C55   A    
C13   C99   A    
C25   O5    A    
C1    C54   A    
C65   H26   S    
C47   C70   A    
C13   C33   A    
C37   C38   A    
C60   H10   S    
C7    C51   A    
C10   C30   A    
C57   H8    S    
C94   C100  A    
C64   H25   S    
C22   O10   A    
C19   O20   A    
O16   Zn2   S    
C6    C50   A    
C4    C11   A    
C26   C58   A    
C42   C61   A    
C63   H23   S    
C50   H30   S    
C67   C100  A    
C25   C35   S    
O4    Zn1   S    
C26   C36   A    
C5    C97   A    
C52   H3    S    
C26   C30   A    
C9    C100  A    
C8    C28   A    
C52   C92   A    
C53   C76   A    
C83   H24   S    
O12   Zn2   S    
C18   O19   A    
C56   H7    S    
C71   C84   A    
C24   O2    A    
C48   C56   A    
C19   O11   A    
C56   C73   A    
C16   O12   A    
C28   C81   A    
C49   C74   A    
C87   H13   S    
O22   Zn6   S    
C67   C80   A    
C20   O21   A    
C47   C75   A    
C2    C53   A    
C16   C45   S    
O10   Zn6   S    
C55   C67   A    
C79   C93   A    
C14   O1    A    
C78   C91   A    
C84   H22   S    
C23   C38   S    
C83   C91   A    
O21   Zn6   S    
C45   C64   A    
C43   C92   A    
O5    Zn1   S    
C55   H6    S    
C11   C97   A    
C68   C82   A    
O19   Zn4   S    
C17   O14   A    
C17   C44   S    
C21   O9    A    
C5    C10   A    
C5    C71   A    
C18   C43   S    
O8    Zn4   S    
C72   C85   A    
C46   C63   A    
O13   Zn5   S    
C60   C69   A    
C43   C66   A    
C82   C88   A    
C22   C39   S    
C85   H21   S    
C29   C70   A    
O1    Zn1   S    
C84   C93   A    
C57   C72   A    
C25   O3    A    
C73   C86   A    
C51   C78   A    
C37   C60   A    
O7    Zn3   S    
C3    C99   A    
C75   C88   A    
C54   C68   A    
C7    C30   A    
O3    Zn2   S    
C20   O13   A    
C41   C70   A    
C13   C102  A    
O17   Zn1   S    
C95   C101  A    
C39   C48   A    
C21   C40   S    
