data_str_m2_o12_o29_f0_pcu.sym.28
_audit_creation_date              2012-10-26T18:28:19-0400
_audit_creation_method            fapswitch 2.2
_symmetry_space_group_name_H-M    P1
_symmetry_Int_Tables_number       1
_space_group_crystal_system       triclinic
_cell_length_a                    27.654948
_cell_length_b                    10.972825
_cell_length_c                    10.00924
_cell_angle_alpha                 111.155819
_cell_angle_beta                  98.293178
_cell_angle_gamma                 93.604208
_cell_volume                      2781.1849412

loop_
_atom_site_label
_atom_site_type_symbol
_atom_type_description
_atom_site_fract_x
_atom_site_fract_y
_atom_site_fract_z
_atom_type_partial_charge
C1    C     C_R   0.497344 0.254248 0.440200 0.552617
C2    C     C_R   0.867141 0.339538 0.475935 0.007201
C3    C     C_R   0.354144 0.495404 0.497105 -0.040766
C4    C     C_R   0.644503 0.487399 0.497297 -0.005382
C5    C     C_R   0.968236 0.332701 0.453592 0.023592
C6    C     C_R   0.018155 0.522400 0.374903 0.015521
C7    C     C_R   0.969070 0.533818 0.400208 0.047986
C8    C     C_R   0.020613 0.350462 0.477190 0.053559
C9    C     C_R   0.943570 0.435166 0.433715 0.018278
C10   C     C_R   0.045307 0.442175 0.431925 0.017069
C11   C     C_R   0.939840 0.219980 0.453982 -0.000652
C12   C     C_R   0.505487 0.746079 0.559276 0.550605
C13   C     C_R   0.041516 0.590807 0.300060 -0.016452
C14   C     C_R   0.889975 0.225683 0.471755 -0.009355
C15   C     C_R   0.093525 0.605125 0.315304 -0.006541
C16   C     C_R   0.407590 0.499753 0.500033 0.545017
C17   C     C_R   0.592139 0.497916 0.499335 0.545959
C18   C     C_R   0.049049 0.287129 0.554599 -0.080734
C19   C     C_R   0.946135 0.645779 0.404220 -0.086552
C20   C     C_2   0.496089 0.113499 0.405569 -0.119704
C21   C     C_2   0.514298 0.886668 0.590145 -0.137287
C22   C     C_2   0.514883 0.069109 0.507108 -0.158645
C23   C     C_R   0.097240 0.455341 0.446881 -0.042564
C24   C     C_2   0.506001 0.929958 0.480924 -0.174043
C25   C     C_2   0.509438 0.494511 0.074396 0.014143
C26   C     C_2   0.496989 0.480420 0.916268 0.015643
C27   C     C_R   0.175707 0.394920 0.529796 0.403813
C28   C     C_R   0.821666 0.557115 0.460235 0.424391
C29   C     C_R   0.174143 0.552049 0.415630 0.368229
C30   C     C_R   0.817706 0.353571 0.496515 0.442191
C31   C     C_R   0.284253 0.548881 0.620850 0.028041
C32   C     C_R   0.708877 0.380965 0.375037 0.000522
C33   C     C_R   0.335179 0.556108 0.624051 -0.174178
C34   C     C_R   0.893758 0.441259 0.450665 -0.038129
C35   C     C_R   0.659008 0.392237 0.379082 -0.152064
C36   C     C_R   0.321766 0.428406 0.365167 -0.120432
C37   C     C_R   0.679878 0.567842 0.616558 -0.182065
C38   C     C_R   0.270750 0.420851 0.358254 0.035803
C39   C     C_R   0.730069 0.557364 0.617097 0.042957
C40   C     C_R   0.251755 0.482748 0.486663 0.203274
C41   C     C_R   0.744875 0.465348 0.493521 0.245522
C42   C     C_R   0.462502 0.360644 0.819509 0.096098
C43   C     C_R   0.474660 0.235044 0.807726 -0.069288
C44   C     C_R   0.439275 0.124059 0.740866 -0.091002
C45   C     C_R   0.124447 0.383361 0.516427 0.033213
C46   C     C_R   0.391635 0.136523 0.683491 -0.077975
C47   C     C_R   0.378481 0.260934 0.699842 -0.092643
C48   C     C_R   0.413232 0.372108 0.771933 -0.054591
C49   C     C_R   0.562576 0.534634 0.139297 0.086651
C50   C     C_R   0.597351 0.454351 0.076314 -0.078454
C51   C     C_R   0.647688 0.499062 0.119307 -0.111824
C52   C     C_R   0.664015 0.623127 0.227736 -0.090387
C53   C     C_R   0.629906 0.703981 0.290979 -0.107857
C54   C     C_R   0.579451 0.661076 0.245361 -0.060838
C55   C     C_2   0.540290 0.686572 0.954490 0.395736
C56   C     C_R   0.870878 0.550996 0.444290 0.037396
C57   C     C_2   0.427471 0.439478 0.089108 0.411564
C58   C     C_2   0.237496 0.345286 0.217248 0.263313
C59   C     C_2   0.765353 0.643105 0.749577 0.276067
C60   C     C_R   0.722494 0.278885 0.246796 0.039924
C61   C     C_R   0.704957 0.145642 0.209282 -0.056727
C62   C     C_R   0.718067 0.048506 0.089559 -0.081836
C63   C     C_R   0.748517 0.083614 0.005972 -0.080562
C64   C     C_R   0.765715 0.215975 0.041583 -0.097554
C65   C     C_R   0.752685 0.313391 0.161186 -0.106072
C66   C     C_R   0.265919 0.606825 0.759639 0.053978
C67   C     C_R   0.100040 0.301910 0.572160 -0.086579
C68   C     C_R   0.281023 0.565354 0.874990 -0.069735
C69   C     C_R   0.263167 0.617133 0.005341 -0.077403
C70   C     C_R   0.230378 0.711168 0.021940 -0.060780
C71   C     C_R   0.215559 0.753961 0.908438 -0.095026
C72   C     C_R   0.233334 0.702450 0.777867 -0.081603
C73   C     C_2   0.861806 0.109351 0.479130 0.259604
C74   C     C_2   0.117221 0.682654 0.242380 0.250957
C75   C     C_2   0.959757 0.090933 0.419083 0.250215
C76   C     C_2   0.012052 0.634565 0.192366 0.267596
C77   C     C_R   0.897649 0.653358 0.423770 -0.084708
C78   C     C_R   0.121925 0.540847 0.394180 -0.000820
Cu1   Cu    Cu3+1 0.508480 0.521810 0.644910 0.996791
Cu2   Cu    Cu3+1 0.491520 0.478190 0.355090 0.985973
H1    H     H_    0.336369 0.379593 0.267358 0.213822
H2    H     H_    0.965914 0.730927 0.397503 0.124324
H3    H     H_    0.490344 0.862688 0.370765 0.146309
H4    H     H_    0.534676 0.136435 0.612570 0.153004
H5    H     H_    0.511014 0.223440 0.854497 0.083130
H6    H     H_    0.448377 0.028459 0.735845 0.115357
H7    H     H_    0.364471 0.050403 0.631333 0.126421
H8    H     H_    0.340862 0.271945 0.662650 0.135943
H9    H     H_    0.400972 0.468065 0.800378 0.092878
H10   H     H_    0.585495 0.358574 0.990936 0.093512
H11   H     H_    0.674011 0.437309 0.068358 0.120943
H12   H     H_    0.668201 0.639111 0.709635 0.131036
H13   H     H_    0.703048 0.656941 0.261800 0.163209
H14   H     H_    0.642503 0.801173 0.372977 0.120465
H15   H     H_    0.553775 0.728342 0.288450 0.109826
H16   H     H_    0.525000 0.738281 0.050526 0.033471
H17   H     H_    0.412905 0.518348 0.060738 0.032462
H18   H     H_    0.198109 0.328202 0.212141 0.136666
H19   H     H_    0.752551 0.722505 0.832889 0.090797
H20   H     H_    0.681586 0.116957 0.273684 0.122104
H21   H     H_    0.704672 0.945980 0.061700 0.128904
H22   H     H_    0.758636 0.008306 0.913337 0.128139
H23   H     H_    0.528490 0.954446 0.701077 0.107715
H24   H     H_    0.789017 0.243172 0.976174 0.144258
H25   H     H_    0.765633 0.415564 0.185779 0.134069
H26   H     H_    0.306112 0.491713 0.863247 0.123541
H27   H     H_    0.274661 0.584117 0.093352 0.157875
H28   H     H_    0.216572 0.751135 0.122880 0.163481
H29   H     H_    0.190353 0.827303 0.921745 0.138315
H30   H     H_    0.221951 0.737753 0.691715 0.146503
H31   H     H_    0.849851 0.115134 0.579604 0.150602
H32   H     H_    0.140208 0.775054 0.306968 0.140230
H33   H     H_    0.948698 0.022425 0.467941 0.114427
H34   H     H_    0.477972 0.045761 0.298016 0.106685
H35   H     H_    0.025031 0.722935 0.176596 0.150228
H36   H     H_    0.120301 0.249723 0.630748 0.172037
H37   H     H_    0.881375 0.740720 0.424048 0.188447
H38   H     H_    0.631359 0.327095 0.288984 0.127598
H39   H     H_    0.359939 0.611230 0.725681 0.115777
H40   H     H_    0.032338 0.229070 0.606957 0.123563
N1    N     N_R   0.199311 0.478004 0.479679 -0.412314
N2    N     N_R   0.796237 0.459352 0.485473 -0.363265
N3    N     N_2   0.478780 0.445430 0.137360 -0.242112
N4    N     N_2   0.521220 0.554570 0.862640 -0.239897
O1    O     O_R   0.504520 0.332330 0.577400 -0.499627
O2    O     O_2   0.799029 0.659535 0.449399 -0.506720
O3    O     O_2   0.790892 0.263353 0.527174 -0.498475
O4    O     O_2   0.200086 0.635120 0.372806 -0.527916
O5    O     O_2   0.573606 0.744114 0.924014 -0.495505
O6    O     O_2   0.399341 0.345762 0.080750 -0.486729
O7    O     O_2   0.253715 0.300509 0.104381 -0.497217
O8    O     O_2   0.808443 0.625039 0.769889 -0.454321
O9    O     O_2   0.851595 0.006940 0.372370 -0.475105
O10   O     O_2   0.111394 0.642736 0.109707 -0.492123
O11   O     O_2   0.987562 0.058342 0.331415 -0.487234
O12   O     O_R   0.495480 0.667670 0.422600 -0.529755
O13   O     O_2   0.973626 0.569578 0.117017 -0.461359
O14   O     O_R   0.490210 0.295500 0.332650 -0.472121
O15   O     O_R   0.509790 0.704500 0.667350 -0.458767
O16   O     O_R   0.437420 0.518430 0.622370 -0.520136
O17   O     O_R   0.562580 0.481570 0.377630 -0.503077
O18   O     O_R   0.423110 0.481600 0.377610 -0.473870
O19   O     O_R   0.576890 0.518400 0.622390 -0.465914
O20   O     O_2   0.201882 0.322764 0.591127 -0.491718

loop_
_geom_bond_atom_site_label_1
_geom_bond_atom_site_label_2
_ccdc_geom_bond_type
C31   C66   S    
Cu1   O15   S    
C34   C56   A    
C23   C45   A    
C59   H19   S    
C66   C68   A    
C58   H18   S    
C43   C44   A    
C27   N1    A    
C39   C41   A    
C76   O13   D    
C40   N1    S    
C68   H26   S    
C38   C40   A    
C24   H3    S    
C1    O1    A    
C5    C11   A    
C77   H37   S    
C74   H32   S    
C11   C14   A    
C75   O11   D    
C15   C78   A    
C3    C33   A    
C49   C54   A    
C74   O10   D    
C76   H35   S    
C31   C40   A    
C17   O17   A    
C19   C77   A    
C51   H11   S    
C46   C47   A    
C50   H10   S    
C66   C72   A    
C29   C78   A    
C30   N2    A    
C28   O2    S    
C68   C69   A    
C55   O5    D    
C29   N1    A    
C45   C67   A    
C32   C41   A    
C31   C33   A    
C70   C71   A    
C75   H33   S    
C19   H2    S    
C58   O7    D    
C61   C62   A    
C62   H21   S    
C2    C34   A    
Cu1   O16   S    
Cu1   O1    S    
C4    C35   A    
C57   H17   S    
C38   C58   S    
C16   O16   A    
C26   N4    D    
C63   H22   S    
C44   H6    S    
C65   H25   S    
C44   C46   A    
C73   H31   S    
C28   C56   A    
C72   H30   S    
C59   O8    D    
C51   C52   A    
C43   H5    S    
C32   C35   A    
C57   O6    D    
C50   C51   A    
C25   C26   S    
C53   C54   A    
C12   C21   S    
C8    C18   A    
C56   C77   A    
Cu1   Cu2   S    
C60   C61   A    
C22   H4    S    
C41   N2    S    
C16   O18   A    
C67   H36   S    
C14   C73   S    
C5    C9    A    
C62   C63   A    
Cu1   O19   S    
C57   N3    S    
C47   C48   A    
C13   C76   S    
C36   H1    S    
C39   C59   S    
C27   O20   S    
C12   O15   A    
C52   H13   S    
C42   C48   A    
C25   N3    D    
C54   H15   S    
C4    C17   S    
C20   C22   D    
C60   C65   A    
C33   H39   S    
C7    C19   A    
C48   H9    S    
C13   C15   A    
C12   O12   A    
C9    C34   A    
C22   C24   S    
C21   C24   D    
C61   H20   S    
C42   C43   A    
C32   C60   S    
C18   H40   S    
C52   C53   A    
C26   C42   S    
C46   H7    S    
C64   H24   S    
C30   O3    S    
C1    C20   S    
C37   H12   S    
C53   H14   S    
C73   O9    D    
C55   H16   S    
C6    C10   A    
C5    C8    A    
C6    C7    A    
C10   C23   A    
Cu1   N4    S    
Cu2   O18   S    
Cu2   O12   S    
C17   O19   A    
C2    C30   A    
C64   C65   A    
C36   C38   A    
C18   C67   A    
C71   C72   A    
C37   C39   A    
C70   H28   S    
C47   H8    S    
C6    C13   A    
C20   H34   S    
C27   C45   A    
C3    C36   A    
Cu2   O14   S    
C71   H29   S    
C28   N2    A    
C23   C78   A    
C69   C70   A    
C2    C14   A    
C69   H27   S    
C25   C49   S    
C3    C16   S    
C63   C64   A    
C21   H23   S    
C7    C9    A    
C15   C74   S    
C4    C37   A    
C8    C10   A    
C49   C50   A    
C55   N4    S    
C29   O4    S    
C35   H38   S    
C11   C75   S    
Cu2   O17   S    
C1    O14   A    
Cu2   N3    S    
