data_str_m3_o38_o38_f0_fof.sym.73
_audit_creation_date              2012-12-10T16:32:41-0500
_audit_creation_method            fapswitch 2.2
_symmetry_space_group_name_H-M    P1
_symmetry_Int_Tables_number       1
_space_group_crystal_system       triclinic
_cell_length_a                    17.003942
_cell_length_b                    17.003848
_cell_length_c                    17.00401
_cell_angle_alpha                 65.850954
_cell_angle_beta                  65.852233
_cell_angle_gamma                 65.851568
_cell_volume                      3917.25797645

loop_
_atom_site_label
_atom_site_type_symbol
_atom_type_description
_atom_site_fract_x
_atom_site_fract_y
_atom_site_fract_z
_atom_type_partial_charge
C1    C     C_R   0.586364 0.032282 0.593736 -0.036595
C2    C     C_R   0.821468 0.562957 0.035740 0.883736
C3    C     C_R   0.189899 0.688485 0.046793 -0.104553
C4    C     C_R   0.222799 0.690766 0.956235 -0.132280
C5    C     C_R   0.267747 0.610978 0.932138 -0.104619
C6    C     C_R   0.288109 0.913318 0.559422 0.138329
C7    C     C_R   0.273070 0.828450 0.606240 -0.164740
C8    C     C_R   0.220611 0.810607 0.696230 -0.119797
C9    C     C_R   0.181983 0.877713 0.739418 -0.138964
C10   C     C_R   0.198726 0.961186 0.693979 -0.153775
C11   C     C_R   0.252778 0.978673 0.604720 -0.069028
C12   C     C_R   0.724424 0.003372 0.467957 0.165418
C13   C     C_R   0.433189 0.973118 0.177903 0.895682
C14   C     C_R   0.750369 0.914421 0.465751 -0.123328
C15   C     C_R   0.798505 0.893457 0.384515 -0.132710
C16   C     C_R   0.827565 0.959298 0.306951 -0.113166
C17   C     C_R   0.802868 0.047421 0.309218 -0.126862
C18   C     C_R   0.747952 0.070647 0.388322 -0.087907
C19   C     C_R   0.559423 0.288114 0.913298 0.138319
C20   C     C_R   0.606221 0.273064 0.828435 -0.164744
C21   C     C_R   0.696208 0.220596 0.810584 -0.119787
C22   C     C_R   0.739413 0.181970 0.877676 -0.138954
C23   C     C_R   0.693998 0.198729 0.961142 -0.153802
C24   C     C_R   0.562959 0.035735 0.821468 0.883741
C25   C     C_R   0.604742 0.252787 0.978637 -0.069058
C26   C     C_R   0.467950 0.724417 0.003389 0.165423
C27   C     C_R   0.465739 0.750360 0.914440 -0.123324
C28   C     C_R   0.384501 0.798495 0.893476 -0.132745
C29   C     C_R   0.306941 0.827565 0.959313 -0.113181
C30   C     C_R   0.309214 0.802872 0.047433 -0.126860
C31   C     C_R   0.388318 0.747952 0.070661 -0.087906
C32   C     C_R   0.913301 0.559428 0.288106 0.138321
C33   C     C_R   0.828440 0.606231 0.273048 -0.164737
C34   C     C_R   0.810591 0.696221 0.220584 -0.119776
C35   C     C_R   0.566374 0.822055 0.027548 0.895366
C36   C     C_R   0.877683 0.739425 0.181970 -0.138947
C37   C     C_R   0.961147 0.694004 0.198736 -0.153803
C38   C     C_R   0.978640 0.604744 0.252791 -0.069065
C39   C     C_R   0.003407 0.467937 0.724418 0.165392
C40   C     C_R   0.914460 0.465722 0.750355 -0.123286
C41   C     C_R   0.893493 0.384489 0.798522 -0.132686
C42   C     C_R   0.959324 0.306937 0.827625 -0.113198
C43   C     C_R   0.047441 0.309213 0.802942 -0.126872
C44   C     C_R   0.070674 0.388310 0.747988 -0.087895
C45   C     C_R   0.437610 0.178441 0.962642 0.887458
C46   C     C_R   0.027551 0.566373 0.822055 0.895369
C47   C     C_R   0.962642 0.437610 0.178440 0.887438
C48   C     C_R   0.822057 0.027545 0.566374 0.895371
C49   C     C_R   0.178440 0.962644 0.437610 0.887432
C50   C     C_R   0.537282 0.014427 0.550478 0.130196
C51   C     C_R   0.406066 0.961111 0.416468 -0.034607
C52   C     C_R   0.448244 0.978833 0.466468 0.126230
C53   C     C_R   0.014451 0.550469 0.537273 0.130181
C54   C     C_R   0.978840 0.466470 0.448236 0.126227
C55   C     C_R   0.550474 0.537272 0.014446 0.130180
C56   C     C_R   0.466469 0.448236 0.978843 0.126232
C57   C     C_R   0.484286 0.085692 0.497849 -0.158851
C58   C     C_R   0.499259 0.907617 0.521031 -0.167184
C59   C     C_R   0.925389 0.563394 0.542800 -0.200503
C60   C     C_R   0.067993 0.456775 0.439413 -0.188667
C61   C     C_R   0.497856 0.484263 0.085707 -0.158877
C62   C     C_R   0.032313 0.593725 0.586352 -0.036590
C63   C     C_R   0.521019 0.499264 0.907631 -0.167190
C64   C     C_R   0.439417 0.067984 0.456784 -0.188654
C65   C     C_R   0.542809 0.925366 0.563399 -0.200456
C66   C     C_R   0.456793 0.439396 0.067995 -0.188675
C67   C     C_R   0.563383 0.542813 0.925384 -0.200482
C68   C     C_R   0.907631 0.521034 0.499249 -0.167191
C69   C     C_R   0.085709 0.497836 0.484280 -0.158881
C70   C     C_R   0.542525 0.051646 0.676678 -0.039969
C71   C     C_R   0.443409 0.973837 0.322793 -0.050815
C72   C     C_R   0.051674 0.676672 0.542512 -0.039940
C73   C     C_R   0.961108 0.416472 0.406061 -0.034611
C74   C     C_R   0.973830 0.322797 0.443410 -0.050818
C75   C     C_R   0.676676 0.542510 0.051669 -0.039942
C76   C     C_R   0.322793 0.443405 0.973844 -0.050812
C77   C     C_R   0.324595 0.938810 0.459805 -0.036620
C78   C     C_R   0.678717 0.024931 0.554822 -0.048295
C79   C     C_R   0.459806 0.324595 0.938806 -0.036605
C80   C     C_R   0.554817 0.678709 0.024948 -0.048289
C81   C     C_R   0.938805 0.459809 0.324592 -0.036597
C82   C     C_R   0.024961 0.554808 0.678708 -0.048281
C83   C     C_R   0.594357 0.051916 0.724482 -0.105549
C84   C     C_R   0.593732 0.586351 0.032304 -0.036586
C85   C     C_R   0.398979 0.962324 0.274401 -0.108224
C86   C     C_R   0.051933 0.724478 0.594350 -0.105555
C87   C     C_R   0.962320 0.274403 0.398980 -0.108221
C88   C     C_R   0.724480 0.594348 0.051931 -0.105556
C89   C     C_R   0.274400 0.398979 0.962327 -0.108229
C90   C     C_R   0.275701 0.943740 0.406379 -0.106035
C91   C     C_R   0.725813 0.037614 0.599972 -0.106176
C92   C     C_R   0.406378 0.275702 0.943737 -0.106039
C93   C     C_R   0.599969 0.725807 0.037626 -0.106183
C94   C     C_R   0.943735 0.406381 0.275700 -0.106037
C95   C     C_R   0.416468 0.406061 0.961116 -0.034607
C96   C     C_R   0.037633 0.599964 0.725806 -0.106182
C97   C     C_R   0.682404 0.052214 0.683010 -0.299355
C98   C     C_R   0.316305 0.946870 0.317340 -0.297278
C99   C     C_R   0.052231 0.683004 0.682396 -0.299364
C100  C     C_R   0.946868 0.317340 0.316306 -0.297294
C101  C     C_R   0.683007 0.682396 0.052228 -0.299361
C102  C     C_R   0.317339 0.316306 0.946870 -0.297273
C103  C     C_R   0.443403 0.070687 0.713017 0.153384
C104  C     C_R   0.389354 0.155729 0.724433 -0.150179
C105  C     C_R   0.296261 0.172099 0.762846 -0.126226
C106  C     C_R   0.973117 0.177903 0.433190 0.895682
C107  C     C_R   0.257036 0.103769 0.789509 -0.145028
C108  C     C_R   0.310606 0.019591 0.777846 -0.154174
C109  C     C_R   0.403478 0.002588 0.740541 -0.075855
C110  C     C_R   0.528118 0.999205 0.277465 0.173937
C111  C     C_R   0.525920 0.090250 0.243968 -0.127974
C112  C     C_R   0.606259 0.113666 0.202195 -0.136751
C113  C     C_R   0.688496 0.046776 0.189900 -0.104569
C114  C     C_R   0.690770 0.956217 0.222812 -0.132279
C115  C     C_R   0.610980 0.932124 0.267758 -0.104631
C116  C     C_R   0.070710 0.713026 0.443389 0.153320
C117  C     C_R   0.035740 0.821467 0.562957 0.883736
C118  C     C_R   0.155717 0.724553 0.389349 -0.150071
C119  C     C_R   0.172054 0.763058 0.296267 -0.126154
C120  C     C_R   0.103731 0.789693 0.257039 -0.145009
C121  C     C_R   0.019597 0.777898 0.310595 -0.154196
C122  C     C_R   0.002622 0.740516 0.403458 -0.075923
C123  C     C_R   0.999175 0.277474 0.528132 0.173966
C124  C     C_R   0.090213 0.243957 0.525957 -0.127926
C125  C     C_R   0.113605 0.202196 0.606309 -0.136789
C126  C     C_R   0.046697 0.189938 0.688536 -0.104559
C127  C     C_R   0.956145 0.222878 0.690788 -0.132291
C128  C     C_R   0.177902 0.433189 0.973120 0.895687
C129  C     C_R   0.932076 0.267805 0.610983 -0.104708
C130  C     C_R   0.713029 0.443386 0.070705 0.153322
C131  C     C_R   0.724562 0.389343 0.155711 -0.150065
C132  C     C_R   0.763064 0.296260 0.172048 -0.126157
C133  C     C_R   0.789688 0.257033 0.103728 -0.145009
C134  C     C_R   0.777886 0.310593 0.019596 -0.154207
C135  C     C_R   0.740510 0.403456 0.002619 -0.075933
C136  C     C_R   0.277464 0.528112 0.999216 0.173942
C137  C     C_R   0.243977 0.525907 0.090260 -0.127981
C138  C     C_R   0.202203 0.606244 0.113680 -0.136749
H1    H     H_    0.581082 0.869626 0.606279 0.118240
H2    H     H_    0.488475 0.477991 0.154729 0.125259
H3    H     H_    0.123790 0.416342 0.398624 0.120206
H4    H     H_    0.869654 0.606278 0.581072 0.118245
H5    H     H_    0.719517 0.057090 0.718905 0.189645
H6    H     H_    0.279872 0.944264 0.279340 0.191930
H7    H     H_    0.057100 0.718901 0.719511 0.189648
H8    H     H_    0.944262 0.279339 0.279873 0.191933
H9    H     H_    0.718903 0.719511 0.057100 0.189642
H10   H     H_    0.279338 0.279874 0.944262 0.191946
H11   H     H_    0.419451 0.208661 0.704603 0.107452
H12   H     H_    0.398622 0.123786 0.416358 0.120197
H13   H     H_    0.255088 0.237372 0.772441 0.117936
H14   H     H_    0.185477 0.114687 0.820165 0.102971
H15   H     H_    0.280151 0.967090 0.798820 0.122071
H16   H     H_    0.444597 0.936122 0.734421 0.114227
H17   H     H_    0.462260 0.142656 0.251139 0.104235
H18   H     H_    0.604927 0.183503 0.179263 0.125414
H19   H     H_    0.750684 0.064905 0.155979 0.100871
H20   H     H_    0.754467 0.904664 0.214924 0.113870
H21   H     H_    0.613518 0.861649 0.293755 0.106004
H22   H     H_    0.208638 0.704759 0.419449 0.107415
H23   H     H_    0.154732 0.488441 0.478020 0.125256
H24   H     H_    0.237291 0.772763 0.255103 0.117918
H25   H     H_    0.114611 0.820436 0.185493 0.102946
H26   H     H_    0.967105 0.798847 0.280138 0.122056
H27   H     H_    0.936176 0.734332 0.444566 0.114257
H28   H     H_    0.142631 0.251104 0.462306 0.104229
H29   H     H_    0.183437 0.179246 0.604996 0.125426
H30   H     H_    0.064807 0.156022 0.750735 0.100859
H31   H     H_    0.904579 0.215027 0.754477 0.113913
H32   H     H_    0.861607 0.293824 0.613502 0.106014
H33   H     H_    0.704776 0.419442 0.208630 0.107410
H34   H     H_    0.838596 0.530067 0.505881 0.126278
H35   H     H_    0.772774 0.255094 0.237284 0.117917
H36   H     H_    0.820428 0.185487 0.114608 0.102946
H37   H     H_    0.798825 0.280137 0.967106 0.122053
H38   H     H_    0.734322 0.444567 0.936173 0.114259
H39   H     H_    0.251155 0.462244 0.142663 0.104239
H40   H     H_    0.179278 0.604907 0.183516 0.125415
H41   H     H_    0.155978 0.750672 0.064925 0.100875
H42   H     H_    0.214903 0.754466 0.904685 0.113857
H43   H     H_    0.293736 0.613520 0.861664 0.105995
H44   H     H_    0.298463 0.777797 0.571787 0.109682
H45   H     H_    0.606258 0.581094 0.869646 0.118246
H46   H     H_    0.207365 0.745948 0.731450 0.122196
H47   H     H_    0.137746 0.865872 0.807540 0.105540
H48   H     H_    0.167926 0.013012 0.727481 0.114586
H49   H     H_    0.262208 0.044748 0.568962 0.114817
H50   H     H_    0.734228 0.861354 0.526788 0.105105
H51   H     H_    0.814961 0.825769 0.382197 0.119351
H52   H     H_    0.868045 0.942759 0.244466 0.096997
H53   H     H_    0.827288 0.097232 0.249954 0.101365
H54   H     H_    0.729229 0.139318 0.389320 0.100309
H55   H     H_    0.571753 0.298453 0.777793 0.109679
H56   H     H_    0.416374 0.398592 0.123794 0.120201
H57   H     H_    0.731410 0.207340 0.745930 0.122206
H58   H     H_    0.807532 0.137724 0.865830 0.105556
H59   H     H_    0.727514 0.167932 0.012957 0.114580
H60   H     H_    0.569001 0.262225 0.044708 0.114834
H61   H     H_    0.526774 0.734218 0.861374 0.105101
H62   H     H_    0.382179 0.814946 0.825791 0.119355
H63   H     H_    0.244457 0.868049 0.942770 0.097004
H64   H     H_    0.249953 0.827299 0.097241 0.101366
H65   H     H_    0.389320 0.729232 0.139330 0.100307
H66   H     H_    0.777799 0.571765 0.298429 0.109673
H67   H     H_    0.505891 0.838583 0.530056 0.126276
H68   H     H_    0.745939 0.731427 0.207322 0.122197
H69   H     H_    0.865840 0.807546 0.137727 0.105543
H70   H     H_    0.012962 0.727518 0.167949 0.114582
H71   H     H_    0.044709 0.569000 0.262235 0.114838
H72   H     H_    0.861397 0.526753 0.734192 0.105107
H73   H     H_    0.825808 0.382165 0.814973 0.119334
H74   H     H_    0.942779 0.244457 0.868130 0.097000
H75   H     H_    0.097238 0.249964 0.827413 0.101371
H76   H     H_    0.139339 0.389318 0.729280 0.100280
H77   H     H_    0.478024 0.154713 0.488461 0.125257
H78   H     H_    0.530038 0.505906 0.838596 0.126278
O1    O     O_R   0.982940 0.138950 0.510160 -0.620489
O2    O     O_R   0.982940 0.510160 0.138950 -0.610896
O3    O     O_R   0.861050 0.017060 0.489840 -0.620222
O4    O     O_R   0.138950 0.982940 0.510160 -0.610904
O5    O     O_R   0.867700 0.025880 0.612340 -0.632868
O6    O     O_R   0.132300 0.974120 0.387660 -0.632803
O7    O     O_R   0.025880 0.612340 0.867700 -0.632867
O8    O     O_R   0.974120 0.387660 0.132300 -0.632807
O9    O     O_R   0.612340 0.867700 0.025880 -0.632867
O10   O     O_R   0.387660 0.132300 0.974120 -0.632804
O11   O     O_R   0.387660 0.974120 0.132300 -0.633208
O12   O     O_R   0.017060 0.861050 0.489840 -0.615742
O13   O     O_R   0.612340 0.025880 0.867700 -0.627994
O14   O     O_R   0.132300 0.387660 0.974120 -0.633204
O15   O     O_R   0.867700 0.612340 0.025880 -0.627997
O16   O     O_R   0.974120 0.132300 0.387660 -0.633208
O17   O     O_R   0.025880 0.867700 0.612340 -0.627996
O18   O     O_R   0.138950 0.510160 0.982940 -0.620495
O19   O     O_R   0.861050 0.489840 0.017060 -0.615741
O20   O     O_R   0.510160 0.982940 0.138950 -0.620489
O21   O     O_R   0.489840 0.017060 0.861050 -0.615772
O22   O     O_R   0.489840 0.861050 0.017060 -0.620224
O23   O     O_R   0.510160 0.138950 0.982940 -0.610893
O24   O     O_R   0.017060 0.489840 0.861050 -0.620210
Zn1   Zn    Zn3+2 0.004880 0.004880 0.583590 0.970263
Zn2   Zn    Zn3+2 0.995120 0.995120 0.416410 0.970383
Zn3   Zn    Zn3+2 0.004880 0.583590 0.004880 0.970263
Zn4   Zn    Zn3+2 0.995120 0.416410 0.995120 0.970395
Zn5   Zn    Zn3+2 0.583590 0.004880 0.004880 0.970262
Zn6   Zn    Zn3+2 0.416410 0.995120 0.995120 0.970369

loop_
_geom_bond_atom_site_label_1
_geom_bond_atom_site_label_2
_ccdc_geom_bond_type
C56   C95   S    
C47   O8    A    
C96   C99   A    
C117  O12   A    
C126  C127  A    
C49   O6    A    
C5    C136  A    
C41   C42   A    
C118  H22   S    
C111  C112  A    
C49   C90   S    
C80   C84   A    
C53   C69   A    
C51   C77   A    
C114  C115  A    
C76   C136  S    
C7    C8    A    
O5    Zn1   S    
C34   H68   S    
C32   C81   S    
C105  C107  A    
C131  H33   S    
C26   C27   A    
C28   H62   S    
C116  C122  A    
C45   O23   A    
O16   Zn2   S    
C28   C29   A    
C125  H29   S    
C24   C83   S    
C69   H23   S    
C113  C114  A    
C126  H30   S    
C76   C95   A    
C30   C31   A    
C59   C68   A    
C75   C84   A    
C54   C68   A    
C48   O5    A    
C15   C16   A    
C71   C110  S    
C40   H72   S    
O24   Zn4   S    
C108  C109  A    
C17   C18   A    
C73   C74   A    
C73   C81   A    
C45   C92   S    
C3    H41   S    
C118  C119  A    
C97   H5    S    
C85   C98   A    
C103  C104  A    
C120  H25   S    
C102  H10   S    
C110  C111  A    
C61   C66   A    
C80   C93   A    
C114  H20   S    
C108  H15   S    
C57   H77   S    
C59   H4    S    
C100  H8    S    
C8    C9    A    
C48   C91   S    
C12   C78   S    
C107  C108  A    
C2    C88   S    
C25   H60   S    
C46   O24   A    
C74   C87   A    
O9    Zn5   S    
C137  H39   S    
C9    C10   A    
C31   H65   S    
C75   C130  S    
C92   C102  A    
O18   Zn3   S    
C45   O10   A    
O13   Zn5   S    
C8    H46   S    
C74   C123  S    
C99   H7    S    
C137  C138  A    
C26   C31   A    
C38   H71   S    
C122  H27   S    
C71   C85   A    
C21   C22   A    
C123  C129  A    
C128  O18   A    
C1    C78   A    
C22   H58   S    
C35   O22   A    
C51   C71   A    
C4    H42   S    
C105  H13   S    
C119  H24   S    
C5    H43   S    
C112  C113  A    
C66   H56   S    
O10   Zn6   S    
C6    C7    A    
O1    Zn1   S    
C35   C93   S    
C53   C59   A    
C30   H64   S    
C47   O2    A    
C63   C67   A    
C77   C90   A    
C82   C96   A    
C134  H37   S    
C49   O4    A    
C51   C52   S    
C129  H32   S    
C123  C124  A    
C29   H63   S    
C24   O13   A    
C52   C64   A    
O7    Zn3   S    
C39   C40   A    
C70   C103  S    
O8    Zn4   S    
C6    C77   S    
C54   C60   A    
C58   H67   S    
C13   C85   S    
C67   H45   S    
C121  H26   S    
C17   H53   S    
C46   O7    A    
C89   C128  S    
C115  H21   S    
C36   H69   S    
C41   H73   S    
C104  H11   S    
C37   C38   A    
O15   Zn3   S    
C43   C44   A    
C127  C129  A    
C79   C95   A    
C29   C30   A    
C109  H16   S    
C60   H3    S    
C54   C73   S    
C14   H50   S    
C53   C62   S    
C75   C88   A    
C58   C65   A    
C55   C67   A    
C117  O17   A    
C133  H36   S    
C18   H54   S    
O22   Zn6   S    
C89   C102  A    
C12   C18   A    
C33   C34   A    
C121  C122  A    
C56   C63   A    
C62   C72   A    
C3    C138  A    
O2    Zn3   S    
C21   H57   S    
C19   C79   S    
C70   C83   A    
C79   C92   A    
C39   C44   A    
C52   C58   A    
C2    O15   A    
C13   O20   A    
C124  H28   S    
C107  H14   S    
C15   H51   S    
O17   Zn1   S    
C40   C41   A    
C46   C96   S    
C12   C14   A    
C32   C38   A    
C112  H18   S    
C125  C126  A    
C63   H78   S    
C37   H70   S    
C44   H76   S    
C42   C43   A    
C93   C101  A    
C3    C4    A    
C43   H75   S    
C20   H55   S    
C6    C11   A    
C42   H74   S    
C120  C121  A    
C57   C64   A    
C87   C100  A    
C1    C50   S    
C23   H59   S    
C36   C37   A    
C128  O14   A    
C7    H44   S    
C98   H6    S    
C35   O9    A    
C50   C57   A    
O20   Zn5   S    
C22   C23   A    
C88   C101  A    
C39   C82   S    
C4    C5    A    
C104  C105  A    
C13   O11   A    
C72   C86   A    
C119  C120  A    
C61   H2    S    
C134  C135  A    
C86   C99   A    
C78   C91   A    
C127  H31   S    
O4    Zn1   S    
C72   C116  S    
C33   H66   S    
C9    H47   S    
C1    C70   A    
O3    Zn2   S    
O23   Zn5   S    
C103  C109  A    
C32   C33   A    
C19   C20   A    
C11   H49   S    
C130  C131  A    
C91   C97   A    
O6    Zn2   S    
C135  H38   S    
O11   Zn6   S    
C81   C94   A    
C68   H34   S    
C101  H9    S    
C133  C134  A    
C87   C106  S    
C60   C69   A    
C56   C66   A    
C55   C61   A    
C10   H48   S    
C47   C94   S    
C116  C118  A    
O21   Zn6   S    
C132  C133  A    
C86   C117  S    
C34   C36   A    
C132  H35   S    
C23   C25   A    
C94   C100  A    
C62   C82   A    
C19   C25   A    
C50   C65   A    
C26   C80   S    
O19   Zn4   S    
C130  C135  A    
O14   Zn4   S    
C10   C11   A    
C16   H52   S    
C65   H1    S    
C2    O19   A    
C106  O1    A    
O12   Zn2   S    
C20   C21   A    
C27   H61   S    
C83   C97   A    
C64   H12   S    
C27   C28   A    
C106  O16   A    
C14   C15   A    
C136  C137  A    
C76   C89   A    
C113  H19   S    
C55   C84   S    
C111  H17   S    
C110  C115  A    
C90   C98   A    
C24   O21   A    
C131  C132  A    
C16   C17   A    
C124  C125  A    
C48   O3    A    
C138  H40   S    
