data_str_m4_o4_o11_f0_acs.sym.21
_audit_creation_date              2012-12-11T15:41:15-0500
_audit_creation_method            fapswitch 2.2
_symmetry_space_group_name_H-M    P1
_symmetry_Int_Tables_number       1
_space_group_crystal_system       triclinic
_cell_length_a                    19.124046
_cell_length_b                    11.022592
_cell_length_c                    18.855218
_cell_angle_alpha                 89.871581
_cell_angle_beta                  89.938683
_cell_angle_gamma                 89.970556
_cell_volume                      3974.60224609

loop_
_atom_site_label
_atom_site_type_symbol
_atom_type_description
_atom_site_fract_x
_atom_site_fract_y
_atom_site_fract_z
_atom_type_partial_charge
C1    C     C_R   0.726306 0.956993 0.853961 0.541098
C2    C     C_R   0.300013 0.465088 0.036902 -0.024659
C3    C     C_R   0.762536 0.855014 0.356210 0.545844
C4    C     C_2   0.506273 0.168415 0.924247 -0.070473
C5    C     C_2   0.507907 0.179136 0.083115 -0.149479
C6    C     C_2   0.006259 0.668410 0.924240 -0.070290
C7    C     C_2   0.007907 0.679137 0.083117 -0.149568
C8    C     C_2   0.514862 0.081474 0.043345 -0.100789
C9    C     C_2   0.538782 0.093620 0.969886 -0.093609
C10   C     C_2   0.014851 0.581482 0.043342 -0.100913
C11   C     C_2   0.038777 0.593636 0.969885 -0.093566
C12   C     C_R   0.766527 0.442572 0.068185 -0.034136
C13   C     C_R   0.195327 0.953007 0.963109 -0.010142
C14   C     C_R   0.241084 0.422641 0.926734 -0.043166
C15   C     C_R   0.266518 0.942542 0.068194 -0.033699
C16   C     C_R   0.741094 0.922613 0.926726 -0.043169
C17   C     C_R   0.800031 0.965031 0.036891 -0.024684
C18   C     C_R   0.819897 0.413744 0.951599 0.228145
C19   C     C_R   0.186028 0.366333 0.038333 0.227331
C20   C     C_R   0.319890 0.913718 0.951610 0.228020
C21   C     C_R   0.686043 0.866288 0.038321 0.227229
C22   C     C_R   0.825833 0.425227 0.025147 -0.141337
C23   C     C_R   0.186926 0.367420 0.964939 -0.152762
C24   C     C_R   0.325825 0.925195 0.025158 -0.141176
C25   C     C_R   0.276143 0.962819 0.143705 0.549168
C26   C     C_R   0.686938 0.867385 0.964930 -0.152718
C27   C     C_3   0.636130 0.397584 0.050100 -0.266310
C28   C     C_3   0.371783 0.449289 0.954864 -0.261216
C29   C     C_3   0.136124 0.897547 0.050108 -0.266325
C30   C     C_3   0.871792 0.949237 0.954850 -0.261153
C31   C     C_3   0.627453 0.387214 0.970833 -0.255521
C32   C     C_3   0.376297 0.436165 0.034474 -0.256675
C33   C     C_3   0.127447 0.887179 0.970841 -0.255589
C34   C     C_3   0.876311 0.936085 0.034459 -0.256755
C35   C     C_R   0.752409 0.421300 0.920209 -0.010108
C36   C     C_R   0.226302 0.457004 0.853965 0.541025
C37   C     C_R   0.246852 0.407873 0.075765 -0.005767
C38   C     C_R   0.252404 0.921279 0.920218 -0.010264
C39   C     C_R   0.746871 0.907814 0.075751 -0.006128
C40   C     C_R   0.483331 0.170377 0.431426 0.021512
C41   C     C_R   0.492388 0.170652 0.578909 0.023179
C42   C     C_R   0.977498 0.669783 0.433383 0.020367
C43   C     C_R   0.989440 0.671375 0.580498 0.023183
C44   C     C_R   0.475474 0.277469 0.469572 0.038038
C45   C     C_R   0.479446 0.278592 0.541777 0.023919
C46   C     C_R   0.971913 0.777547 0.471144 0.039314
C47   C     C_R   0.776149 0.462836 0.143700 0.549991
C48   C     C_R   0.976616 0.779326 0.543273 0.028890
C49   C     C_R   0.486691 0.059961 0.542708 -0.170433
C50   C     C_R   0.484212 0.059862 0.468599 -0.168914
C51   C     C_R   0.979179 0.560668 0.545381 -0.154088
C52   C     C_R   0.973998 0.559687 0.471266 -0.155764
C53   C     C_R   0.531944 0.177898 0.851697 0.567811
C54   C     C_R   0.470708 0.179062 0.150202 0.555211
C55   C     C_R   0.031937 0.677897 0.851693 0.567222
C56   C     C_R   0.970710 0.679062 0.150204 0.556258
C57   C     C_3   0.513125 0.394874 0.460608 -0.279178
C58   C     C_R   0.702472 0.464016 0.036009 0.080525
C59   C     C_3   0.517758 0.397858 0.540363 -0.269443
C60   C     C_3   0.009832 0.894316 0.461180 -0.275467
C61   C     C_3   0.014866 0.898563 0.540961 -0.267974
C62   C     C_R   0.762844 0.440863 0.430137 0.015304
C63   C     C_R   0.238263 0.435152 0.571314 0.022850
C64   C     C_R   0.249081 0.908044 0.420869 0.016845
C65   C     C_R   0.749533 0.902084 0.580172 0.017068
C66   C     C_R   0.818054 0.391885 0.468855 0.037876
C67   C     C_R   0.179341 0.419912 0.528389 0.043289
C68   C     C_R   0.286321 0.815838 0.455295 0.024980
C69   C     C_R   0.295881 0.476895 0.963656 0.043957
C70   C     C_R   0.702110 0.829341 0.542699 0.031349
C71   C     C_R   0.814980 0.381508 0.541234 0.030674
C72   C     C_R   0.184209 0.412817 0.455755 0.020799
C73   C     C_R   0.284447 0.806164 0.528013 0.043410
C74   C     C_R   0.706387 0.818821 0.470284 0.036803
C75   C     C_R   0.705274 0.488755 0.542085 -0.163214
C76   C     C_R   0.308088 0.449796 0.464398 -0.156194
C77   C     C_R   0.199115 0.965325 0.535089 -0.173312
C78   C     C_R   0.812838 0.933983 0.469847 -0.159475
C79   C     C_R   0.708614 0.498647 0.467820 -0.161467
C80   C     C_R   0.202464 0.963987 0.036018 0.080639
C81   C     C_R   0.302518 0.458147 0.538342 -0.161337
C82   C     C_R   0.200059 0.974428 0.460925 -0.166946
C83   C     C_R   0.809313 0.943460 0.544105 -0.165079
C84   C     C_3   0.854770 0.273735 0.459450 -0.280192
C85   C     C_3   0.123194 0.326208 0.532012 -0.267535
C86   C     C_3   0.361683 0.778987 0.452822 -0.269512
C87   C     C_3   0.623800 0.832009 0.539804 -0.269685
C88   C     C_3   0.851551 0.261296 0.539197 -0.270687
C89   C     C_3   0.126214 0.322007 0.451888 -0.270970
C90   C     C_3   0.359785 0.772446 0.533003 -0.266536
C91   C     C_R   0.795893 0.976858 0.963647 0.044121
C92   C     C_3   0.629165 0.820406 0.460203 -0.277612
C93   C     C_R   0.755461 0.419023 0.578509 0.019553
C94   C     C_R   0.249584 0.416874 0.422900 0.018384
C95   C     C_R   0.245158 0.885756 0.569653 0.021874
C96   C     C_R   0.757731 0.879516 0.431856 0.015117
C97   C     C_R   0.738771 0.364778 0.851920 0.571495
C98   C     C_R   0.261379 0.362029 0.146845 0.563766
C99   C     C_R   0.238769 0.864771 0.851923 0.571941
C100  C     C_R   0.761387 0.862008 0.146839 0.564623
C101  C     C_R   0.728110 0.954017 0.648024 0.539344
C102  C     C_R   0.695335 0.453033 0.963101 -0.010039
C103  C     C_R   0.271848 0.954725 0.352207 0.546234
C104  C     C_R   0.226551 0.458410 0.646183 0.541747
C105  C     C_R   0.774154 0.460895 0.354746 0.540888
C106  C     C_R   0.528875 0.176749 0.645726 0.554861
C107  C     C_R   0.467475 0.176406 0.356869 0.548752
C108  C     C_R   0.028326 0.676823 0.646097 0.556137
C109  C     C_R   0.965388 0.676446 0.358010 0.550074
C110  C     C_R   0.739987 0.363136 0.646866 0.548788
C111  C     C_R   0.260755 0.362042 0.353628 0.550878
C112  C     C_R   0.238561 0.858154 0.644797 0.549923
Cr1   Cr    Cr6+3 0.769260 0.163750 0.750730 1.062453
Cr2   Cr    Cr6+3 0.385810 0.322400 0.252290 1.012448
Cr3   Cr    Cr6+3 0.114190 0.822400 0.747710 1.012700
Cr4   Cr    Cr6+3 0.885810 0.822400 0.252290 1.012761
Cr5   Cr    Cr6+3 0.230740 0.163750 0.249270 1.063241
Cr6   Cr    Cr6+3 0.269260 0.663750 0.750730 1.066650
Cr7   Cr    Cr6+3 0.730740 0.663750 0.249270 1.065216
Cr8   Cr    Cr6+3 0.612640 0.009910 0.748780 1.053541
Cr9   Cr    Cr6+3 0.387360 0.009910 0.251220 1.047281
Cr10  Cr    Cr6+3 0.112640 0.509910 0.748780 1.056870
Cr11  Cr    Cr6+3 0.887360 0.509910 0.251220 1.049144
Cr12  Cr    Cr6+3 0.614190 0.322400 0.747710 1.011781
H1    H     H_    0.499125 0.993857 0.063445 0.247044
H2    H     H_    0.486853 0.472601 0.564521 0.125390
H3    H     H_    0.061153 0.881915 0.434427 0.143832
H4    H     H_    0.984038 0.973627 0.564856 0.127308
H5    H     H_    0.661117 0.527397 0.569942 0.121940
H6    H     H_    0.359289 0.457861 0.440745 0.134804
H7    H     H_    0.163958 0.022263 0.565299 0.115353
H8    H     H_    0.856905 0.972950 0.442165 0.130506
H9    H     H_    0.668007 0.547493 0.439986 0.129034
H10   H     H_    0.348633 0.476430 0.569739 0.117719
H11   H     H_    0.166588 0.040031 0.435630 0.123594
H12   H     H_    0.579046 0.032044 0.951431 0.177454
H13   H     H_    0.850062 0.991510 0.572133 0.121141
H14   H     H_    0.908872 0.284560 0.438933 0.134177
H15   H     H_    0.073371 0.362084 0.552783 0.140516
H16   H     H_    0.396816 0.850842 0.433041 0.161551
H17   H     H_    0.602814 0.921127 0.556174 0.166010
H18   H     H_    0.822349 0.205726 0.431012 0.139678
H19   H     H_    0.141245 0.240956 0.557713 0.133732
H20   H     H_    0.369060 0.689126 0.427319 0.132319
H21   H     H_    0.599682 0.751658 0.565834 0.131323
H22   H     H_    0.816784 0.186627 0.556426 0.163935
H23   H     H_    0.999100 0.493868 0.063434 0.246955
H24   H     H_    0.142624 0.232657 0.431640 0.155842
H25   H     H_    0.368093 0.679924 0.554185 0.140869
H26   H     H_    0.608401 0.733110 0.439938 0.135363
H27   H     H_    0.903779 0.264107 0.564983 0.130701
H28   H     H_    0.078851 0.360023 0.426022 0.134273
H29   H     H_    0.391454 0.843906 0.559127 0.139770
H30   H     H_    0.610992 0.902400 0.431116 0.141579
H31   H     H_    0.521787 0.266709 0.061062 0.103282
H32   H     H_    0.466573 0.230614 0.942818 0.085014
H33   H     H_    0.021792 0.766710 0.061068 0.103220
H34   H     H_    0.079055 0.532082 0.951436 0.177388
H35   H     H_    0.966547 0.730589 0.942806 0.085013
H36   H     H_    0.876975 0.417254 0.049177 0.185866
H37   H     H_    0.142726 0.328729 0.937279 0.201295
H38   H     H_    0.376967 0.917226 0.049188 0.185988
H39   H     H_    0.642736 0.828698 0.937271 0.201339
H40   H     H_    0.094987 0.953983 0.075081 0.178112
H41   H     H_    0.902205 0.027271 0.934477 0.204231
H42   H     H_    0.594994 0.454025 0.075072 0.178221
H43   H     H_    0.402191 0.527324 0.934484 0.204249
H44   H     H_    0.645362 0.308795 0.076695 0.127764
H45   H     H_    0.976620 0.967350 0.438657 0.136334
H46   H     H_    0.380112 0.363539 0.925352 0.126032
H47   H     H_    0.145360 0.808756 0.076701 0.127844
H48   H     H_    0.880106 0.863497 0.925323 0.126024
H49   H     H_    0.630845 0.292090 0.951945 0.136031
H50   H     H_    0.387968 0.341671 0.051279 0.150223
H51   H     H_    0.130843 0.792056 0.951951 0.135954
H52   H     H_    0.887970 0.841579 0.051255 0.149999
H53   H     H_    0.582586 0.440492 0.949895 0.170181
H54   H     H_    0.408665 0.507544 0.059945 0.172098
H55   H     H_    0.082577 0.940454 0.949904 0.170176
H56   H     H_    0.069528 0.891668 0.559407 0.173631
H57   H     H_    0.908690 0.007446 0.059939 0.172092
H58   H     H_    0.491305 0.974748 0.570797 0.120703
H59   H     H_    0.486105 0.974779 0.440497 0.119748
H60   H     H_    0.980970 0.475971 0.574249 0.123460
H61   H     H_    0.969787 0.473992 0.443884 0.128182
H62   H     H_    0.942442 0.222610 0.850618 0.352820
H63   H     H_    0.083714 0.148203 0.142177 0.347320
H64   H     H_    0.442426 0.722680 0.850554 0.352824
H65   H     H_    0.583809 0.648313 0.142316 0.347407
H66   H     H_    0.479723 0.467985 0.438384 0.132937
H67   H     H_    0.572520 0.390450 0.558818 0.169517
H68   H     H_    0.564734 0.383848 0.434132 0.138394
O1    O     O_R   0.784290 0.290360 0.830540 -0.415388
O2    O     O_R   0.456020 0.282110 0.333230 -0.520524
O3    O     O_R   0.043980 0.782110 0.666770 -0.527124
O4    O     O_R   0.956020 0.782110 0.333230 -0.520355
O5    O     O_R   0.679070 0.374030 0.674430 -0.512532
O6    O     O_R   0.320930 0.374030 0.325570 -0.510483
O7    O     O_R   0.179070 0.874030 0.674430 -0.511782
O8    O     O_R   0.820930 0.874030 0.325570 -0.510117
O9    O     O_3   0.665360 0.165350 0.749070 -0.273439
O10   O     O_3   0.334640 0.165350 0.250930 -0.270029
O11   O     O_3   0.165360 0.665350 0.749070 -0.276077
O12   O     O_R   0.215710 0.290360 0.169460 -0.416155
O13   O     O_3   0.834640 0.665350 0.250930 -0.274674
O14   O     O_R   0.762610 0.041070 0.825230 -0.479386
O15   O     O_R   0.237390 0.041070 0.174770 -0.466037
O16   O     O_R   0.262610 0.541070 0.825230 -0.479889
O17   O     O_R   0.737390 0.541070 0.174770 -0.465316
O18   O     O_R   0.667390 0.924160 0.829970 -0.526388
O19   O     O_R   0.332610 0.924160 0.170030 -0.521729
O20   O     O_R   0.167390 0.424160 0.829970 -0.526771
O21   O     O_R   0.832610 0.424160 0.170030 -0.521229
O22   O     O_R   0.553980 0.081420 0.821780 -0.453227
O23   O     O_R   0.284290 0.790360 0.830540 -0.415668
O24   O     O_R   0.446020 0.081420 0.178220 -0.476317
O25   O     O_R   0.053980 0.581420 0.821780 -0.454159
O26   O     O_R   0.946020 0.581420 0.178220 -0.475772
O27   O     O_R   0.543210 0.283170 0.826740 -0.533053
O28   O     O_R   0.456790 0.283170 0.173260 -0.529985
O29   O     O_R   0.043210 0.783170 0.826740 -0.533300
O30   O     O_R   0.956790 0.783170 0.173260 -0.529461
O31   O     O_R   0.678350 0.375000 0.822720 -0.515960
O32   O     O_R   0.321650 0.375000 0.177280 -0.515014
O33   O     O_R   0.178350 0.875000 0.822720 -0.515580
O34   O     O_R   0.715710 0.790360 0.169460 -0.415970
O35   O     O_R   0.821650 0.875000 0.177280 -0.514098
O36   O     O_R   0.785060 0.289300 0.670580 -0.512935
O37   O     O_R   0.214940 0.289300 0.329420 -0.518569
O38   O     O_R   0.285060 0.789300 0.670580 -0.507954
O39   O     O_R   0.714940 0.789300 0.329420 -0.512813
O40   O     O_R   0.763330 0.040090 0.676940 -0.513821
O41   O     O_R   0.236670 0.040090 0.323060 -0.513642
O42   O     O_R   0.263330 0.540090 0.676940 -0.509397
O43   O     O_R   0.736670 0.540090 0.323060 -0.513158
O44   O     O_R   0.668160 0.923110 0.670000 -0.522002
O45   O     O_R   0.554690 0.080440 0.673480 -0.504270
O46   O     O_R   0.331840 0.923110 0.330000 -0.521830
O47   O     O_R   0.168160 0.423110 0.670000 -0.518284
O48   O     O_R   0.831840 0.423110 0.330000 -0.516728
O49   O     O_2   0.899948 0.455217 0.836443 -0.291932
O50   O     O_2   0.960007 0.401757 0.946238 -0.285619
O51   O     O_3   0.900112 0.231061 0.880532 -0.506202
O52   O     O_2   0.086186 0.384755 0.138812 -0.312760
O53   O     O_2   0.050349 0.295598 0.025360 -0.278384
O54   O     O_3   0.122864 0.164431 0.109035 -0.501578
O55   O     O_2   0.399954 0.955269 0.836477 -0.291813
O56   O     O_R   0.445310 0.080440 0.326520 -0.503775
O57   O     O_2   0.459996 0.901744 0.946269 -0.285558
O58   O     O_3   0.400122 0.731081 0.880513 -0.506402
O59   O     O_2   0.586195 0.884773 0.138785 -0.313296
O60   O     O_2   0.550362 0.795568 0.025348 -0.278198
O61   O     O_3   0.622861 0.664425 0.109048 -0.501759
O62   O     O_R   0.054690 0.580440 0.673480 -0.499339
O63   O     O_R   0.945310 0.580440 0.326520 -0.504021
O64   O     O_R   0.543980 0.282110 0.666770 -0.525535
S1    S     S_3+6 0.897053 0.378677 0.902486 0.018871
S2    S     S_3+6 0.108441 0.305058 0.078201 -0.008116
S3    S     S_3+6 0.397051 0.878682 0.902500 0.018892
S4    S     S_3+6 0.608450 0.805041 0.078190 -0.008217

loop_
_geom_bond_atom_site_label_1
_geom_bond_atom_site_label_2
_ccdc_geom_bond_type
C53   O27   A    
C7    C10   D    
C56   O30   A    
C21   C26   A    
C53   O22   A    
Cr10  O25   S    
C29   C33   S    
C4    C53   S    
C64   C103  S    
C68   C86   S    
Cr10  O62   S    
C94   C111  S    
C59   H67   S    
C50   H59   S    
C17   C91   A    
C15   C80   A    
C65   C101  S    
C6    C55   S    
Cr12  O64   S    
C35   C102  A    
C85   H19   S    
C19   S2    S    
C56   O26   A    
C6    H35   S    
C48   C61   S    
C86   H20   S    
C81   H10   S    
C55   O25   A    
C62   C105  S    
C59   H2    S    
C54   O24   A    
O60   S4    D    
O49   S1    D    
C31   H53   S    
C60   H45   S    
C64   C68   A    
C98   O12   A    
C42   C109  S    
Cr6   O38   S    
C73   C90   S    
Cr3   O33   S    
H63   O54   S    
C35   C97   S    
C95   C112  S    
C90   H25   S    
C111  O6    A    
C17   C39   A    
H62   O51   S    
Cr4   O8    S    
C40   C50   A    
C109  O4    A    
C57   C59   S    
C33   H55   S    
C74   C92   S    
C65   C70   A    
C12   C22   A    
C26   H39   S    
C112  O38   A    
Cr11  O13   S    
C34   H57   S    
C2    C32   S    
C67   C72   A    
C36   O16   A    
C108  O62   A    
C97   O1    A    
C82   H11   S    
C25   O19   A    
C78   H8    S    
C18   S1    S    
C19   C37   A    
C28   H43   S    
C76   C94   A    
C104  O47   A    
C76   H6    S    
C78   C83   A    
C89   H28   S    
C20   C24   A    
C78   C96   A    
C8    C9    S    
C106  O45   A    
C98   O32   A    
C70   C74   A    
Cr2   O10   S    
Cr6   O23   S    
C58   C102  A    
C84   H18   S    
C63   C81   A    
C61   H4    S    
Cr5   O12   S    
Cr2   O2    S    
C18   C35   A    
C85   H15   S    
C112  O7    A    
Cr11  O63   S    
Cr4   O13   S    
C3    C96   S    
Cr7   O39   S    
C10   H23   S    
C55   O29   A    
C12   C58   A    
C104  O42   A    
C92   H30   S    
Cr12  O27   S    
C84   H14   S    
C103  O41   A    
C87   C92   S    
C110  O5    A    
Cr8   O18   S    
Cr8   O9    S    
C105  O43   A    
C29   H40   S    
C32   H54   S    
C7    C56   S    
O57   S3    D    
C12   C47   S    
C70   C87   S    
C41   C49   A    
C37   C98   S    
C99   O23   A    
C75   H5    S    
C92   H26   S    
C46   C48   A    
Cr9   O56   S    
C16   C26   A    
C79   H9    S    
H64   O58   S    
C63   C67   A    
C67   C85   S    
Cr7   O17   S    
C41   C106  S    
C30   C34   S    
Cr4   O35   S    
C27   C31   S    
C51   C52   A    
C31   C102  S    
C74   C96   A    
C5    C54   S    
C28   C32   S    
O52   S2    D    
C57   H68   S    
C51   H60   S    
C86   C90   S    
C3    O39   A    
C6    C11   D    
C62   C66   A    
C19   C23   A    
C38   C99   S    
Cr1   O36   S    
C27   H42   S    
C68   C73   A    
C5    H31   S    
Cr3   O7    S    
Cr12  O5    S    
C109  O63   A    
C87   H17   S    
C97   O31   A    
Cr3   O11   S    
C60   C61   S    
C90   H29   S    
C14   C23   A    
C100  O35   A    
Cr6   O16   S    
Cr9   O24   S    
C34   H52   S    
C13   C33   S    
O54   S2    S    
C106  O64   A    
O59   S4    D    
C20   C38   A    
C62   C79   A    
C66   C71   A    
C21   C39   A    
Cr12  O31   S    
Cr5   O41   S    
C44   C57   S    
C63   C104  S    
C93   C110  S    
C30   H48   S    
C49   H58   S    
C22   H36   S    
C28   C69   S    
C3    O8    A    
C1    C16   S    
C41   C45   A    
C29   H47   S    
C108  O3    A    
C100  O34   A    
C1    O14   A    
C64   C82   A    
C13   C38   A    
C99   O33   A    
C77   H7    S    
C16   C91   A    
C40   C107  S    
C7    H33   S    
C28   H46   S    
C15   C24   A    
C4    H32   S    
Cr11  O26   S    
C36   O20   A    
Cr10  O47   S    
Cr1   O9    S    
Cr11  O21   S    
C42   C46   A    
C111  O37   A    
O50   S1    D    
Cr10  O20   S    
Cr10  O11   S    
C75   C79   A    
C17   C34   S    
C73   C95   A    
Cr5   O10   S    
C2    C69   A    
O58   S3    S    
C83   H13   S    
C44   C45   A    
C75   C93   A    
Cr1   O40   S    
Cr11  O48   S    
C43   C48   A    
Cr7   O43   S    
Cr3   O3    S    
Cr6   O42   S    
C45   C59   S    
C85   C89   S    
C15   C25   S    
C87   H21   S    
C46   C60   S    
C1    O18   A    
C18   C22   A    
Cr1   O1    S    
Cr2   O6    S    
Cr3   O29   S    
C60   H3    S    
C24   H38   S    
C84   C88   S    
C30   H41   S    
Cr2   O28   S    
C30   C91   S    
Cr5   O15   S    
Cr6   O11   S    
C76   C81   A    
Cr9   O10   S    
C5    C8    D    
O55   S3    D    
C21   S4    S    
C54   O28   A    
C71   C93   A    
C86   H16   S    
C27   H44   S    
Cr12  O9    S    
Cr8   O45   S    
C89   H24   S    
Cr1   O14   S    
Cr7   O13   S    
C47   O17   A    
C72   C94   A    
C57   H66   S    
C110  O36   A    
Cr8   O44   S    
C88   H27   S    
C14   C36   S    
C72   C89   S    
C2    C37   A    
C43   C51   A    
C39   C100  S    
C29   C80   S    
C32   H50   S    
C77   C82   A    
C27   C58   S    
C103  O46   A    
O61   S4    S    
C47   O21   A    
Cr5   O37   S    
C14   C69   A    
C105  O48   A    
C77   C95   A    
O51   S1    S    
C101  O40   A    
C43   C108  S    
Cr9   O19   S    
Cr4   O30   S    
C33   H51   S    
C13   C80   A    
C65   C83   A    
C10   C11   S    
C20   S3    S    
C66   C84   S    
C71   C88   S    
Cr4   O4    S    
C9    H12   S    
C107  O56   A    
C8    H1    S    
C40   C44   A    
C11   H34   S    
C61   H56   S    
C31   H49   S    
C49   C50   A    
C52   H61   S    
C101  O44   A    
C88   H22   S    
H65   O61   S    
Cr2   O32   S    
C4    C9    D    
C25   O15   A    
Cr8   O22   S    
C107  O2    A    
O53   S2    D    
Cr9   O46   S    
Cr7   O34   S    
C42   C52   A    
C23   H37   S    
