data_str_m2_o10_o28_f0_pcu.sym.169
_audit_creation_date              2013-03-05T15:41:54-0500
_audit_creation_method            fapswitch 2.2
_symmetry_space_group_name_H-M    P1
_symmetry_Int_Tables_number       1
_space_group_crystal_system       triclinic
_cell_length_a                    23.498807
_cell_length_b                    8.679827
_cell_length_c                    7.438578
_cell_angle_alpha                 103.012484
_cell_angle_beta                  94.137992
_cell_angle_gamma                 92.395364
_cell_volume                      1471.76755892

loop_
_atom_site_label
_atom_site_type_symbol
_atom_site_description
_atom_site_fract_x
_atom_site_fract_y
_atom_site_fract_z
_atom_type_partial_charge
O1    O     O_R   0.504120 0.286130 0.619770 -0.587760
O2    O     O_R   0.495880 0.713870 0.380230 -0.585359
O3    O     O_R   0.493410 0.256770 0.308360 -0.567701
O4    O     O_R   0.506590 0.743230 0.691640 -0.582047
C1    C     C_R   0.498272 0.199649 0.453181 0.894728
C2    C     C_R   0.501719 0.800349 0.546812 0.880380
O5    O     O_R   0.423230 0.514630 0.655730 -0.586625
O6    O     O_R   0.576770 0.485370 0.344270 -0.556221
O7    O     O_R   0.412530 0.485280 0.344320 -0.533728
O8    O     O_R   0.587470 0.514720 0.655680 -0.569810
C3    C     C_R   0.391087 0.502149 0.502684 0.823913
C4    C     C_R   0.608986 0.497046 0.496900 0.844196
Cu1   Cu    Cu3+1 0.506340 0.517380 0.684380 1.015205
Cu2   Cu    Cu3+1 0.493660 0.482620 0.315620 1.045942
C5    C     C_R   0.884036 0.650837 0.545278 0.542741
C6    C     C_R   0.118096 0.370100 0.504592 0.544497
N1    N     N_R   0.852617 0.508907 0.504764 -0.462464
N2    N     N_R   0.149510 0.512026 0.544421 -0.462895
C7    C     C_R   0.878398 0.367630 0.474370 0.551291
C8    C     C_R   0.123849 0.653326 0.582861 0.554849
C9    C     C_R   0.938126 0.365352 0.482536 -0.018427
C10   C     C_R   0.064139 0.655677 0.577433 -0.020695
C11   C     C_R   0.971040 0.510215 0.525185 -0.015670
C12   C     C_R   0.031213 0.510824 0.534564 -0.016198
C13   C     C_R   0.943925 0.654447 0.557721 -0.016155
C14   C     C_R   0.058297 0.366567 0.499730 -0.015307
C15   C     C_R   0.965577 0.222144 0.449696 -0.161504
C16   C     C_R   0.036694 0.798888 0.611737 -0.159819
C17   C     C_R   0.025057 0.222737 0.457820 -0.169798
C18   C     C_R   0.977185 0.798280 0.601516 -0.170591
O9    O     O_2   0.857359 0.787895 0.572229 -0.508611
O10   O     O_2   0.144603 0.232922 0.466396 -0.507583
O11   O     O_2   0.846310 0.229849 0.438406 -0.499381
O12   O     O_2   0.156077 0.791028 0.625804 -0.495251
H1    H     H_    0.941213 0.109228 0.416418 0.194608
H2    H     H_    0.061065 0.911803 0.645495 0.193478
H3    H     H_    0.044841 0.110258 0.430240 0.187637
H4    H     H_    0.957381 0.910736 0.628148 0.187262
C19   C     C_R   0.235517 0.576064 0.401638 -0.151502
C20   C     C_R   0.758073 0.439321 0.334275 -0.153970
H5    H     H_    0.209043 0.626501 0.306859 0.177551
H6    H     H_    0.778925 0.388857 0.211078 0.184113
C21   C     C_R   0.294384 0.572973 0.386788 0.312841
C22   C     C_R   0.698286 0.429193 0.329811 0.300874
C23   C     C_R   0.328769 0.505573 0.509590 -0.167414
C24   C     C_R   0.671624 0.495424 0.492580 -0.160700
C25   C     C_R   0.303146 0.443744 0.645230 -0.183517
C26   C     C_R   0.705799 0.565204 0.656165 -0.191225
H7    H     H_    0.328637 0.390789 0.739817 0.198468
H8    H     H_    0.686698 0.616817 0.782509 0.198923
C27   C     C_R   0.244364 0.447238 0.658397 -0.043277
C28   C     C_R   0.765043 0.570454 0.659399 -0.074782
H9    H     H_    0.225200 0.398432 0.763150 0.172364
H10   H     H_    0.790575 0.622584 0.787474 0.164738
C29   C     C_R   0.210317 0.512733 0.536049 0.263971
C30   C     C_R   0.791437 0.508004 0.498723 0.275503
C31   C     C_2   0.497428 0.031726 0.426813 -0.312473
C32   C     C_2   0.502552 0.968273 0.573167 -0.332240
H11   H     H_    0.492587 0.959988 0.285827 0.189139
H12   H     H_    0.507397 0.040016 0.714154 0.191457
N3    N     N_2   0.484110 0.456420 0.038520 -0.185488
N4    N     N_2   0.515890 0.543580 0.961480 -0.195375
H13   H     H_    0.454849 0.379443 0.948804 0.233403
H14   H     H_    0.545153 0.620543 0.051202 0.231773
N5    N     N_R   0.318484 0.643658 0.251092 0.126325
O13   O     O_R   0.333035 0.553531 0.098854 -0.364338
O14   O     O_R   0.313116 0.793559 0.259225 -0.329486
N6    N     N_R   0.666036 0.344432 0.162957 0.134288
O15   O     O_R   0.628838 0.230699 0.168967 -0.340859
O16   O     O_R   0.681414 0.359229 0.002777 -0.360210

loop_
_geom_bond_atom_site_label_1
_geom_bond_atom_site_label_2
_geom_bond_distance
_ccdc_geom_bond_type
O5    Cu1   1.947788 S    
N4    H14   1.029138 S    
O7    Cu2   1.934140 S    
O8    Cu1   1.934140 S    
C5    O9    1.349631 S    
C6    O10   1.349671 S    
C21   C23   1.415346 A    
C2    C32   1.425359 S    
C27   C29   1.399092 A    
N5    O14   1.300702 A    
C1    C31   1.425341 S    
O6    C4    1.300048 A    
C8    O12   1.349674 S    
C21   N5    1.431192 S    
C16   C18   1.394708 A    
C9    C15   1.404957 A    
C19   H5    1.083603 S    
C6    N2    1.370523 A    
C10   C16   1.405035 A    
Cu1   Cu2   2.684393 S    
O5    C3    1.300697 A    
O7    C3    1.295056 A    
N1    C30   1.434759 S    
C16   H2    1.083095 S    
C31   C32   1.326522 D    
O2    C2    1.290627 A    
O3    Cu2   1.948640 S    
O8    C4    1.298165 A    
N2    C29   1.434551 S    
O1    C1    1.290673 A    
C13   C18   1.405030 A    
C10   C12   1.408431 A    
C26   H8    1.083280 S    
C7    C9    1.401634 A    
C12   C14   1.408664 A    
C28   H10   1.083067 S    
C15   H1    1.083069 S    
C26   C28   1.389294 A    
N2    C8    1.370532 A    
C11   C13   1.408661 A    
C9    C11   1.408368 A    
C6    C14   1.401932 A    
N3    N4    1.291597 D    
O2    Cu2   1.953409 S    
O6    Cu2   1.947788 S    
C3    C23   1.470317 S    
O4    C2    1.283347 A    
C31   H11   1.087796 S    
C5    N1    1.370488 A    
C11   C12   1.410411 A    
C32   H12   1.087816 S    
C24   C26   1.406726 A    
O3    C1    1.283299 A    
C20   C22   1.401519 A    
O1    Cu1   1.953409 S    
C15   C17   1.394400 A    
C18   H4    1.082945 S    
C14   C17   1.404966 A    
C25   H7    1.083026 S    
N5    O13   1.300235 A    
C7    O11   1.349723 S    
C23   C25   1.404657 A    
C17   H3    1.083002 S    
O4    Cu1   1.948640 S    
N3    H13   1.029159 S    
N6    O16   1.301517 A    
C22   N6    1.436145 S    
N1    C7    1.370711 A    
C25   C27   1.392919 A    
C5    C13   1.402246 A    
C22   C24   1.419542 A    
C27   H9    1.082943 S    
C19   C21   1.396534 A    
Cu2   N3    2.017086 S    
N6    O15   1.301517 A    
C19   C29   1.399360 A    
Cu1   N4    2.017086 S    
C28   C30   1.396554 A    
C8    C10   1.401912 A    
C20   H6    1.083400 S    
C20   C30   1.400206 A    
C4    C24   1.475170 S    
