data_str_m9_o11_o2_f0_sra.sym.10
_audit_creation_date              2012-12-11T14:29:23-0500
_audit_creation_method            fapswitch 2.2
_symmetry_space_group_name_H-M    P1
_symmetry_Int_Tables_number       1
_space_group_crystal_system       triclinic
_cell_length_a                    6.937073
_cell_length_b                    14.707127
_cell_length_c                    16.277345
_cell_angle_alpha                 90.552345
_cell_angle_beta                  89.835062
_cell_angle_gamma                 90.088717
_cell_volume                      1660.60061133

loop_
_atom_site_label
_atom_site_type_symbol
_atom_type_description
_atom_site_fract_x
_atom_site_fract_y
_atom_site_fract_z
_atom_type_partial_charge
O1    O     O_R   0.494400 0.416610 0.413880 -0.541589
O2    O     O_R   0.823920 0.406790 0.585520 -0.543043
O3    O     O_R   0.994250 0.583390 0.586120 -0.539478
C1    C     C_R   0.654477 0.383724 0.612172 0.744359
O4    O     O_R   0.824110 0.405730 0.414490 -0.527034
O5    O     O_R   0.994440 0.582310 0.413870 -0.538890
C2    C     C_R   0.655316 0.381247 0.387947 0.763970
O6    O     O_R   0.494210 0.417690 0.586130 -0.544043
O7    O     O_3   0.660810 0.557940 0.500000 -0.374132
V1    V     V_3+5 0.935650 0.489250 0.500000 1.467073
O8    O     O_R   0.324160 0.593210 0.414480 -0.546521
C3    C     C_R   0.156189 0.614147 0.385784 0.758972
O9    O     O_R   0.323970 0.594270 0.585510 -0.540418
C4    C     C_R   0.155028 0.616143 0.613893 0.687694
V2    V     V_3+5 0.435660 0.510750 0.500000 1.442721
O10   O     O_3   0.160630 0.442060 0.500000 -0.369402
H1    H     H_    0.360202 0.917146 0.518740 0.128148
C5    C     C_R   0.027847 0.564782 0.776537 -0.142406
C6    C     C_R   0.965588 0.537653 0.853944 -0.123554
C7    C     C_R   0.954238 0.600491 0.918032 -0.088083
C8    C     C_R   0.004692 0.691030 0.905221 -0.123807
C9    C     C_R   0.066677 0.720941 0.827056 0.057421
C10   C     C_R   0.078669 0.656409 0.761293 0.070194
C11   C     C_R   0.120361 0.812895 0.814256 -0.175494
C12   C     C_R   0.186470 0.840077 0.735574 0.069715
C13   C     C_R   0.198489 0.775528 0.669840 0.067525
C14   C     C_R   0.144469 0.683651 0.682605 -0.177809
C15   C     C_R   0.237797 0.931629 0.720297 -0.147877
C16   C     C_R   0.300892 0.958592 0.642934 -0.117868
C17   C     C_R   0.312416 0.895688 0.578895 -0.106100
C18   C     C_R   0.261088 0.805297 0.591718 -0.134875
H2    H     H_    0.037157 0.512798 0.729243 0.111926
H3    H     H_    0.927287 0.467287 0.864363 0.155524
H4    H     H_    0.228407 0.983662 0.767541 0.114879
H5    H     H_    0.269802 0.759461 0.539489 0.104512
C19   C     C_2   0.989880 0.698366 0.275914 -0.156128
C20   C     C_2   0.152992 0.678752 0.316644 -0.319078
H6    H     H_    0.856790 0.665628 0.295173 0.144232
H7    H     H_    0.290214 0.706569 0.297099 0.144285
C21   C     C_2   0.976753 0.758478 0.202654 0.052284
C22   C     C_2   0.118146 0.817833 0.180630 -0.371677
C23   C     C_2   0.769809 0.206207 0.778700 -0.175352
C24   C     C_2   0.617088 0.194273 0.829807 -0.165494
H8    H     H_    0.889241 0.158622 0.781148 0.154470
C25   C     C_2   0.788842 0.280133 0.717171 -0.091080
C26   C     C_2   0.638304 0.311290 0.673739 -0.274515
H9    H     H_    0.496095 0.282154 0.682775 0.133432
C27   C     C_2   0.758270 0.177312 0.238434 -0.051068
C28   C     C_2   0.621213 0.180030 0.178896 -0.338150
H10   H     H_    0.524403 0.237749 0.175139 0.158255
C29   C     C_2   0.791190 0.256808 0.295345 -0.050228
C30   C     C_2   0.640916 0.305346 0.326914 -0.396773
H11   H     H_    0.495602 0.285677 0.309652 0.178710
O11   O     O_R   0.770210 0.079270 0.910680 -0.543130
O12   O     O_R   0.440150 0.091160 0.082270 -0.534397
O13   O     O_R   0.269970 0.914530 0.082860 -0.544447
C31   C     C_R   0.608831 0.111470 0.111839 0.803474
O14   O     O_R   0.440480 0.090100 0.911240 -0.527656
O15   O     O_R   0.270310 0.913460 0.910610 -0.543129
C32   C     C_R   0.609506 0.114830 0.885648 0.673904
O16   O     O_R   0.769870 0.080340 0.082930 -0.531767
O17   O     O_3   0.603660 0.938980 0.996790 -0.371410
V3    V     V_3+5 0.328750 0.007610 0.996740 1.510611
O18   O     O_R   0.940600 0.902510 0.911180 -0.545578
C33   C     C_R   0.109611 0.880499 0.882930 0.669878
O19   O     O_R   0.940270 0.903570 0.082200 -0.515944
C34   C     C_R   0.108348 0.881490 0.110256 0.747969
V4    V     V_3+5 0.828770 0.986010 0.996670 1.519710
O20   O     O_3   0.103730 0.054750 0.996710 -0.364276
C35   C     C_2   0.797557 0.748629 0.154668 0.762809
O21   O     O_2   0.774826 0.681754 0.110598 -0.582212
O22   O     O_R   0.651863 0.813525 0.162550 -0.635724
H12   H     H_    0.536841 0.798369 0.126747 0.292703
H13   H     H_    0.249135 0.821774 0.216479 0.148648
C36   C     C_2   0.463863 0.264667 0.839409 0.755976
O23   O     O_2   0.294875 0.242054 0.846198 -0.566809
O24   O     O_R   0.513867 0.356838 0.842427 -0.657841
H14   H     H_    0.397532 0.397969 0.848953 0.294050
H15   H     H_    0.932991 0.305211 0.704222 0.145816
C37   C     C_2   0.876518 0.093527 0.250231 0.789806
O25   O     O_2   0.798679 0.018813 0.248806 -0.549126
O26   O     O_R   0.075258 0.099749 0.263223 -0.656977
H16   H     H_    0.138194 0.038059 0.269703 0.291720
C38   C     C_2   0.992885 0.277138 0.318682 0.863407
O27   O     O_2   0.104109 0.307863 0.267577 -0.563076
O28   O     O_R   0.057049 0.257407 0.397875 -0.651954
H17   H     H_    0.198322 0.272602 0.405957 0.288738
H18   H     H_    0.907336 0.578762 0.978196 0.169357
H19   H     H_    0.996030 0.736853 0.957468 0.116507
H20   H     H_    0.339776 0.028875 0.632507 0.122036

loop_
_geom_bond_atom_site_label_1
_geom_bond_atom_site_label_2
_ccdc_geom_bond_type
O19   V4    S    
C6    C7    A    
C1    O6    A    
C22   C34   S    
O11   C32   A    
O24   H14   S    
C12   C15   A    
C13   C14   A    
C16   C17   A    
C21   C35   S    
O18   V4    S    
C19   C20   D    
C38   O28   S    
C2    C30   S    
O5    C3    A    
C17   C18   A    
O11   V4    S    
O14   C32   A    
V2    O10   S    
C28   C31   S    
C5    C6    A    
C3    C20   S    
C22   H13   S    
O8    V2    S    
C27   C29   S    
V3    O20   S    
V4    O20   S    
O12   V3    S    
C35   O21   D    
O1    V2    S    
C10   C14   A    
C4    C14   S    
O7    V1    S    
O19   C34   A    
C15   H4    S    
C13   C18   A    
O9    C4    A    
H1    C17   S    
C23   H8    S    
C16   H20   S    
C24   C36   S    
C5    C10   A    
C19   C21   S    
C38   O27   D    
C37   O26   S    
C6    H3    S    
O4    C2    A    
O28   H17   S    
O22   H12   S    
C1    C26   S    
C12   C13   A    
C25   C26   D    
C29   C30   D    
C23   C25   S    
O2    C1    A    
C36   O23   D    
O17   V3    S    
O13   V3    S    
C25   H15   S    
C11   C12   A    
C36   O24   S    
O3    C4    A    
C24   C32   S    
C11   C33   S    
C21   C22   D    
C28   H10   S    
O6    V2    S    
O9    V2    S    
C18   H5    S    
C5    H2    S    
C23   C24   D    
O2    V1    S    
C30   H11   S    
O14   V3    S    
C26   H9    S    
C15   C16   A    
O1    C2    A    
C8    H19   S    
C37   O25   D    
O5    V1    S    
O8    C3    A    
C31   O16   A    
O13   C34   A    
O15   V3    S    
O17   V4    S    
O18   C33   A    
C27   C37   S    
O12   C31   A    
O7    V2    S    
O4    V1    S    
C20   H7    S    
O3    V1    S    
V1    O10   S    
O15   C33   A    
O16   V4    S    
C27   C28   D    
C7    H18   S    
C19   H6    S    
C9    C11   A    
C7    C8    A    
O26   H16   S    
C9    C10   A    
C35   O22   S    
C8    C9    A    
C29   C38   S    
