data_str_m12_o4_o4_f0_bcu.sym.90
_audit_creation_date              2012-12-11T17:08:00-0500
_audit_creation_method            fapswitch 2.2
_symmetry_space_group_name_H-M    P1
_symmetry_Int_Tables_number       1
_space_group_crystal_system       triclinic
_cell_length_a                    17.160956
_cell_length_b                    17.160931
_cell_length_c                    17.29686
_cell_angle_alpha                 90.000108
_cell_angle_beta                  89.999905
_cell_angle_gamma                 89.999849
_cell_volume                      5093.89036162

loop_
_atom_site_label
_atom_site_type_symbol
_atom_type_description
_atom_site_fract_x
_atom_site_fract_y
_atom_site_fract_z
_atom_type_partial_charge
C1    C     C_R   0.394246 0.301812 0.899566 -0.092936
C2    C     C_R   0.667268 0.425488 0.854713 -0.004798
C3    C     C_R   0.605754 0.698187 0.899565 -0.092937
C4    C     C_R   0.332728 0.574514 0.854715 -0.004806
C5    C     C_R   0.425488 0.667269 0.145286 -0.004803
C6    C     C_R   0.698188 0.605755 0.100431 -0.092885
C7    C     C_R   0.574513 0.332731 0.145286 -0.004800
C8    C     C_R   0.301812 0.394246 0.100435 -0.092939
C9    C     C_R   0.925486 0.832728 0.354715 -0.004801
C10   C     C_R   0.198188 0.894245 0.399567 -0.092926
C11   C     C_R   0.074512 0.167269 0.354714 -0.004801
C12   C     C_R   0.801812 0.105755 0.399568 -0.092918
C13   C     C_R   0.894245 0.198188 0.600433 -0.092937
C14   C     C_R   0.167268 0.074512 0.645287 -0.004792
C15   C     C_R   0.105756 0.801811 0.600428 -0.092878
C16   C     C_R   0.832732 0.925488 0.645287 -0.004799
C17   C     C_3   0.865067 0.342671 0.707367 0.992822
C18   C     C_3   0.684538 0.898334 0.744457 0.961496
C19   C     C_3   0.134929 0.657340 0.707371 0.992799
C20   C     C_3   0.315461 0.101668 0.744454 0.961496
C21   C     C_3   0.898329 0.684531 0.255545 0.961453
C22   C     C_3   0.657337 0.134932 0.292629 0.992827
C23   C     C_3   0.101669 0.315462 0.255545 0.961496
C24   C     C_3   0.342667 0.865067 0.292632 0.992842
C25   C     C_3   0.398331 0.815464 0.244455 0.961485
C26   C     C_3   0.157331 0.365067 0.207367 0.992851
C27   C     C_3   0.601673 0.184535 0.244451 0.961485
C28   C     C_3   0.842663 0.634930 0.207368 0.992831
C29   C     C_3   0.365066 0.157330 0.792632 0.992846
C30   C     C_3   0.184530 0.601673 0.755549 0.961454
C31   C     C_3   0.634933 0.842669 0.792631 0.992853
C32   C     C_3   0.815462 0.398334 0.755544 0.961493
C33   C     C_R   0.420572 0.670486 0.855474 -0.133660
C34   C     C_R   0.302152 0.392318 0.897988 -0.174894
C35   C     C_R   0.579426 0.329515 0.855473 -0.133656
C36   C     C_R   0.697848 0.607682 0.897988 -0.174894
C37   C     C_R   0.392318 0.302152 0.102013 -0.174895
C38   C     C_R   0.329515 0.579426 0.144527 -0.133655
C39   C     C_R   0.607683 0.697849 0.102010 -0.174903
C40   C     C_R   0.670485 0.420574 0.144527 -0.133655
C41   C     C_R   0.892317 0.197849 0.397989 -0.174900
C42   C     C_R   0.829514 0.920572 0.355474 -0.133662
C43   C     C_R   0.107683 0.802151 0.397988 -0.174908
C44   C     C_R   0.170485 0.079426 0.355474 -0.133660
C45   C     C_R   0.920574 0.829515 0.644527 -0.133646
C46   C     C_R   0.802151 0.107683 0.602011 -0.174897
C47   C     C_R   0.079426 0.170485 0.644527 -0.133661
C48   C     C_R   0.197849 0.892316 0.602008 -0.174906
C49   C     C_R   0.317036 0.314663 0.883090 0.019946
C50   C     C_R   0.637863 0.364708 0.811671 0.019505
C51   C     C_R   0.682964 0.685337 0.883090 0.019945
C52   C     C_R   0.362133 0.635295 0.811674 0.019504
C53   C     C_R   0.364708 0.637864 0.188328 0.019510
C54   C     C_R   0.685338 0.682965 0.116904 0.019958
C55   C     C_R   0.635293 0.362136 0.188328 0.019507
C56   C     C_R   0.314663 0.317037 0.116910 0.019951
C57   C     C_R   0.864707 0.862133 0.311673 0.019504
C58   C     C_R   0.185337 0.817036 0.383091 0.019951
C59   C     C_R   0.135293 0.137863 0.311672 0.019513
C60   C     C_R   0.814663 0.182965 0.383093 0.019948
C61   C     C_R   0.817036 0.185337 0.616908 0.019951
C62   C     C_R   0.137863 0.135292 0.688329 0.019515
C63   C     C_R   0.182966 0.814661 0.616901 0.019948
C64   C     C_R   0.862137 0.864708 0.688329 0.019504
C65   C     C_R   0.744582 0.363499 0.714824 -0.361872
C66   C     C_R   0.709740 0.815802 0.830148 -0.242279
C67   C     C_R   0.255413 0.636505 0.714829 -0.361897
C68   C     C_R   0.290260 0.184196 0.830150 -0.242290
C69   C     C_R   0.815802 0.709738 0.169851 -0.242254
C70   C     C_R   0.636502 0.255416 0.285174 -0.361872
C71   C     C_R   0.184197 0.290260 0.169850 -0.242281
C72   C     C_R   0.363500 0.744583 0.285177 -0.361878
C73   C     C_R   0.315804 0.790260 0.330151 -0.242270
C74   C     C_R   0.136501 0.244582 0.214823 -0.361870
C75   C     C_R   0.684198 0.209739 0.330148 -0.242277
C76   C     C_R   0.863498 0.755414 0.214825 -0.361889
C77   C     C_R   0.244581 0.136501 0.785177 -0.361865
C78   C     C_R   0.209737 0.684200 0.669853 -0.242270
C79   C     C_R   0.755418 0.863500 0.785177 -0.361872
C80   C     C_R   0.790260 0.315803 0.669852 -0.242297
C81   C     C_R   0.670624 0.338173 0.738571 0.137833
C82   C     C_R   0.737613 0.744982 0.858462 0.100778
C83   C     C_R   0.329372 0.661830 0.738574 0.137815
C84   C     C_R   0.262387 0.255017 0.858463 0.100799
C85   C     C_R   0.744984 0.737613 0.141535 0.100804
C86   C     C_R   0.661827 0.329375 0.261429 0.137811
C87   C     C_R   0.255017 0.262387 0.141538 0.100813
C88   C     C_R   0.338174 0.670624 0.261430 0.137830
C89   C     C_R   0.244983 0.762386 0.358464 0.100798
C90   C     C_R   0.161828 0.170624 0.238571 0.137837
C91   C     C_R   0.755017 0.237614 0.358463 0.100794
C92   C     C_R   0.838172 0.829373 0.238572 0.137816
C93   C     C_R   0.170623 0.161828 0.761430 0.137829
C94   C     C_R   0.237613 0.755016 0.641534 0.100792
C95   C     C_R   0.829377 0.838174 0.761430 0.137800
C96   C     C_R   0.762387 0.244983 0.641537 0.100814
C97   C     C_R   0.229786 0.682059 0.351515 -0.144380
C98   C     C_R   0.224159 0.136363 0.197861 -0.174843
C99   C     C_R   0.770213 0.317941 0.351516 -0.144366
C100  C     C_R   0.775843 0.863636 0.197860 -0.174835
C101  C     C_R   0.136363 0.224159 0.802140 -0.174824
C102  C     C_R   0.317941 0.770212 0.648482 -0.144371
C103  C     C_R   0.863638 0.775842 0.802141 -0.174809
C104  C     C_R   0.682059 0.229785 0.648485 -0.144374
C105  C     C_R   0.636363 0.275842 0.697860 -0.174824
C106  C     C_R   0.817941 0.729785 0.851514 -0.144339
C107  C     C_R   0.363635 0.724158 0.697861 -0.174809
C108  C     C_R   0.182060 0.270216 0.851515 -0.144361
C109  C     C_R   0.729787 0.817941 0.148484 -0.144382
C110  C     C_R   0.724156 0.363638 0.302142 -0.174824
C111  C     C_R   0.270216 0.182060 0.148486 -0.144381
C112  C     C_R   0.275844 0.636363 0.302141 -0.174827
H1    H     H_    0.422391 0.246207 0.907396 0.171395
H2    H     H_    0.709255 0.468269 0.836957 0.138768
H3    H     H_    0.577609 0.753792 0.907396 0.171396
H4    H     H_    0.290739 0.531736 0.836961 0.138764
H5    H     H_    0.468267 0.709258 0.163040 0.138758
H6    H     H_    0.753793 0.577609 0.092599 0.171395
H7    H     H_    0.531734 0.290741 0.163040 0.138758
H8    H     H_    0.246207 0.422391 0.092605 0.171397
H9    H     H_    0.968265 0.790738 0.336961 0.138761
H10   H     H_    0.253792 0.922390 0.407398 0.171394
H11   H     H_    0.031733 0.209257 0.336959 0.138762
H12   H     H_    0.746207 0.077610 0.407398 0.171393
H13   H     H_    0.922391 0.253793 0.592603 0.171395
H14   H     H_    0.209255 0.031732 0.663042 0.138766
H15   H     H_    0.077610 0.746207 0.592597 0.171393
H16   H     H_    0.790744 0.968268 0.663041 0.138758
H17   H     H_    0.456694 0.719420 0.839441 0.152263
H18   H     H_    0.245540 0.419701 0.901533 0.147031
H19   H     H_    0.543304 0.280581 0.839440 0.152268
H20   H     H_    0.754459 0.580299 0.901533 0.147035
H21   H     H_    0.419701 0.245540 0.098467 0.147028
H22   H     H_    0.280582 0.543304 0.160560 0.152266
H23   H     H_    0.580299 0.754460 0.098465 0.147031
H24   H     H_    0.719418 0.456696 0.160560 0.152279
H25   H     H_    0.919701 0.254460 0.401534 0.147032
H26   H     H_    0.780581 0.956695 0.339441 0.152271
H27   H     H_    0.080300 0.745540 0.401533 0.147029
H28   H     H_    0.219419 0.043304 0.339441 0.152268
H29   H     H_    0.956697 0.780582 0.660560 0.152277
H30   H     H_    0.745540 0.080299 0.598466 0.147030
H31   H     H_    0.043304 0.219419 0.660559 0.152266
H32   H     H_    0.254460 0.919700 0.598464 0.147036
H33   H     H_    0.177689 0.656534 0.375949 0.150773
H34   H     H_    0.243127 0.077695 0.210763 0.165714
H35   H     H_    0.822309 0.343467 0.375952 0.150770
H36   H     H_    0.756878 0.922305 0.210761 0.165722
H37   H     H_    0.077694 0.243127 0.789238 0.165718
H38   H     H_    0.343467 0.822307 0.624045 0.150780
H39   H     H_    0.922308 0.756876 0.789241 0.165742
H40   H     H_    0.656535 0.177687 0.624051 0.150774
H41   H     H_    0.577693 0.256876 0.710761 0.165712
H42   H     H_    0.843465 0.677687 0.875948 0.150775
H43   H     H_    0.422305 0.743123 0.710762 0.165709
H44   H     H_    0.156535 0.322314 0.875949 0.150777
H45   H     H_    0.677691 0.843467 0.124048 0.150774
H46   H     H_    0.743120 0.422308 0.289243 0.165738
H47   H     H_    0.322314 0.156535 0.124053 0.150772
H48   H     H_    0.256878 0.577694 0.289239 0.165709
N1    N     N_R   0.425360 0.368540 0.922560 -0.053650
N2    N     N_R   0.631460 0.425360 0.922560 -0.048021
N3    N     N_R   0.574640 0.631460 0.922560 -0.053648
N4    N     N_R   0.368540 0.574640 0.922560 -0.048020
N5    N     N_R   0.425360 0.631460 0.077440 -0.048021
N6    N     N_R   0.631460 0.574640 0.077440 -0.053655
N7    N     N_R   0.574640 0.368540 0.077440 -0.048021
N8    N     N_R   0.368540 0.425360 0.077440 -0.053650
N9    N     N_R   0.925360 0.868540 0.422560 -0.048021
N10   N     N_R   0.131460 0.925360 0.422560 -0.053650
N11   N     N_R   0.074640 0.131460 0.422560 -0.048021
N12   N     N_R   0.868540 0.074640 0.422560 -0.053650
N13   N     N_R   0.925360 0.131460 0.577440 -0.053649
N14   N     N_R   0.131460 0.074640 0.577440 -0.048022
N15   N     N_R   0.074640 0.868540 0.577440 -0.053654
N16   N     N_R   0.868540 0.925360 0.577440 -0.048021
N17   N     N_R   0.425340 0.631500 0.922560 -0.045597
N18   N     N_R   0.368500 0.425340 0.922560 -0.051936
N19   N     N_R   0.574660 0.368500 0.922560 -0.045598
N20   N     N_R   0.631500 0.574660 0.922560 -0.051939
N21   N     N_R   0.425340 0.368500 0.077440 -0.051938
N22   N     N_R   0.368500 0.574660 0.077440 -0.045597
N23   N     N_R   0.574660 0.631500 0.077440 -0.051939
N24   N     N_R   0.631500 0.425340 0.077440 -0.045599
N25   N     N_R   0.925340 0.131500 0.422560 -0.051938
N26   N     N_R   0.868500 0.925340 0.422560 -0.045598
N27   N     N_R   0.074660 0.868500 0.422560 -0.051938
N28   N     N_R   0.131500 0.074660 0.422560 -0.045598
N29   N     N_R   0.925340 0.868500 0.577440 -0.045599
N30   N     N_R   0.868500 0.074660 0.577440 -0.051938
N31   N     N_R   0.074660 0.131500 0.577440 -0.045598
N32   N     N_R   0.131500 0.925340 0.577440 -0.051939
Ni1   Ni    Ni4+2 0.500000 0.369720 0.000000 0.242281
Ni2   Ni    Ni4+2 0.630280 0.500000 0.000000 0.242283
Ni3   Ni    Ni4+2 0.500000 0.630280 0.000000 0.242280
Ni4   Ni    Ni4+2 0.369720 0.500000 0.000000 0.242287
Ni5   Ni    Ni4+2 0.000000 0.869720 0.500000 0.242284
Ni6   Ni    Ni4+2 0.130280 1.000000 0.500000 0.242280
Ni7   Ni    Ni4+2 1.000000 0.130280 0.500000 0.242279
Ni8   Ni    Ni4+2 0.869720 1.000000 0.500000 0.242280
O1    O     O_3   0.909967 0.287716 0.751056 -0.642218
C113  C     C_3   0.866985 0.231007 0.793255 0.204923
H49   H     H_    0.869123 0.174627 0.762047 0.110824
H50   H     H_    0.804849 0.245936 0.803076 0.128699
C114  C     C_3   0.904941 0.218626 0.871803 -0.781341
H51   H     H_    0.906255 0.274166 0.904675 0.297673
H52   H     H_    0.871255 0.174894 0.905330 0.189869
H53   H     H_    0.965402 0.196941 0.864399 0.230146
O2    O     O_3   0.665836 0.978365 0.758332 -0.591232
C115  C     C_3   0.711753 0.014251 0.816293 0.225411
H54   H     H_    0.774130 0.015806 0.798771 0.069569
H55   H     H_    0.705468 0.983214 0.872435 0.147043
C116  C     C_3   0.684584 0.097774 0.827661 -0.782171
H56   H     H_    0.621882 0.098910 0.843531 0.300012
H57   H     H_    0.718906 0.125794 0.874454 0.193806
H58   H     H_    0.693275 0.131117 0.773532 0.234179
O3    O     O_3   0.090037 0.712305 0.751057 -0.642239
C117  C     C_3   0.133031 0.769002 0.793260 0.204973
H59   H     H_    0.130949 0.825377 0.762031 0.110775
H60   H     H_    0.195156 0.754034 0.803118 0.128742
C118  C     C_3   0.095032 0.781431 0.871783 -0.781223
H61   H     H_    0.093581 0.725876 0.904641 0.297624
H62   H     H_    0.128780 0.825091 0.905347 0.189900
H63   H     H_    0.034612 0.803242 0.864335 0.230029
O4    O     O_3   0.334159 0.021635 0.758322 -0.591249
C119  C     C_3   0.288256 0.985754 0.816298 0.225423
H64   H     H_    0.225871 0.984211 0.798798 0.069571
H65   H     H_    0.294567 0.016789 0.872440 0.147070
C120  C     C_3   0.315414 0.902225 0.827649 -0.782144
H66   H     H_    0.378131 0.901074 0.843476 0.300021
H67   H     H_    0.281116 0.874216 0.874468 0.193805
H68   H     H_    0.306675 0.868879 0.773523 0.234127
O5    O     O_3   0.978360 0.665827 0.241670 -0.591225
C121  C     C_3   0.014246 0.711743 0.183709 0.225415
H69   H     H_    0.015801 0.774121 0.201229 0.069562
H70   H     H_    0.983209 0.705456 0.127566 0.147042
C122  C     C_3   0.097769 0.684573 0.172344 -0.782107
H71   H     H_    0.098905 0.621865 0.156485 0.300016
H72   H     H_    0.125786 0.718888 0.125543 0.193804
H73   H     H_    0.131116 0.693276 0.226473 0.234152
O6    O     O_3   0.712297 0.090037 0.248941 -0.642235
C123  C     C_3   0.769004 0.133025 0.206745 0.204958
H74   H     H_    0.825388 0.130887 0.237956 0.110790
H75   H     H_    0.754069 0.195166 0.196930 0.128667
C124  C     C_3   0.781382 0.095070 0.128190 -0.781098
H76   H     H_    0.725830 0.093747 0.095317 0.297644
H77   H     H_    0.825105 0.128773 0.094664 0.189842
H78   H     H_    0.803087 0.034604 0.135588 0.230089
O7    O     O_3   0.021636 0.334162 0.241675 -0.591243
C125  C     C_3   0.985752 0.288254 0.183706 0.225395
H79   H     H_    0.984199 0.225873 0.201218 0.069567
H80   H     H_    0.016791 0.294548 0.127565 0.147056
C126  C     C_3   0.902229 0.315423 0.172344 -0.782100
H81   H     H_    0.901091 0.378134 0.156493 0.300016
H82   H     H_    0.874215 0.281113 0.125537 0.193802
H83   H     H_    0.868881 0.306713 0.226472 0.234147
O8    O     O_3   0.287708 0.909964 0.248944 -0.642239
C127  C     C_3   0.231002 0.866977 0.206746 0.204938
H84   H     H_    0.174614 0.869127 0.237950 0.110800
H85   H     H_    0.245930 0.804834 0.196940 0.128653
C128  C     C_3   0.218639 0.904923 0.128185 -0.781067
H86   H     H_    0.274192 0.906214 0.095310 0.297647
H87   H     H_    0.174898 0.871232 0.094666 0.189827
H88   H     H_    0.196962 0.965402 0.135572 0.230105
O9    O     O_3   0.478362 0.834167 0.258327 -0.591237
C129  C     C_3   0.514250 0.788256 0.316291 0.225397
H89   H     H_    0.515813 0.725878 0.298770 0.069573
H90   H     H_    0.483207 0.794538 0.372432 0.147038
C130  C     C_3   0.597768 0.815437 0.327663 -0.782085
H91   H     H_    0.598893 0.878140 0.343540 0.300008
H92   H     H_    0.625789 0.781113 0.374455 0.193779
H93   H     H_    0.631117 0.806755 0.273531 0.234175
O10   O     O_3   0.212286 0.409967 0.251054 -0.642226
C131  C     C_3   0.268996 0.366986 0.293254 0.204872
H94   H     H_    0.325381 0.369146 0.262058 0.110841
H95   H     H_    0.254080 0.304845 0.303057 0.128675
C132  C     C_3   0.281350 0.404925 0.371813 -0.781273
H96   H     H_    0.225804 0.406199 0.404681 0.297693
H97   H     H_    0.325098 0.371248 0.405332 0.189852
H98   H     H_    0.303005 0.465401 0.364430 0.230158
O11   O     O_3   0.521641 0.165832 0.258320 -0.591241
C133  C     C_3   0.485756 0.211737 0.316291 0.225387
H99   H     H_    0.484195 0.274118 0.298779 0.069569
H100  H     H_    0.516797 0.205447 0.372431 0.147050
C134  C     C_3   0.402236 0.184560 0.327659 -0.782071
H101  H     H_    0.401106 0.121852 0.343522 0.300009
H102  H     H_    0.374218 0.218875 0.374460 0.193799
H103  H     H_    0.368886 0.193256 0.273529 0.234165
O12   O     O_3   0.787698 0.590036 0.251050 -0.642253
C135  C     C_3   0.731004 0.633026 0.293261 0.204924
H104  H     H_    0.674623 0.630922 0.262051 0.110799
H105  H     H_    0.745957 0.695155 0.303102 0.128728
C136  C     C_3   0.718607 0.595042 0.371793 -0.781211
H106  H     H_    0.774172 0.593600 0.404631 0.297664
H107  H     H_    0.674956 0.628791 0.405367 0.189903
H108  H     H_    0.696802 0.534618 0.364362 0.230026
O13   O     O_3   0.409967 0.212285 0.748945 -0.642218
C137  C     C_3   0.366987 0.268996 0.706747 0.204868
H109  H     H_    0.369147 0.325380 0.737944 0.110845
H110  H     H_    0.304847 0.254081 0.696943 0.128679
C138  C     C_3   0.404925 0.281354 0.628189 -0.781304
H111  H     H_    0.406197 0.225811 0.595320 0.297696
H112  H     H_    0.371252 0.325104 0.594672 0.189857
H113  H     H_    0.465401 0.303005 0.635572 0.230167
O14   O     O_3   0.165830 0.521641 0.741673 -0.591234
C139  C     C_3   0.211738 0.485760 0.683701 0.225435
H114  H     H_    0.274121 0.484213 0.701207 0.069563
H115  H     H_    0.205434 0.516798 0.627560 0.147058
C140  C     C_3   0.184578 0.402232 0.672343 -0.782092
H116  H     H_    0.121860 0.401085 0.656511 0.300015
H117  H     H_    0.218879 0.374226 0.625523 0.193815
H118  H     H_    0.193312 0.368881 0.726468 0.234121
O15   O     O_3   0.590034 0.787715 0.748940 -0.642219
C141  C     C_3   0.633018 0.731005 0.706743 0.204907
H119  H     H_    0.630868 0.674624 0.737947 0.110833
H120  H     H_    0.695156 0.745928 0.696933 0.128681
C142  C     C_3   0.595072 0.718634 0.628189 -0.781330
H121  H     H_    0.593798 0.774170 0.595310 0.297673
H122  H     H_    0.628741 0.674879 0.594674 0.189856
H123  H     H_    0.534598 0.696985 0.635579 0.230175
O16   O     O_3   0.834157 0.478367 0.741671 -0.591249
C143  C     C_3   0.788253 0.514245 0.683694 0.225417
H124  H     H_    0.725867 0.515786 0.701193 0.069569
H125  H     H_    0.794565 0.483208 0.627553 0.147070
C144  C     C_3   0.815406 0.597775 0.672340 -0.782119
H126  H     H_    0.878126 0.598929 0.656521 0.300020
H127  H     H_    0.781112 0.625777 0.625513 0.193831
H128  H     H_    0.806657 0.631125 0.726461 0.234111
F1    F     F_    0.911976 0.381984 0.655113 -0.688795
F2    F     F_    0.680240 0.881838 0.666192 -0.718263
F3    F     F_    0.088015 0.618029 0.655120 -0.688787
F4    F     F_    0.319757 0.118170 0.666190 -0.718271
F5    F     F_    0.881834 0.680232 0.333811 -0.718254
F6    F     F_    0.618023 0.088019 0.344879 -0.688790
F7    F     F_    0.118169 0.319759 0.333809 -0.718275
F8    F     F_    0.381979 0.911979 0.344884 -0.688787
F9    F     F_    0.381830 0.819761 0.166191 -0.718276
F10   F     F_    0.118016 0.411975 0.155114 -0.688785
F11   F     F_    0.618175 0.180238 0.166186 -0.718264
F12   F     F_    0.881974 0.588018 0.155115 -0.688781
F13   F     F_    0.411975 0.118014 0.844885 -0.688787
F14   F     F_    0.180229 0.618168 0.833815 -0.718234
F15   F     F_    0.588023 0.881981 0.844885 -0.688778
F16   F     F_    0.819762 0.381837 0.833809 -0.718253

loop_
_geom_bond_atom_site_label_1
_geom_bond_atom_site_label_2
_ccdc_geom_bond_type
C143  H125  S    
C11   N11   A    
C135  C136  S    
C9    N9    A    
C28   C69   S    
C7    C55   A    
C8    C56   A    
C12   N12   A    
C138  H111  S    
C13   N13   A    
C66   C79   A    
C21   C76   S    
C133  H99   S    
C86   C110  A    
C143  C144  S    
C42   H26   S    
C125  H80   S    
C47   H31   S    
C48   H32   S    
C131  H94   S    
C8    N8    A    
C43   C58   A    
C29   O13   S    
C37   C56   A    
N10   N27   A    
C9    H9    S    
C121  H70   S    
C19   O3    S    
N32   Ni6   S    
C112  H48   S    
N14   N31   A    
C13   H13   S    
C125  C126  S    
C27   F11   S    
C100  C109  A    
C15   H15   S    
C124  H76   S    
C26   C71   S    
C1    H1    S    
C6    C54   A    
N5    Ni3   S    
C104  C105  A    
C116  H57   S    
C123  C124  S    
C113  H49   S    
C7    H7    S    
C93   C101  A    
C97   C112  A    
C48   C63   A    
C141  H119  S    
C99   C110  A    
C121  C122  S    
C142  H123  S    
C120  H66   S    
C66   C82   A    
C29   C68   S    
C43   N27   A    
C40   C55   A    
C37   N21   A    
C128  H88   S    
C139  H114  S    
C17   O1    S    
C20   C77   S    
C21   C28   S    
C22   C27   S    
C96   C104  A    
C120  H67   S    
C137  H109  S    
C126  H82   S    
N19   Ni1   S    
C138  H113  S    
N29   Ni5   S    
C68   C77   A    
C99   H35   S    
N17   Ni3   S    
C97   H33   S    
C24   F8    S    
C72   C73   A    
C10   H10   S    
C28   O12   S    
C136  H108  S    
C14   H14   S    
C74   C90   A    
C55   C86   S    
C134  H102  S    
C2    H2    S    
C104  H40   S    
N16   N29   A    
C38   C53   A    
C78   C94   A    
C5    N5    A    
C38   H22   S    
C58   C89   S    
C94   C102  A    
C14   N14   A    
O16   C143  S    
C62   C93   S    
C89   C97   A    
C17   C32   S    
C18   C31   S    
C19   C30   S    
C22   O6    S    
C107  H43   S    
C50   C81   S    
C32   C65   S    
C105  H41   S    
C67   C83   A    
C57   C92   S    
C109  H45   S    
C2    N2    A    
C47   C62   A    
C61   C96   S    
C18   F2    S    
C33   C52   A    
C63   C94   S    
O7    C125  S    
C118  H61   S    
C49   C84   S    
C10   C58   A    
C120  H68   S    
C36   H20   S    
C126  H81   S    
C39   C54   A    
C44   C59   A    
C14   C62   A    
C69   C76   A    
O8    C127  S    
C144  H127  S    
C2    C50   A    
C117  H60   S    
O5    C121  S    
C30   C67   S    
C75   C91   A    
C19   F3    S    
C132  H96   S    
N7    Ni1   S    
C95   C103  A    
O12   C135  S    
C140  H117  S    
C35   N19   A    
C81   C105  A    
C33   N17   A    
N15   N32   A    
O3    C117  S    
N18   Ni4   S    
C17   C80   S    
C19   C78   S    
C136  H106  S    
N23   Ni3   S    
N7    N24   A    
N12   N25   A    
O2    C115  S    
N1    Ni1   S    
C102  C107  A    
N25   Ni7   S    
C27   C70   S    
C129  H90   S    
C76   C92   A    
N8    N21   A    
C115  H55   S    
C124  H78   S    
C23   C74   S    
C69   C85   A    
C20   F4    S    
C117  C118  S    
N9    Ni5   S    
C7    N7    A    
C34   C49   A    
N6    Ni2   S    
C41   C60   A    
C129  C130  S    
C126  H83   S    
N4    Ni4   S    
C3    N3    A    
C30   F14   S    
C115  C116  S    
C45   C64   A    
C133  H100  S    
C38   N22   A    
C122  H72   S    
C127  H84   S    
C25   F9    S    
C101  C108  A    
N24   Ni2   S    
N12   Ni8   S    
C131  H95   S    
C82   C106  A    
C133  C134  S    
C119  H64   S    
C132  H98   S    
C70   C75   A    
C91   C99   A    
C32   F16   S    
C6    N6    A    
N13   Ni7   S    
C131  C132  S    
C36   N20   A    
N30   Ni8   S    
C46   H30   S    
C39   H23   S    
C116  H56   S    
C40   H24   S    
C92   C100  A    
C113  H50   S    
N11   N28   A    
N5    N22   A    
N9    N26   A    
C118  H63   S    
C85   C109  A    
C24   C73   S    
C114  H53   S    
C87   C111  A    
C141  H120  S    
N13   N30   A    
C135  H104  S    
O13   C137  S    
C23   C26   S    
C142  H122  S    
C111  H47   S    
N15   Ni5   S    
C21   O5    S    
C18   C79   S    
C106  H42   S    
C113  C114  S    
C139  H115  S    
N21   Ni1   S    
C41   H25   S    
C110  H46   S    
C103  H39   S    
C16   N16   A    
C141  C142  S    
C143  H124  S    
C1    N1    A    
C44   H28   S    
C130  H91   S    
C45   H29   S    
N26   Ni8   S    
C137  H110  S    
N16   Ni8   S    
C11   C59   A    
C42   C57   A    
C138  H112  S    
C139  C140  S    
C46   C61   A    
C68   C84   A    
C18   O2    S    
C21   F5    S    
C123  H75   S    
C3    C51   A    
C23   F7    S    
C125  H79   S    
C114  H51   S    
C24   O8    S    
C137  C138  S    
C52   C83   S    
C79   C95   A    
C134  H101  S    
C26   O10   S    
C65   C81   A    
C108  H44   S    
N3    Ni3   S    
C123  H74   S    
C102  H38   S    
C71   C87   A    
C4    C52   A    
C124  H77   S    
C34   N18   A    
C121  H69   S    
C35   H19   S    
C116  H58   S    
C33   H17   S    
C4    H4    S    
C11   H11   S    
N6    N23   A    
C71   C74   A    
C10   N10   A    
C73   C89   A    
C23   O7    S    
C3    H3    S    
C17   F1    S    
O15   C141  S    
C128  H86   S    
C77   C93   A    
C84   C108  A    
C47   N31   A    
C144  H126  S    
C48   N32   A    
C31   F15   S    
C88   C112  A    
C26   F10   S    
C22   F6    S    
C118  H62   S    
O14   C139  S    
C130  H93   S    
N1    N18   A    
C39   N23   A    
C6    H6    S    
C40   N24   A    
C31   C66   S    
O1    C113  S    
C140  H116  S    
N27   Ni5   S    
C5    C53   A    
C140  H118  S    
C30   O14   S    
N31   Ni7   S    
O6    C123  S    
C134  H103  S    
N11   Ni7   S    
C4    N4    A    
C43   H27   S    
N28   Ni6   S    
C80   C96   A    
O9    C129  S    
C135  H105  S    
C42   N26   A    
C65   C80   A    
C67   C78   A    
C22   C75   S    
C46   N30   A    
C72   C88   A    
C20   C29   S    
N14   Ni6   S    
C24   C25   S    
C128  H87   S    
C56   C87   S    
C98   H34   S    
O11   C133  S    
C20   O4    S    
C5    H5    S    
C32   O16   S    
C59   C90   S    
C144  H128  S    
C127  H85   S    
C28   F12   S    
C12   H12   S    
N2    Ni2   S    
C35   C50   A    
O4    C119  S    
C41   N25   A    
C25   C72   S    
C16   H16   S    
C51   C82   S    
N2    N19   A    
C36   C51   A    
C44   N28   A    
C45   N29   A    
C53   C88   S    
C119  H65   S    
C132  H97   S    
C37   H21   S    
C122  H73   S    
C127  C128  S    
N22   Ni4   S    
C70   C86   A    
N10   Ni6   S    
N20   Ni2   S    
C8    H8    S    
C60   C91   S    
C98   C111  A    
C64   C95   S    
C27   O11   S    
C54   C85   S    
C25   O9    S    
C119  C120  S    
C29   F13   S    
C15   N15   A    
C130  H92   S    
C136  H107  S    
C31   O15   S    
C117  H59   S    
C100  H36   S    
C101  H37   S    
C83   C107  A    
C103  C106  A    
C9    C57   A    
C142  H121  S    
C129  H89   S    
C12   C60   A    
C13   C61   A    
C34   H18   S    
C115  H54   S    
N8    Ni4   S    
N3    N20   A    
C15   C63   A    
C16   C64   A    
C122  H71   S    
C114  H52   S    
C1    C49   A    
C90   C98   A    
N4    N17   A    
O10   C131  S    
