data_str_m3_o10_o16_f0_pcu.sym.85
_audit_creation_date              2012-12-10T16:51:33-0500
_audit_creation_method            fapswitch 2.2
_symmetry_space_group_name_H-M    P1
_symmetry_Int_Tables_number       1
_space_group_crystal_system       triclinic
_cell_length_a                    7.822407
_cell_length_b                    8.561581
_cell_length_c                    12.117615
_cell_angle_alpha                 92.329335
_cell_angle_beta                  101.175324
_cell_angle_gamma                 94.127135
_cell_volume                      792.853652474

loop_
_atom_site_label
_atom_site_type_symbol
_atom_type_description
_atom_site_fract_x
_atom_site_fract_y
_atom_site_fract_z
_atom_type_partial_charge
C1    C     C_R   0.040915 0.793746 0.490318 0.942032
C2    C     C_R   0.158991 0.503961 0.831970 -0.120343
C3    C     C_2   0.060289 0.957608 0.485481 -0.477729
C4    C     C_R   0.105987 0.503627 0.710286 0.855019
C5    C     C_2   0.918454 0.041164 0.468093 -0.195729
C6    C     C_R   0.951975 0.204817 0.495103 0.942795
C7    C     C_R   0.892356 0.488259 0.289715 0.847432
C8    C     C_R   0.810550 0.287120 0.003581 -0.187852
C9    C     C_R   0.829792 0.456526 0.170275 -0.060281
C10   C     C_R   0.072721 0.594769 0.899537 -0.179368
C11   C     C_R   0.143692 0.624754 0.013104 -0.128277
C12   C     C_R   0.395839 0.483419 0.990030 0.080682
C13   C     C_R   0.305576 0.572675 0.058109 -0.194443
C14   C     C_2   0.739532 0.977363 0.408423 0.430552
C15   C     C_R   0.310462 0.433127 0.880075 0.074903
C16   C     C_R   0.568381 0.443053 0.027104 0.085934
C17   C     C_R   0.641742 0.332225 0.963283 0.163252
C18   C     C_R   0.544201 0.266304 0.861584 -0.239493
C19   C     C_R   0.380414 0.316371 0.820090 -0.199478
C20   C     C_R   0.671248 0.512745 0.125371 -0.265850
C21   C     C_R   0.903007 0.346340 0.108744 -0.180437
H1    H     H_    0.026772 0.301424 0.143826 0.160902
H2    H     H_    0.308270 0.261604 0.741079 0.169663
H3    H     H_    0.192954 0.010631 0.514444 0.202495
H4    H     H_    0.722104 0.869550 0.355739 0.079277
H5    H     H_    0.469810 0.375109 0.416329 0.221403
H6    H     H_    0.530185 0.624948 0.583626 0.196631
H7    H     H_    0.595697 0.178254 0.813114 0.155595
H8    H     H_    0.867373 0.201608 0.956222 0.138199
H9    H     H_    0.627213 0.606744 0.172137 0.140881
H10   H     H_    0.953645 0.646918 0.863809 0.158406
H11   H     H_    0.354858 0.600532 0.146727 0.143063
H12   H     H_    0.076246 0.693454 0.065547 0.145597
N1    N     N_2   0.434800 0.456690 0.470850 -0.165029
N2    N     N_2   0.565200 0.543310 0.529150 -0.169131
O1    O     O_R   0.893060 0.738880 0.507150 -0.622407
O2    O     O_R   0.172250 0.711130 0.488470 -0.603198
O3    O     O_R   0.944700 0.520730 0.667600 -0.611718
O4    O     O_R   0.223890 0.492980 0.648920 -0.615656
O5    O     O_R   0.827750 0.288870 0.511530 -0.570997
O6    O     O_R   0.106940 0.261120 0.492850 -0.629467
O7    O     O_R   0.776110 0.507020 0.351080 -0.624655
O8    O     O_R   0.055300 0.479270 0.332400 -0.621748
O9    O     O_2   0.610362 0.046218 0.415505 -0.582520
Zn1   Zn    Zn3+2 0.813580 0.518530 0.512470 0.960780
Zn2   Zn    Zn3+2 0.186420 0.481470 0.487530 0.950313

loop_
_geom_bond_atom_site_label_1
_geom_bond_atom_site_label_2
_ccdc_geom_bond_type
C2    C4    S    
O6    Zn2   S    
C4    O4    A    
N1    Zn2   S    
C7    O8    A    
C13   H11   S    
C19   H2    S    
C8    C17   A    
C12   C15   A    
C1    O2    A    
C16   C20   A    
C17   C18   A    
C3    H3    S    
O1    Zn1   S    
C20   H9    S    
C21   H1    S    
C15   C19   A    
C2    C15   A    
C11   C13   A    
C9    C21   A    
C5    C14   S    
C5    C6    S    
O4    Zn2   S    
C8    H8    S    
C4    O3    A    
C8    C21   A    
C14   H4    S    
O5    Zn1   S    
N1    N2    D    
O8    Zn2   S    
C6    O5    A    
C10   C11   A    
O7    Zn1   S    
N2    Zn1   S    
C3    C5    D    
C11   H12   S    
C18   H7    S    
C12   C13   A    
C14   O9    D    
C18   C19   A    
C7    O7    A    
C7    C9    S    
O3    Zn1   S    
C9    C20   A    
H6    N2    S    
O2    Zn2   S    
C10   H10   S    
H5    N1    S    
C12   C16   A    
C1    O1    A    
C16   C17   A    
C1    C3    S    
C6    O6    A    
C2    C10   A    
