data_str_m9_o2_o17_f0_sra.sym.28
_audit_creation_date              2012-12-11T16:26:26-0500
_audit_creation_method            fapswitch 2.2
_symmetry_space_group_name_H-M    P1
_symmetry_Int_Tables_number       1
_space_group_crystal_system       triclinic
_cell_length_a                    6.931339
_cell_length_b                    17.461339
_cell_length_c                    19.579637
_cell_angle_alpha                 108.533067
_cell_angle_beta                  89.830872
_cell_angle_gamma                 90.639094
_cell_volume                      2246.6988153

loop_
_atom_site_label
_atom_site_type_symbol
_atom_type_description
_atom_site_fract_x
_atom_site_fract_y
_atom_site_fract_z
_atom_type_partial_charge
O1    O     O_R   0.494330 0.415720 0.413720 -0.519131
O2    O     O_R   0.819330 0.430070 0.560210 -0.520443
O3    O     O_R   0.994320 0.584280 0.586280 -0.546939
C1    C     C_R   0.651205 0.414502 0.581644 0.823835
O4    O     O_R   0.823730 0.406300 0.412670 -0.532041
O5    O     O_R   0.998760 0.560340 0.437690 -0.547148
C2    C     C_R   0.652881 0.379278 0.387907 0.788855
O6    O     O_R   0.489890 0.439660 0.562310 -0.514378
O7    O     O_3   0.662340 0.550560 0.508380 -0.393315
V1    V     V_3+5 0.935370 0.490620 0.498450 1.543640
O8    O     O_R   0.328750 0.569930 0.439790 -0.554527
C3    C     C_R   0.160665 0.584994 0.418072 0.686323
O9    O     O_R   0.324340 0.593700 0.587330 -0.548744
C4    C     C_R   0.155805 0.616530 0.615038 0.670674
V2    V     V_3+5 0.435940 0.509380 0.501550 1.498559
O10   O     O_3   0.159100 0.449440 0.491620 -0.321256
H1    H     H_    0.388798 0.867312 0.579110 0.162107
C5    C     C_R   0.017588 0.592540 0.746583 -0.158121
C6    C     C_R   0.948472 0.578860 0.808609 -0.126217
C7    C     C_R   0.935553 0.642422 0.872678 -0.109587
C8    C     C_R   0.991606 0.720169 0.875236 -0.142514
C9    C     C_R   0.060299 0.736265 0.812939 0.070805
C10   C     C_R   0.073614 0.671021 0.747154 0.069176
C11   C     C_R   0.119730 0.815298 0.815826 -0.160044
C12   C     C_R   0.193371 0.828801 0.752754 0.014449
C13   C     C_R   0.206171 0.763564 0.686956 0.073894
C14   C     C_R   0.146103 0.684630 0.684032 -0.162792
C15   C     C_R   0.251920 0.907059 0.753447 -0.203306
C16   C     C_R   0.323558 0.920450 0.691521 0.437690
C17   C     C_R   0.334906 0.856826 0.627377 -0.138415
C18   C     C_R   0.275863 0.779439 0.624715 -0.221296
H2    H     H_    0.284792 0.732534 0.573144 0.124178
C19   C     C_R   0.307415 0.633185 0.321254 -0.167787
C20   C     C_R   0.153134 0.634137 0.368537 -0.062697
C21   C     C_R   0.990385 0.681317 0.367474 -0.168455
C22   C     C_R   0.981995 0.727791 0.320651 0.112176
C23   C     C_R   0.136155 0.725683 0.272833 0.088253
C24   C     C_R   0.298853 0.677799 0.272853 0.107698
C25   C     C_R   0.822129 0.776464 0.320800 -0.171372
C26   C     C_R   0.814002 0.822016 0.273566 -0.147467
C27   C     C_R   0.965110 0.819629 0.225100 0.102371
C28   C     C_R   0.127557 0.771550 0.224920 0.089986
C29   C     C_R   0.281775 0.769561 0.177156 0.120525
C30   C     C_R   0.441529 0.720756 0.176933 -0.182654
C31   C     C_R   0.449811 0.675230 0.224238 -0.157711
C32   C     C_R   0.957122 0.864869 0.177235 -0.165336
C33   C     C_R   0.111707 0.864379 0.130234 -0.067461
C34   C     C_R   0.273855 0.816608 0.130742 -0.169544
H3    H     H_    0.432664 0.596482 0.321168 0.128271
H4    H     H_    0.871121 0.682663 0.403782 0.116210
H5    H     H_    0.832176 0.901852 0.177644 0.132628
H6    H     H_    0.561077 0.718263 0.140525 0.135155
H7    H     H_    0.575341 0.638482 0.223200 0.183985
C35   C     C_R   0.468975 0.186502 0.867615 -0.185427
C36   C     C_R   0.623230 0.135635 0.870295 -0.069534
C37   C     C_R   0.782558 0.130750 0.824701 -0.167323
C38   C     C_R   0.786873 0.174582 0.775857 0.102581
C39   C     C_R   0.632597 0.225774 0.773568 0.106902
C40   C     C_R   0.473534 0.232136 0.820108 0.119209
C41   C     C_R   0.942333 0.167315 0.728707 -0.173802
C42   C     C_R   0.945726 0.210059 0.679450 -0.091688
C43   C     C_R   0.793942 0.262158 0.676501 -0.001447
C44   C     C_R   0.636916 0.270274 0.724456 0.003113
C45   C     C_R   0.483278 0.322198 0.723181 0.098215
C46   C     C_R   0.326558 0.328533 0.770196 -0.160953
C47   C     C_R   0.321342 0.283647 0.817994 -0.193873
C48   C     C_R   0.795624 0.306053 0.626945 0.336774
C49   C     C_R   0.645283 0.361516 0.628221 -0.127563
C50   C     C_R   0.489241 0.367624 0.675630 -0.219040
H8    H     H_    0.070219 0.202415 0.644624 0.208841
H9    H     H_    0.197899 0.289149 0.853264 0.127079
C51   C     C_R   0.765403 0.402148 0.254870 -0.205624
C52   C     C_R   0.823750 0.416366 0.191706 0.442633
C53   C     C_R   0.815988 0.354334 0.126385 -0.144588
C54   C     C_R   0.749633 0.277918 0.123772 -0.222173
C55   C     C_R   0.690798 0.261561 0.187082 0.079490
C56   C     C_R   0.699427 0.324649 0.254291 0.001676
C57   C     C_R   0.622244 0.183982 0.183773 -0.107786
C58   C     C_R   0.564119 0.168408 0.247401 -0.029459
C59   C     C_R   0.564782 0.231573 0.315393 -0.013796
C60   C     C_R   0.638606 0.310418 0.318910 -0.128673
C61   C     C_R   0.505764 0.089040 0.243684 -0.208886
C62   C     C_R   0.442304 0.071396 0.304087 0.369049
C63   C     C_R   0.434060 0.131955 0.369453 -0.111233
C64   C     C_R   0.491971 0.210822 0.376032 0.317005
H10   H     H_    0.771066 0.452994 0.303889 0.131344
H11   H     H_    0.509107 0.039206 0.193868 0.150054
O11   O     O_R   0.775200 0.060470 0.937800 -0.544697
O12   O     O_R   0.441110 0.093720 0.087350 -0.537143
O13   O     O_R   0.266330 0.939630 0.062280 -0.537770
C65   C     C_R   0.610859 0.118049 0.113707 0.689108
O14   O     O_R   0.445750 0.069950 0.939820 -0.544199
O15   O     O_R   0.271000 0.915700 0.913700 -0.536730
C66   C     C_R   0.614749 0.085749 0.918878 0.709004
O16   O     O_R   0.770530 0.084400 0.086380 -0.535810
O17   O     O_3   0.602830 0.949510 0.991680 -0.369969
V3    V     V_3+5 0.329710 0.009370 0.001550 1.434245
O18   O     O_R   0.940990 0.906170 0.912570 -0.538966
C67   C     C_R   0.109626 0.883426 0.884844 0.691528
O19   O     O_R   0.936350 0.929940 0.060100 -0.547901
C68   C     C_R   0.104469 0.914457 0.081472 0.709684
V4    V     V_3+5 0.829160 0.990450 0.998310 1.425574
O20   O     O_3   0.105910 0.050480 0.008320 -0.368881
H12   H     H_    0.702604 0.779007 0.357231 0.141548
H13   H     H_    0.688642 0.858764 0.274630 0.192551
H14   H     H_    0.393239 0.815517 0.094551 0.115705
H15   H     H_    0.345554 0.190892 0.902757 0.120835
H16   H     H_    0.901130 0.091164 0.825859 0.128482
H17   H     H_    0.061963 0.128407 0.729892 0.189421
H18   H     H_    0.028245 0.540635 0.698583 0.107843
Cl1   Cl    Cl    0.979483 0.286416 0.560356 -0.575147
H19   H     H_    0.372939 0.408902 0.676277 0.145500
H20   H     H_    0.207164 0.367927 0.769716 0.124969
H21   H     H_    0.379766 0.117490 0.415928 0.208255
Cl2   Cl    Cl    0.905716 0.512803 0.194516 -0.710066
H22   H     H_    0.860471 0.365336 0.077235 0.148916
H23   H     H_    0.744479 0.231975 0.071465 0.114218
H24   H     H_    0.906167 0.518433 0.807033 0.112439
Cl3   Cl    Cl    0.367472 0.973056 0.297642 -0.684073
Cl4   Cl    Cl    0.452359 0.277173 0.462201 -0.591518
H25   H     H_    0.883194 0.631352 0.920877 0.121014
H26   H     H_    0.981943 0.767089 0.926776 0.101545
H27   H     H_    0.241914 0.958780 0.801624 0.137981
Cl5   Cl    Cl    0.398498 0.017683 0.694210 -0.679338

loop_
_geom_bond_atom_site_label_1
_geom_bond_atom_site_label_2
_ccdc_geom_bond_type
C42   H8    S    
C36   C37   A    
C33   C68   S    
O17   V4    S    
C11   C67   S    
C52   C53   A    
C21   C22   A    
C54   H23   S    
C1    O6    A    
C15   H27   S    
C25   H12   S    
C18   H2    S    
C12   C15   A    
C13   C14   A    
C16   C17   A    
C43   C48   A    
C62   C63   A    
C15   C16   A    
C23   C24   A    
C55   C57   A    
C5    C6    A    
C40   C47   A    
O5    C3    A    
C17   C18   A    
C50   H19   S    
C19   H3    S    
C61   H11   S    
O18   C67   A    
C16   Cl5   S    
C23   C28   A    
C37   C38   A    
C20   C21   A    
C27   C28   A    
C62   Cl3   S    
C8    H26   S    
C37   H16   S    
C24   C31   A    
C41   H17   S    
C51   C56   A    
C32   C33   A    
O8    V2    S    
C34   H14   S    
C43   C44   A    
C47   H9    S    
C6    H24   S    
C49   C50   A    
C27   C32   A    
O1    V2    S    
C10   C14   A    
C4    C14   S    
O12   C65   A    
C29   C34   A    
O15   C67   A    
O13   V3    S    
O16   V4    S    
C30   H6    S    
C31   H7    S    
C13   C18   A    
O9    C4    A    
H1    C17   S    
V4    O20   S    
C36   C66   S    
O14   C66   A    
O14   V3    S    
C35   C40   A    
O11   C66   A    
C53   C54   A    
C44   C45   A    
C48   C49   A    
C11   C12   A    
C25   C26   A    
C1    C49   S    
C57   C58   A    
C59   C60   A    
C38   C41   A    
C12   C13   A    
O18   V4    S    
C32   H5    S    
C5    C10   A    
O12   V3    S    
C41   C42   A    
C64   Cl4   S    
O2    C1    A    
C54   C55   A    
O13   C68   A    
C59   C64   A    
C51   H10   S    
C33   C34   A    
C56   C60   A    
C53   H22   S    
O17   V3    S    
C21   H4    S    
O19   V4    S    
C19   C20   A    
C45   C50   A    
C63   C64   A    
C7    H25   S    
V3    O20   S    
O3    C4    A    
C35   H15   S    
C48   Cl1   S    
C26   C27   A    
C2    C60   S    
C46   C47   A    
O6    V2    S    
O9    V2    S    
C29   C30   A    
C9    C11   A    
C28   C29   A    
C3    C20   S    
O2    V1    S    
O15   V3    S    
C30   C31   A    
O4    C2    A    
O7    V1    S    
C39   C44   A    
C35   C36   A    
C22   C23   A    
C63   H21   S    
O1    C2    A    
C46   H20   S    
C22   C25   A    
C5    H18   S    
C51   C52   A    
O5    V1    S    
C58   C61   A    
O11   V4    S    
O8    C3    A    
C57   C65   S    
C19   C24   A    
C52   Cl2   S    
C45   C46   A    
C6    C7    A    
C39   C40   A    
O4    V1    S    
O3    V1    S    
V1    O10   S    
C55   C56   A    
C38   C39   A    
O19   C68   A    
O7    V2    S    
C42   C43   A    
C65   O16   A    
C58   C59   A    
C7    C8    A    
C61   C62   A    
C9    C10   A    
C8    C9    A    
V2    O10   S    
C26   H13   S    
