data_str_m3_o1_o17_f0_pcu.sym.5
_audit_creation_date              2012-12-10T18:47:07-0500
_audit_creation_method            fapswitch 2.2
_symmetry_space_group_name_H-M    P1
_symmetry_Int_Tables_number       1
_space_group_crystal_system       triclinic
_cell_length_a                    10.808255
_cell_length_b                    9.799274
_cell_length_c                    15.009113
_cell_angle_alpha                 90.008159
_cell_angle_beta                  90.004395
_cell_angle_gamma                 89.887104
_cell_volume                      1589.65786206

loop_
_atom_site_label
_atom_site_type_symbol
_atom_type_description
_atom_site_fract_x
_atom_site_fract_y
_atom_site_fract_z
_atom_type_partial_charge
C1    C     C_R   0.259312 0.500186 0.499682 1.016907
C2    C     C_R   0.126137 0.500546 0.499050 -0.422271
C3    C     C_R   0.525837 0.071925 0.576080 0.030489
C4    C     C_R   0.474246 0.928049 0.423909 0.021935
C5    C     C_R   0.474497 0.071997 0.423877 0.002966
C6    C     C_R   0.526234 0.927957 0.576013 -0.027098
C7    C     C_R   0.500074 0.499990 0.326454 0.928042
C8    C     C_R   0.500220 0.500008 0.673545 0.926828
C9    C     C_R   0.500822 0.624339 0.815203 -0.221610
C10   C     C_R   0.502268 0.375662 0.184799 -0.220511
C11   C     C_R   0.501259 0.500012 0.769413 -0.046635
C12   C     C_R   0.740001 0.499925 0.499927 1.061597
C13   C     C_R   0.501015 0.499987 0.230586 -0.045783
C14   C     C_R   0.502864 0.375687 0.815173 -0.227254
C15   C     C_R   0.500946 0.624316 0.184823 -0.229635
C16   C     C_R   0.503480 0.374732 0.907308 0.117762
C17   C     C_R   0.501661 0.625277 0.092691 0.119290
C18   C     C_R   0.502711 0.500008 0.953660 0.063819
C19   C     C_R   0.502629 0.500002 0.046340 0.064139
C20   C     C_R   0.501618 0.625290 0.907341 0.115850
C21   C     C_R   0.503136 0.374718 0.092660 0.115123
C22   C     C_R   0.504479 0.250780 0.953685 -0.191587
C23   C     C_R   0.504241 0.250772 0.046249 -0.189737
C24   C     C_R   0.501099 0.749232 0.046315 -0.191651
C25   C     C_R   0.501015 0.749239 0.953752 -0.188960
C26   C     C_R   0.060513 0.375137 0.500573 0.302666
C27   C     C_R   0.936242 0.618823 0.473784 0.307422
C28   C     C_R   0.937329 0.381371 0.524323 0.311674
C29   C     C_R   0.059731 0.625892 0.497011 0.298530
C30   C     C_R   0.871987 0.499989 0.499399 -0.422962
H1    H     H_    0.499627 0.720426 0.779360 0.155792
H2    H     H_    0.734065 0.749341 0.297761 0.369595
H3    H     H_    0.745031 0.246732 0.704762 0.364497
H4    H     H_    0.251110 0.852696 0.633429 0.377407
H5    H     H_    0.547043 0.126153 0.636849 0.116344
H6    H     H_    0.453024 0.873803 0.363135 0.118816
H7    H     H_    0.454098 0.126266 0.362973 0.119880
H8    H     H_    0.547752 0.873630 0.636727 0.123688
H9    H     H_    0.502494 0.279572 0.220643 0.156397
H10   H     H_    0.505149 0.154227 0.918430 0.142566
H11   H     H_    0.500443 0.845785 0.081571 0.142506
H12   H     H_    0.504726 0.154210 0.081477 0.143014
H13   H     H_    0.500284 0.845800 0.918524 0.143230
H14   H     H_    0.503388 0.279602 0.779310 0.150932
H15   H     H_    0.500154 0.720403 0.220682 0.149445
H16   H     H_    0.221398 0.153743 0.342243 0.372853
N1    N     N_R   0.500000 0.857200 0.500000 -0.076252
N2    N     N_R   0.500000 0.142800 0.500000 -0.073660
O1    O     O_R   0.316770 0.614620 0.499990 -0.561417
O2    O     O_2   0.014165 0.125059 0.431807 -0.163499
O3    O     O_3   0.207966 0.244983 0.368992 -0.571218
O4    O     O_2   0.803155 0.850782 0.455318 -0.216881
O5    O     O_2   0.974011 0.815633 0.350546 -0.218237
O6    O     O_3   0.775401 0.672408 0.328624 -0.577018
O7    O     O_2   0.807242 0.148115 0.541521 -0.216928
O8    O     O_2   0.978438 0.183315 0.645871 -0.220276
O9    O     O_3   0.778089 0.324062 0.669636 -0.583182
O10   O     O_2   0.191663 0.852019 0.461012 -0.248140
O11   O     O_2   0.014238 0.879741 0.560879 -0.148198
O12   O     O_R   0.683230 0.385380 0.500010 -0.566638
O13   O     O_3   0.209612 0.763722 0.624349 -0.553767
O14   O     O_R   0.683230 0.614620 0.500010 -0.569251
O15   O     O_R   0.316770 0.385380 0.499990 -0.554062
O16   O     O_R   0.499980 0.614680 0.367850 -0.639199
O17   O     O_R   0.500020 0.385320 0.632150 -0.636744
O18   O     O_R   0.500020 0.614680 0.632150 -0.643161
O19   O     O_R   0.499980 0.385320 0.367850 -0.638097
O20   O     O_2   0.194131 0.146617 0.529966 -0.229090
S1    S     S_3+6 0.118964 0.216580 0.459079 0.129849
S2    S     S_3+6 0.872591 0.746074 0.401700 0.107320
S3    S     S_3+6 0.875637 0.252595 0.595706 0.101430
S4    S     S_3+6 0.118498 0.786455 0.534573 0.135379
Zn1   Zn    Zn3+2 0.500000 0.653120 0.500000 1.046961
Zn2   Zn    Zn3+2 0.500000 0.346880 0.500000 1.057671

loop_
_geom_bond_atom_site_label_1
_geom_bond_atom_site_label_2
_ccdc_geom_bond_type
C10   C21   A    
C16   C22   A    
O16   Zn1   S    
C6    H8    S    
O14   Zn1   S    
C8    O18   A    
O15   Zn2   S    
C5    H7    S    
C27   C29   A    
C12   O14   A    
C9    C20   A    
C26   C28   A    
O6    S2    S    
C3    H5    S    
O11   S4    D    
O8    S3    D    
C22   H10   S    
C25   H13   S    
C28   C30   A    
C24   C25   A    
C8    O17   A    
C2    C26   A    
O19   Zn2   S    
C10   C13   A    
O9    S3    S    
C27   C30   A    
C24   H11   S    
C9    C11   A    
C29   S4    S    
O10   S4    D    
C23   H12   S    
C1    O1    A    
C8    C11   S    
O5    S2    D    
C1    O15   A    
O13   S4    S    
H2    O6    S    
C27   S2    S    
O2    S1    D    
C1    C2    S    
C14   H14   S    
C18   C20   A    
C13   C15   A    
C21   C23   A    
C5    N2    A    
O1    Zn1   S    
C7    O16   A    
C17   C24   A    
O4    S2    D    
C20   C25   A    
C9    H1    S    
C7    O19   A    
C28   S3    S    
N2    Zn2   S    
C3    N2    A    
C7    C13   S    
C2    C29   A    
C4    H6    S    
N1    Zn1   S    
C16   C18   A    
C18   C19   A    
C6    N1    A    
C3    C6    A    
O12   Zn2   S    
C11   C14   A    
C15   C17   A    
C26   S1    S    
C15   H15   S    
C22   C23   A    
O20   S1    D    
H3    O9    S    
O3    S1    S    
C17   C19   A    
C14   C16   A    
O18   Zn1   S    
C12   C30   S    
H16   O3    S    
C10   H9    S    
H4    O13   S    
O7    S3    D    
O17   Zn2   S    
C4    C5    A    
C19   C21   A    
C4    N1    A    
C12   O12   A    
