data_str_m3_o10_o14_f0_pcu.sym.3
_audit_creation_date              2012-12-10T16:50:09-0500
_audit_creation_method            fapswitch 2.2
_symmetry_space_group_name_H-M    P1
_symmetry_Int_Tables_number       1
_space_group_crystal_system       triclinic
_cell_length_a                    7.784888
_cell_length_b                    8.573241
_cell_length_c                    10.645757
_cell_angle_alpha                 90.442621
_cell_angle_beta                  85.967173
_cell_angle_gamma                 93.406166
_cell_volume                      707.500299322

loop_
_atom_site_label
_atom_site_type_symbol
_atom_type_description
_atom_site_fract_x
_atom_site_fract_y
_atom_site_fract_z
_atom_type_partial_charge
C1    C     C_R   0.546180 0.794003 0.506510 0.868763
C2    C     C_R   0.455239 0.205727 0.509544 0.951700
C3    C     C_R   0.499042 0.509098 0.260677 0.964024
C4    C     C_R   0.419316 0.784244 0.866618 -0.151532
C5    C     C_R   0.367429 0.917414 0.929194 -0.166752
C6    C     C_R   0.356146 0.921467 0.059336 -0.173083
C7    C     C_R   0.399319 0.792404 0.129404 0.466879
C8    C     C_R   0.449759 0.652560 0.066060 0.002711
C9    C     C_R   0.458388 0.650405 0.933683 0.031271
C10   C     C_R   0.509602 0.514607 0.870400 -0.144432
C11   C     C_R   0.557669 0.384391 0.931916 -0.188594
C12   C     C_R   0.547296 0.380814 0.060462 0.404478
C13   C     C_R   0.494659 0.514596 0.127850 -0.221687
C14   C     C_2   0.571562 0.957061 0.527061 0.266665
C15   C     C_2   0.433621 0.042179 0.517755 -0.447674
C16   C     C_R   0.502623 0.501350 0.739050 0.858931
H1    H     H_    0.595825 0.281475 0.879430 0.177056
H2    H     H_    0.013730 0.382771 0.405837 0.159132
H3    H     H_    0.315315 0.027031 0.106050 0.148324
H4    H     H_    0.063543 0.695675 0.656831 0.340446
H5    H     H_    0.429726 0.788091 0.765057 0.135587
H6    H     H_    0.337004 0.018472 0.876426 0.159628
H7    H     H_    0.352052 0.906605 0.285425 0.317719
H8    H     H_    0.532555 0.235383 0.202175 0.314924
H9    H     H_    0.810698 0.939860 0.570389 0.356942
H10   H     H_    0.304678 0.991434 0.504734 0.153964
N1    N     N_2   0.950330 0.457950 0.466250 -0.052990
N2    N     N_2   0.049670 0.542050 0.533750 0.105222
O1    O     O_R   0.389250 0.738570 0.508280 -0.626354
O2    O     O_3   0.394117 0.803899 0.258438 -0.771559
O3    O     O_3   0.589123 0.244067 0.116150 -0.756789
O4    O     O_3   0.730493 0.023025 0.558218 -0.731997
O5    O     O_R   0.678390 0.711630 0.486650 -0.575352
O6    O     O_R   0.355400 0.513470 0.694050 -0.634402
O7    O     O_R   0.644540 0.486530 0.672420 -0.560769
O8    O     O_R   0.321610 0.288370 0.513350 -0.654960
O9    O     O_R   0.610750 0.261430 0.491720 -0.539055
O10   O     O_R   0.355460 0.513470 0.327580 -0.600725
O11   O     O_R   0.644600 0.486530 0.305950 -0.612900
O12   O     O_3   0.969561 0.640500 0.612965 -0.637105
Zn1   Zn    Zn3+2 0.306930 0.517990 0.514440 0.994587
Zn2   Zn    Zn3+2 0.693070 0.482010 0.485560 1.069760

loop_
_geom_bond_atom_site_label_1
_geom_bond_atom_site_label_2
_ccdc_geom_bond_type
C8    C9    A    
C11   C12   A    
C6    C7    A    
C6    H3    S    
C9    C10   A    
H2    N1    S    
C2    O9    A    
C2    C15   S    
O1    Zn1   S    
H9    O4    S    
C1    O1    A    
H8    O3    S    
C3    O11   A    
C7    C8    A    
C12   O3    S    
C7    O2    S    
C10   C16   S    
C4    H5    S    
N1    Zn2   S    
O8    Zn1   S    
C8    C13   A    
O6    Zn1   S    
O5    Zn2   S    
O11   Zn2   S    
C16   O7    A    
C5    C6    A    
H4    O12   S    
C10   C11   A    
N2    O12   S    
C1    O5    A    
H7    O2    S    
N2    Zn1   S    
N1    N2    D    
C12   C13   A    
O10   Zn1   S    
C2    O8    A    
O9    Zn2   S    
O7    Zn2   S    
C14   C15   D    
C11   H1    S    
C15   H10   S    
C1    C14   S    
C16   O6    A    
C4    C9    A    
C5    H6    S    
C3    O10   A    
C14   O4    S    
C4    C5    A    
C3    C13   S    
