data_str_m2_o10_o17_f0_pcu.sym.97
_audit_creation_date              2012-12-10T16:44:46-0500
_audit_creation_method            fapswitch 2.2
_symmetry_space_group_name_H-M    P1
_symmetry_Int_Tables_number       1
_space_group_crystal_system       triclinic
_cell_length_a                    15.037033
_cell_length_b                    8.668804
_cell_length_c                    7.451173
_cell_angle_alpha                 102.895294
_cell_angle_beta                  93.912616
_cell_angle_gamma                 92.441175
_cell_volume                      942.909467886

loop_
_atom_site_label
_atom_site_type_symbol
_atom_type_description
_atom_site_fract_x
_atom_site_fract_y
_atom_site_fract_z
_atom_type_partial_charge
C1    C     C_R   0.497116 0.199772 0.453332 0.899089
C2    C     C_R   0.502884 0.800228 0.546668 0.899089
C3    C     C_R   0.034889 0.214291 0.375370 -0.201248
C4    C     C_R   0.965111 0.785709 0.624630 -0.201248
C5    C     C_2   0.495579 0.031810 0.427076 -0.306858
C6    C     C_2   0.504421 0.968190 0.572924 -0.306858
C7    C     C_R   0.329466 0.499685 0.502900 0.822071
C8    C     C_R   0.670534 0.500315 0.497100 0.822071
C9    C     C_R   0.818158 0.644310 0.556705 -0.090609
C10   C     C_R   0.181842 0.355690 0.443295 -0.090609
C11   C     C_R   0.766756 0.501050 0.490966 -0.138830
C12   C     C_R   0.233244 0.498950 0.509034 -0.138830
C13   C     C_R   0.806784 0.357816 0.425833 -0.089787
C14   C     C_R   0.193216 0.642183 0.574167 -0.089787
C15   C     C_R   0.900350 0.356692 0.430173 0.067888
C16   C     C_R   0.099650 0.643308 0.569826 0.067888
C17   C     C_R   0.952932 0.500323 0.497437 0.053204
C18   C     C_R   0.047068 0.499677 0.502563 0.053204
C19   C     C_R   0.911710 0.644581 0.559711 0.068666
C20   C     C_R   0.088290 0.355419 0.440289 0.068666
C21   C     C_R   0.942671 0.214940 0.370228 -0.196226
C22   C     C_R   0.057329 0.785060 0.629772 -0.196226
Cu1   Cu    Cu3+1 0.510010 0.517380 0.684380 0.990623
Cu2   Cu    Cu3+1 0.489990 0.482620 0.315620 0.990623
H1    H     H_    0.904939 0.102713 0.318832 0.162568
H2    H     H_    0.095061 0.897287 0.681168 0.162568
H3    H     H_    0.063815 0.101646 0.327391 0.162558
H4    H     H_    0.936184 0.898353 0.672609 0.162559
H5    H     H_    0.487292 0.960211 0.286507 0.183285
H6    H     H_    0.512707 0.039789 0.713492 0.183285
H7    H     H_    0.430200 0.377857 0.948749 0.233958
H8    H     H_    0.569800 0.622143 0.051251 0.233958
N1    N     N_2   0.474890 0.456420 0.038520 -0.213393
N2    N     N_2   0.525110 0.543580 0.961480 -0.213393
O1    O     O_R   0.506510 0.286130 0.619770 -0.591212
O2    O     O_R   0.493490 0.713870 0.380230 -0.591212
O3    O     O_R   0.489600 0.256770 0.308360 -0.576342
O4    O     O_R   0.510400 0.743230 0.691640 -0.576342
O5    O     O_R   0.378710 0.514640 0.655720 -0.587143
O6    O     O_R   0.621290 0.485360 0.344280 -0.587144
O7    O     O_R   0.361800 0.485290 0.344300 -0.573746
O8    O     O_R   0.638200 0.514710 0.655700 -0.573746
C23   C     C_1   0.773949 0.790435 0.619650 0.228969
N3    N     N_1   0.738714 0.906664 0.669707 -0.276018
C24   C     C_1   0.226051 0.209565 0.380350 0.228969
N4    N     N_1   0.261286 0.093336 0.330293 -0.276018
C25   C     C_1   0.751188 0.212210 0.358411 0.248917
N5    N     N_1   0.707020 0.096238 0.304565 -0.280384
C26   C     C_1   0.248812 0.787789 0.641589 0.248917
N6    N     N_1   0.292980 0.903762 0.695435 -0.280384

loop_
_geom_bond_atom_site_label_1
_geom_bond_atom_site_label_2
_ccdc_geom_bond_type
C15   C21   A    
Cu1   Cu2   S    
H7    N1    S    
Cu1   O4    S    
C4    C22   A    
C2    O4    A    
Cu1   O1    S    
C25   N5    T    
C13   C15   A    
C1    O3    A    
C23   N3    T    
Cu1   N2    S    
C16   C22   A    
C10   C24   S    
C3    H3    S    
Cu2   O3    S    
C12   C14   A    
C3    C20   A    
C2    C6    S    
C24   N4    T    
Cu2   O7    S    
C11   C13   A    
Cu2   O2    S    
Cu1   O8    S    
C10   C12   A    
C8    C11   S    
Cu1   O5    S    
C7    O7    A    
C17   C19   A    
C8    O8    A    
C17   C18   A    
C18   C20   A    
C9    C11   A    
C5    C6    D    
C14   C16   A    
C7    C12   S    
C9    C23   S    
C14   C26   S    
C3    C21   A    
C5    H5    S    
C1    C5    S    
N1    N2    D    
C1    O1    A    
C16   C18   A    
C26   N6    T    
C22   H2    S    
C2    O2    A    
C15   C17   A    
C21   H1    S    
C4    H4    S    
C7    O5    A    
C8    O6    A    
Cu2   O6    S    
C4    C19   A    
C13   C25   S    
C6    H6    S    
Cu2   N1    S    
C9    C19   A    
C10   C20   A    
H8    N2    S    
