data_str_m2_o10_o14_f0_pcu.sym.47
_audit_creation_date              2012-10-26T19:59:40-0400
_audit_creation_method            fapswitch 2.2
_symmetry_space_group_name_H-M    P1
_symmetry_Int_Tables_number       1
_space_group_crystal_system       triclinic
_cell_length_a                    10.821013
_cell_length_b                    8.743521
_cell_length_c                    7.4306
_cell_angle_alpha                 103.177825
_cell_angle_beta                  92.887677
_cell_angle_gamma                 93.818184
_cell_volume                      681.447747745

loop_
_atom_site_label
_atom_site_type_symbol
_atom_type_description
_atom_site_fract_x
_atom_site_fract_y
_atom_site_fract_z
_atom_type_partial_charge
C1    C     C_R   0.496124 0.199808 0.453778 0.557737
C2    C     C_R   0.498909 0.799766 0.547590 0.561952
C3    C     C_R   0.738015 0.508026 0.496405 0.527028
C4    C     C_R   0.148067 0.799325 0.680827 0.099652
C5    C     C_R   0.098428 0.944841 0.696247 -0.133204
C6    C     C_R   0.978889 0.952328 0.627610 -0.072647
C7    C     C_R   0.902801 0.815205 0.554856 0.090770
C8    C     C_R   0.948266 0.663583 0.542430 -0.013055
C9    C     C_R   0.077332 0.658183 0.583377 0.024186
C10   C     C_R   0.130489 0.513046 0.520141 -0.017762
C11   C     C_R   0.056204 0.374466 0.445399 -0.116169
C12   C     C_R   0.928259 0.374205 0.435330 0.065906
C13   C     C_R   0.872772 0.517613 0.486099 0.012737
C14   C     C_2   0.489051 0.032163 0.431904 -0.094735
C15   C     C_2   0.511790 0.967988 0.576485 0.064360
C16   C     C_R   0.263043 0.504756 0.505893 0.572678
Cu1   Cu    Cu3+1 0.513920 0.517380 0.684380 0.967323
Cu2   Cu    Cu3+1 0.486080 0.482620 0.315620 0.944054
H1    H     H_    0.098333 0.264521 0.397436 0.134030
H2    H     H_    0.724023 0.800820 0.582792 0.246076
H3    H     H_    0.797141 0.208951 0.471863 0.249389
H4    H     H_    0.801606 0.231511 0.251435 0.254637
H5    H     H_    0.643344 0.025342 0.791731 0.237178
H6    H     H_    0.495700 0.039613 0.854733 0.230850
H7    H     H_    0.597988 0.621765 0.050785 0.236584
H8    H     H_    0.151977 0.053456 0.764845 0.107013
H9    H     H_    0.942913 0.066488 0.638766 0.155925
H10   H     H_    0.461159 0.959688 0.294555 0.096810
H11   H     H_    0.402011 0.378235 0.949204 0.241053
H12   H     H_    0.302113 0.908381 0.843730 0.207315
H13   H     H_    0.243342 0.742133 0.891422 0.241849
H14   H     H_    0.762019 0.767639 0.355757 0.245970
N1    N     N_2   0.465100 0.456430 0.038520 -0.250917
N2    N     N_2   0.534900 0.543570 0.961480 -0.250195
N3    N     N_3   0.263459 0.794684 0.782044 -0.574854
N4    N     N_3   0.781155 0.836521 0.490160 -0.638378
N5    N     N_3   0.856082 0.226296 0.369798 -0.625965
N6    N     N_3   0.556705 0.060866 0.757096 -0.586887
O1    O     O_R   0.509050 0.286130 0.619770 -0.458349
O2    O     O_R   0.485540 0.256780 0.308360 -0.514976
O3    O     O_R   0.331410 0.514680 0.655740 -0.490049
O4    O     O_R   0.307900 0.485330 0.344330 -0.502241
O5    O     O_R   0.514460 0.743220 0.691640 -0.500398
O6    O     O_R   0.490950 0.713870 0.380230 -0.521868
O7    O     O_R   0.692100 0.514670 0.655670 -0.497049
O8    O     O_R   0.668590 0.485320 0.344260 -0.513361

loop_
_geom_bond_atom_site_label_1
_geom_bond_atom_site_label_2
_ccdc_geom_bond_type
H6    N6    S    
C11   C12   A    
Cu1   O5    S    
C15   N6    S    
C6    C7    A    
H11   N1    S    
H5    N6    S    
C7    N4    S    
H7    N2    S    
C3    O8    A    
C6    H9    S    
C3    C13   S    
C2    O5    A    
Cu2   O8    S    
Cu1   Cu2   S    
C4    N3    S    
C7    C8    A    
C10   C16   S    
C2    C15   S    
C11   H1    S    
C8    C13   A    
H12   N3    S    
H14   N4    S    
Cu1   O7    S    
N1    N2    D    
Cu1   O3    S    
C10   C11   A    
Cu2   O4    S    
Cu1   O1    S    
C5    C6    A    
Cu2   N1    S    
H13   N3    S    
Cu1   N2    S    
C1    O1    A    
C5    H8    S    
H2    N4    S    
C16   O4    A    
Cu2   O6    S    
H3    N5    S    
C12   C13   A    
C9    C10   A    
C12   N5    S    
Cu2   O2    S    
C14   C15   D    
C8    C9    A    
C1    C14   S    
C1    O2    A    
C14   H10   S    
C4    C9    A    
H4    N5    S    
C16   O3    A    
C3    O7    A    
C2    O6    A    
C4    C5    A    
