data_str_m3_o12_o24_f0_pcu.sym.102
_audit_creation_date              2013-03-05T15:48:00-0500
_audit_creation_method            fapswitch 2.2
_symmetry_space_group_name_H-M    P1
_symmetry_Int_Tables_number       1
_space_group_crystal_system       triclinic
_cell_length_a                    10.168589
_cell_length_b                    10.522018
_cell_length_c                    10.873392
_cell_angle_alpha                 90.824828
_cell_angle_beta                  96.294557
_cell_angle_gamma                 81.50991
_cell_volume                      1143.70076973

loop_
_atom_site_label
_atom_site_type_symbol
_atom_site_description
_atom_site_fract_x
_atom_site_fract_y
_atom_site_fract_z
_atom_type_partial_charge
O1    O     O_R   0.568940 0.489500 0.307530 -0.553379
O2    O     O_R   0.431060 0.510500 0.692470 -0.554419
O3    O     O_R   0.348880 0.522990 0.340350 -0.572117
O4    O     O_R   0.651120 0.477010 0.659650 -0.632573
C1    C     C_R   0.443243 0.512471 0.268006 0.926979
C2    C     C_R   0.556729 0.487301 0.732016 0.929110
O5    O     O_R   0.610000 0.297210 0.483560 -0.579387
O6    O     O_R   0.390000 0.702790 0.516440 -0.572537
O7    O     O_R   0.389940 0.330700 0.516390 -0.632941
O8    O     O_R   0.610060 0.669300 0.483610 -0.561030
C3    C     C_R   0.499659 0.257524 0.499404 0.902639
C4    C     C_R   0.500751 0.742171 0.501952 0.910512
Zn1   Zn    Zn3+2 0.646930 0.477640 0.478080 1.043651
Zn2   Zn    Zn3+2 0.353070 0.522360 0.521920 1.044096
C5    C     C_3   0.616714 0.021700 0.470853 0.635570
C6    C     C_3   0.384380 0.976971 0.532769 0.644151
C7    C     C_3   0.518816 0.951767 0.387410 -0.283665
C8    C     C_3   0.482123 0.047233 0.616070 -0.295502
H1    H     H_    0.535419 0.909324 0.295506 0.218211
H2    H     H_    0.464998 0.089560 0.707897 0.222041
C9    C     C_3   0.501006 0.876885 0.503184 -0.124612
C10   C     C_3   0.500006 0.122301 0.500073 -0.122831
C11   C     C_3   0.600788 0.945195 0.586283 -0.324989
C12   C     C_3   0.400050 0.053490 0.417229 -0.354435
H3    H     H_    0.681888 0.896476 0.653612 0.177831
H4    H     H_    0.318675 0.099530 0.348956 0.156057
C13   C     C_2   0.409861 0.510481 0.136172 -0.390506
C14   C     C_2   0.589989 0.488623 0.863953 -0.416173
C15   C     C_2   0.503264 0.527515 0.062123 0.233523
C16   C     C_2   0.496130 0.472248 0.937765 0.257048
H5    H     H_    0.680933 0.526285 0.897097 0.175054
H6    H     H_    0.319411 0.471733 0.103458 0.193742
N1    N     N_2   0.157310 0.552180 0.551120 -0.201699
N2    N     N_2   0.842690 0.447820 0.448880 -0.190419
C17   C     C_2   0.066335 0.511243 0.473466 0.422603
C18   C     C_2   0.922948 0.523585 0.500463 0.436857
H7    H     H_    0.882473 0.370393 0.399464 0.147516
H8    H     H_    0.132493 0.579703 0.637416 0.166647
O9    O     O_3   0.737101 0.054959 0.436417 -0.609391
C19   C     C_3   0.829619 0.942545 0.426784 -0.226767
H9    H     H_    0.788190 0.871384 0.362594 0.205006
H10   H     H_    0.863564 0.898723 0.519359 0.187241
H11   H     H_    0.918771 0.968763 0.388634 0.184389
O10   O     O_3   0.266237 0.940689 0.569441 -0.579190
C20   C     C_3   0.166651 0.048823 0.568129 -0.289905
H12   H     H_    0.126754 0.075715 0.471377 0.145806
H13   H     H_    0.203322 0.131655 0.618915 0.178397
H14   H     H_    0.082604 0.023242 0.615028 0.202563
N3    N     N_R   0.386653 0.404180 0.894338 0.213753
O11   O     O_R   0.264605 0.464461 0.880219 -0.415197
O12   O     O_R   0.411267 0.287497 0.852886 -0.420104
N4    N     N_R   0.612038 0.596617 0.105199 0.215804
O13   O     O_R   0.586426 0.713565 0.145746 -0.414866
O14   O     O_R   0.734328 0.536997 0.120358 -0.376370
O15   O     O_3   0.870049 0.631281 0.563465 -0.611414
C21   C     C_3   0.885754 0.608370 0.692375 -0.265732
H15   H     H_    0.963414 0.662239 0.737990 0.171589
H16   H     H_    0.910030 0.504930 0.719465 0.161051
H17   H     H_    0.791583 0.649055 0.730143 0.195218
O16   O     O_3   0.096790 0.475348 0.355657 -0.562006
C22   C     C_3   0.132919 0.340846 0.348860 -0.241267
H18   H     H_    0.055124 0.299427 0.288179 0.165315
H19   H     H_    0.149269 0.290554 0.439827 0.111710
H20   H     H_    0.226454 0.320213 0.303937 0.193743

loop_
_geom_bond_atom_site_label_1
_geom_bond_atom_site_label_2
_geom_bond_distance
_ccdc_geom_bond_type
C22   H20   1.108248 S    
O7    Zn2   1.997311 S    
C5    C7    1.534495 S    
C15   C16   1.462934 S    
C8    C10   1.539220 S    
C21   H16   1.116364 S    
C13   C15   1.343354 D    
N2    H7    1.026559 S    
C6    O10   1.411681 S    
C3    C10   1.422416 S    
C8    H2    1.108166 S    
N1    H8    1.024955 S    
C21   H17   1.108609 S    
O6    C4    1.281942 A    
Zn2   N1    2.028066 S    
C14   C16   1.343588 D    
Zn1   N2    2.028066 S    
C6    C12   1.537161 S    
C18   O15   1.386076 S    
O2    C2    1.291459 A    
C20   H12   1.110174 S    
N4    O13   1.300517 A    
O5    C3    1.282872 A    
O7    C3    1.288082 A    
C5    O9    1.411396 S    
C6    C9    1.524491 S    
O3    Zn2   1.970151 S    
O8    C4    1.286747 A    
O1    C1    1.291556 A    
C5    C11   1.536777 S    
C19   H9    1.113043 S    
N1    C17   1.300065 D    
C16   N3    1.444177 S    
C12   H4    1.108049 S    
N3    O11   1.301798 A    
N2    C18   1.301928 D    
C19   H11   1.108885 S    
C9    C11   1.535627 S    
C22   H18   1.109109 S    
O2    Zn2   1.933509 S    
C10   C12   1.538342 S    
O15   C21   1.413365 S    
C7    C12   1.550298 S    
O1    Zn1   1.933509 S    
C8    C11   1.551383 S    
C17   O16   1.384915 S    
O5    Zn1   1.991858 S    
C11   H3    1.110148 S    
C20   H13   1.113800 S    
C21   H15   1.108634 S    
C6    C8    1.534628 S    
O4    C2    1.297929 A    
C5    C10   1.527056 S    
C20   H14   1.109207 S    
O9    C19   1.408746 S    
C22   H19   1.113133 S    
N3    O12   1.300463 A    
O16   C22   1.411642 S    
O6    Zn2   1.991860 S    
C7    H1    1.108353 S    
C13   H6    1.083281 S    
C1    C13   1.437031 S    
C4    C9    1.417715 S    
C15   N4    1.444131 S    
C14   H5    1.083123 S    
C2    C14   1.437735 S    
O10   C20   1.406170 S    
C17   C18   1.505255 S    
O4    Zn1   1.970151 S    
N4    O14   1.301819 A    
C19   H10   1.111391 S    
O3    C1    1.297463 A    
O8    Zn1   1.997313 S    
C7    C9    1.535890 S    
