data_str_m12_o9_o22_f0_bcu.sym.6
_audit_creation_date              2013-03-05T15:58:07-0500
_audit_creation_method            fapswitch 2.2
_symmetry_space_group_name_H-M    P1
_symmetry_Int_Tables_number       1
_space_group_crystal_system       triclinic
_cell_length_a                    14.96852
_cell_length_b                    14.900074
_cell_length_c                    14.99528
_cell_angle_alpha                 109.756471
_cell_angle_beta                  109.21022
_cell_angle_gamma                 109.217161
_cell_volume                      2581.75990068

loop_
_atom_site_label
_atom_site_type_symbol
_atom_site_description
_atom_site_fract_x
_atom_site_fract_y
_atom_site_fract_z
_atom_type_partial_charge
C1    C     C_R   0.978976 0.257579 0.070107 -0.123356
H1    H     H_    0.946251 0.249393 0.122447 0.096989
N1    N     N_R   0.947080 0.293830 0.002870 -0.043728
C2    C     C_R   0.315050 0.759761 0.224801 -0.131450
H2    H     H_    0.379815 0.776510 0.205151 0.095755
N2    N     N_R   0.208950 0.706170 0.152110 -0.041154
C3    C     C_R   0.207755 0.408440 0.902143 -0.132359
H3    H     H_    0.176152 0.323482 0.844800 0.125781
N3    N     N_R   0.153670 0.443180 0.946090 -0.043211
C4    C     C_R   0.989650 0.590822 0.295108 -0.152120
H4    H     H_    0.008124 0.674281 0.341775 0.136557
N4    N     N_R   0.002360 0.556820 0.208890 -0.043682
C5    C     C_R   0.299025 0.590830 0.993741 -0.152868
H5    H     H_    0.354891 0.675566 0.023711 0.091461
N5    N     N_R   0.210070 0.556820 0.002870 -0.034016
C6    C     C_R   0.906598 0.409110 0.209463 -0.155855
H6    H     H_    0.856873 0.324041 0.181695 0.125967
N6    N     N_R   0.945960 0.443180 0.152110 -0.042932
C7    C     C_R   0.220031 0.751061 0.313639 -0.116404
H7    H     H_    0.195209 0.752920 0.373706 0.119806
N7    N     N_R   0.151710 0.706170 0.208890 -0.043994
C8    C     C_R   0.071529 0.256266 0.979747 -0.132812
H8    H     H_    0.125218 0.246537 0.948893 0.126100
N8    N     N_R   0.004320 0.293830 0.946090 -0.044306
C9    C     C_R   0.059207 0.234799 0.060235 0.056261
C10   C     C_R   0.323967 0.789599 0.327543 0.047217
C11   C     C_R   0.299343 0.499277 0.930176 0.037119
C12   C     C_R   0.929943 0.500259 0.298587 0.098196
C13   C     C_R   0.686742 0.407444 0.930844 -0.137497
H9    H     H_    0.625484 0.321803 0.879566 0.101475
N9    N     N_R   0.789930 0.443180 0.997130 -0.039861
C14   C     C_R   0.020716 0.592587 0.781329 -0.139841
H10   H     H_    0.043001 0.676758 0.805798 0.126879
N10   N     N_R   0.054040 0.556820 0.847890 -0.044294
C15   C     C_R   0.793073 0.195938 0.701471 -0.110133
H11   H     H_    0.824272 0.174709 0.647574 0.104395
N11   N     N_R   0.848290 0.293830 0.791110 -0.042669
C16   C     C_R   0.996327 0.799856 0.092568 -0.137804
H12   H     H_    0.980783 0.824960 0.158454 0.127217
N12   N     N_R   0.995680 0.706170 0.053910 -0.041722
C17   C     C_R   0.086386 0.803697 0.001257 -0.149834
H13   H     H_    0.144668 0.834007 0.976645 0.104098
N13   N     N_R   0.052920 0.706170 0.997130 -0.040043
C18   C     C_R   0.706139 0.194124 0.796002 -0.134613
H14   H     H_    0.660817 0.167597 0.833809 0.084279
N14   N     N_R   0.791050 0.293830 0.847890 -0.038865
C19   C     C_R   0.776464 0.591254 0.021829 -0.120216
H15   H     H_    0.795360 0.675896 0.056775 0.111449
N15   N     N_R   0.846330 0.556820 0.053910 -0.035732
C20   C     C_R   0.939719 0.409589 0.685361 -0.077233
H16   H     H_    0.893551 0.325359 0.619745 0.134602
N16   N     N_R   0.997640 0.443180 0.791110 -0.055797
Ni1   Ni    Ni4+2 0.869690 0.369690 0.000000 0.209996
Ni2   Ni    Ni4+2 0.130310 0.630310 0.000000 0.220337
Ni3   Ni    Ni4+2 0.000970 0.369690 0.869780 0.221029
Ni4   Ni    Ni4+2 0.999030 0.630310 0.130220 0.236520
C21   C     C_R   0.674409 0.498744 0.945805 0.018848
C22   C     C_R   0.954558 0.503543 0.677801 0.122827
C23   C     C_R   0.704739 0.129051 0.703637 0.065710
C24   C     C_R   0.049751 0.863600 0.059476 0.064973
H17   H     H_    0.580904 0.032034 0.007387 0.095067
C25   C     C_R   0.619292 0.200561 0.086233 -0.110594
H18   H     H_    0.569992 0.194471 0.010886 0.100240
C26   C     C_R   0.679274 0.300582 0.184696 -0.143947
H19   H     H_    0.676140 0.372335 0.185291 0.113577
C27   C     C_R   0.750012 0.309520 0.280404 0.114720
C28   C     C_R   0.754129 0.215466 0.277187 -0.149390
H20   H     H_    0.808424 0.220442 0.349732 0.125200
C29   C     C_R   0.691368 0.115371 0.179612 -0.132552
H21   H     H_    0.695771 0.043956 0.178044 0.132081
C30   C     C_R   0.625628 0.108410 0.083802 -0.102217
C31   C     C_R   0.834130 0.426522 0.481610 0.452655
C32   C     C_R   0.928835 0.512094 0.579946 -0.030375
C33   C     C_R   0.004145 0.601434 0.582262 -0.066828
C34   C     C_R   0.984150 0.602299 0.487053 -0.198266
H22   H     H_    0.045138 0.671623 0.492999 0.141090
C35   C     C_R   0.906566 0.506524 0.387074 0.038271
C36   C     C_R   0.827149 0.417368 0.382360 -0.152799
C37   C     C_R   0.140225 0.794505 0.734347 -0.198719
H23   H     H_    0.079622 0.818823 0.710377 0.135515
C38   C     C_R   0.243001 0.871785 0.825968 -0.153347
H24   H     H_    0.262087 0.955327 0.871948 0.124006
C39   C     C_R   0.321058 0.840967 0.859069 -0.097111
H25   H     H_    0.399793 0.900534 0.930833 0.101708
C40   C     C_R   0.297263 0.733121 0.799841 -0.120887
H26   H     H_    0.358333 0.710019 0.825208 0.098347
C41   C     C_R   0.194485 0.655195 0.708555 -0.125638
H27   H     H_    0.176319 0.571357 0.664006 0.118690
C42   C     C_R   0.114690 0.685140 0.676424 0.147489
H28   H     H_    0.133132 0.038180 0.566390 0.143572
C43   C     C_R   0.231027 0.029310 0.489631 -0.135721
H29   H     H_    0.207662 0.071907 0.448654 0.115076
C44   C     C_R   0.305212 0.995507 0.478179 -0.128147
H30   H     H_    0.339668 0.013538 0.429054 0.120611
C45   C     C_R   0.336658 0.940847 0.531886 0.104770
C46   C     C_R   0.293479 0.921699 0.598109 -0.215947
H31   H     H_    0.318311 0.881761 0.641942 0.138755
C47   C     C_R   0.219807 0.956418 0.609755 -0.102929
H32   H     H_    0.187791 0.943380 0.661856 0.135358
C48   C     C_R   0.188945 0.010322 0.555899 -0.015047
C49   C     C_R   0.522297 0.981336 0.625687 -0.227082
H33   H     H_    0.519339 0.024996 0.697587 0.122171
C50   C     C_R   0.619952 0.013918 0.623227 0.048573
C51   C     C_R   0.621323 0.948937 0.530081 0.053389
C52   C     C_R   0.521984 0.866842 0.436475 -0.229277
H34   H     H_    0.521986 0.818016 0.364082 0.139459
C53   C     C_R   0.424000 0.856739 0.432662 0.055239
C54   C     C_R   0.424803 0.916775 0.529236 0.027658
C55   C     C_R   0.735801 0.007173 0.450195 -0.108788
H35   H     H_    0.668632 0.004473 0.390312 0.117962
C56   C     C_R   0.838370 0.053776 0.459657 -0.197774
H36   H     H_    0.849176 0.083719 0.405408 0.124853
C57   C     C_R   0.927402 0.063153 0.539868 -0.066861
H37   H     H_    0.006644 0.100905 0.547146 0.113534
C58   C     C_R   0.914526 0.024171 0.610208 0.599520
C59   C     C_R   0.811309 0.979033 0.602036 -0.319355
H38   H     H_    0.801269 0.953646 0.659424 0.123068
C60   C     C_R   0.722462 0.973175 0.523932 0.098309
C61   C     C_3   0.471004 0.381503 0.848767 -0.487302
H39   H     H_    0.478214 0.320780 0.873186 0.114661
H40   H     H_    0.464734 0.353307 0.766956 0.189812
C62   C     C_3   0.366923 0.381791 0.843099 0.396264
H41   H     H_    0.330485 0.322817 0.867501 0.044202
H42   H     H_    0.601666 0.487510 0.081220 0.160285
H43   H     H_    0.441662 0.477375 0.066887 0.186850
C63   C     C_3   0.581691 0.537448 0.046010 -0.365293
C64   C     C_3   0.552314 0.576343 0.890663 -0.402292
C65   C     C_3   0.571678 0.498145 0.931476 0.314754
H44   H     H_    0.624193 0.659699 0.943310 0.167470
H45   H     H_    0.540727 0.547191 0.806800 0.174716
C66   C     C_3   0.395503 0.498722 0.924074 0.309429
C67   C     C_3   0.477827 0.534325 0.040846 -0.515506
C68   C     C_3   0.449973 0.580554 0.890849 -0.361474
H46   H     H_    0.391421 0.559355 0.808469 0.191808
H47   H     H_    0.474761 0.665614 0.949152 0.130423
H48   H     H_    0.649756 0.623299 0.103664 0.203283
H49   H     H_    0.498679 0.617426 0.100321 0.195502
H50   H     H_    0.503061 0.313536 0.028641 0.092859
C69   C     C_R   0.337635 0.187291 0.949992 -0.130383
H51   H     H_    0.334364 0.146100 0.873132 0.110162
C70   C     C_R   0.247550 0.144341 0.962387 -0.172758
H52   H     H_    0.175033 0.068475 0.895274 0.128024
C71   C     C_R   0.252648 0.196668 0.062761 0.108122
C72   C     C_R   0.347486 0.293888 0.149577 -0.124528
H53   H     H_    0.353283 0.333538 0.228156 0.116005
C73   C     C_R   0.437967 0.335870 0.137241 -0.120042
H54   H     H_    0.512407 0.409288 0.204984 0.122331
C74   C     C_R   0.432912 0.282106 0.037755 -0.110802
C75   C     C_R   0.158744 0.041236 0.080586 -0.237554
H55   H     H_    0.209745 0.011587 0.059054 0.130021
C76   C     C_R   0.078477 0.979007 0.096157 0.058781
C77   C     C_R   0.025145 0.028417 0.140728 0.043390
C78   C     C_R   0.049236 0.133324 0.159070 -0.231458
H56   H     H_    0.008291 0.169163 0.193512 0.128878
C79   C     C_R   0.102519 0.177748 0.110516 0.051015
C80   C     C_R   0.168762 0.138478 0.083550 0.024809
C81   C     C_R   0.823741 0.930592 0.058324 -0.109642
H57   H     H_    0.817143 0.942935 0.989753 0.117027
C82   C     C_R   0.729387 0.877845 0.061084 -0.215345
H58   H     H_    0.650659 0.850063 0.995217 0.132667
C83   C     C_R   0.735944 0.856768 0.146281 -0.275615
H59   H     H_    0.661333 0.810134 0.143536 0.156726
C84   C     C_R   0.837811 0.892478 0.232036 0.412496
C85   C     C_R   0.932987 0.957634 0.235370 -0.340284
H60   H     H_    0.012281 0.990107 0.303211 0.156712
C86   C     C_R   0.926281 0.968803 0.144320 0.082103
O1    O     O_3   0.754563 0.349717 0.485099 -0.777287
H61   H     H_    0.685335 0.309697 0.415408 0.324742
O2    O     O_3   0.004466 0.034567 0.687885 -0.802101
H62   H     H_    0.982211 0.004543 0.731562 0.302215
O3    O     O_3   0.292383 0.348305 0.736186 -0.770680
H63   H     H_    0.259980 0.267486 0.692978 0.309117
N17   N     N_R   0.844486 0.856883 0.310888 0.224491
O4    O     O_R   0.936726 0.871081 0.376554 -0.447839
O5    O     O_R   0.756849 0.800497 0.310579 -0.436345

loop_
_geom_bond_atom_site_label_1
_geom_bond_atom_site_label_2
_geom_bond_distance
_ccdc_geom_bond_type
C6    C12   1.380544 A    
O3    H63   0.993167 S    
C44   H30   1.083244 S    
C9    C79   1.478463 S    
C11   C66   1.474522 S    
C17   H13   1.080016 S    
C45   C46   1.406323 A    
C14   C22   1.371833 A    
C58   O2    1.379129 S    
C21   C65   1.477528 S    
C64   H44   1.105396 S    
C38   H24   1.078217 S    
C3    H3    1.080677 S    
C19   N15   1.333177 A    
C35   C36   1.422842 A    
N8    Ni3   1.861047 S    
C52   C53   1.403830 A    
C81   H57   1.083434 S    
C33   C42   1.483451 S    
C85   H60   1.082768 S    
C15   N11   1.329382 A    
C75   C80   1.390274 A    
N9    N15   1.384211 A    
C73   H54   1.082415 S    
C75   C76   1.398367 A    
C16   H12   1.062494 S    
C43   C44   1.396939 A    
C18   C23   1.385110 A    
C58   C59   1.410698 A    
C3    C11   1.379382 A    
C59   H38   1.083492 S    
C15   C23   1.387545 A    
C1    H1    1.072015 S    
C32   C33   1.413901 A    
C29   C30   1.394589 A    
C7    C10   1.382440 A    
C31   C36   1.412643 A    
C50   C51   1.416491 A    
N6    Ni1   1.865463 S    
C38   C39   1.395711 A    
N12   N13   1.392516 A    
C82   H58   1.082641 S    
H50   C74   1.074501 S    
C6    H6    1.073410 S    
N12   Ni4   1.861049 S    
C8    C9    1.400606 A    
C46   C47   1.398347 A    
C19   H15   1.079821 S    
C20   N16   1.337831 A    
C76   C77   1.425257 A    
C82   C83   1.396224 A    
N3    Ni3   1.875352 S    
C43   C48   1.396037 A    
C78   C79   1.401696 A    
C55   H35   1.083346 S    
C51   C60   1.478284 S    
N16   Ni3   1.861098 S    
C61   C65   1.555116 S    
H17   C30   1.080899 S    
C49   C54   1.375929 A    
C61   H40   1.113610 S    
C27   C28   1.408263 A    
C63   H48   1.111997 S    
C49   C50   1.397934 A    
N17   O4    1.301113 A    
C5    H5    1.081398 S    
N1    Ni1   1.866398 S    
C1    C9    1.389503 A    
C17   N13   1.343896 A    
N1    N8    1.392518 A    
N2    Ni2   1.865518 S    
H28   C48   1.079659 S    
C51   C52   1.394964 A    
C83   C84   1.405259 A    
C49   H33   1.078778 S    
C18   N14   1.323872 A    
C55   C60   1.405845 A    
C83   H59   1.082293 S    
C73   C74   1.396736 A    
C40   C41   1.397319 A    
C27   C36   1.486217 S    
C69   H51   1.082725 S    
C69   C74   1.394041 A    
C33   C34   1.364487 A    
C28   H20   1.083227 S    
C20   C22   1.393244 A    
O2    H62   0.991783 S    
C72   C73   1.394708 A    
C4    H4    1.081924 S    
C43   H29   1.082178 S    
C37   C38   1.397722 A    
C31   C32   1.404676 A    
C67   H49   1.114374 S    
C40   H26   1.079636 S    
N2    N7    1.392518 A    
C57   C58   1.400456 A    
C1    N1    1.325669 A    
C24   C76   1.470555 S    
C26   C27   1.405888 A    
C10   C53   1.456764 S    
C34   H22   1.082441 S    
N5    Ni2   1.866792 S    
C13   H9    1.078320 S    
C19   C21   1.392371 A    
C70   C71   1.403934 A    
N13   Ni2   1.866397 S    
C2    C10   1.396993 A    
C39   H25   1.079750 S    
C63   C67   1.515246 S    
C53   C54   1.415341 A    
C46   H31   1.083316 S    
C25   H18   1.080412 S    
C20   H16   1.080541 S    
C56   C57   1.396861 A    
C6    N6    1.332744 A    
N9    Ni1   1.866794 S    
C12   C35   1.461206 S    
C34   C35   1.396313 A    
N4    Ni4   1.861097 S    
N17   O5    1.301742 A    
C4    N4    1.321683 A    
C16   C24   1.366598 A    
C2    N2    1.336252 A    
C39   C40   1.395730 A    
C13   C21   1.386109 A    
N10   Ni2   1.865466 S    
C47   C48   1.395679 A    
C5    N5    1.330843 A    
C68   H46   1.111492 S    
C31   O1    1.383877 S    
C8    N8    1.344460 A    
C64   C65   1.550427 S    
C84   N17   1.438906 S    
C62   C66   1.558925 S    
O1    H61   0.990345 S    
C18   H14   1.079785 S    
H42   C63   1.109031 S    
C57   H37   1.081357 S    
C61   C62   1.533601 S    
C4    C12   1.380832 A    
C3    N3    1.324377 A    
C63   C65   1.551765 S    
C56   H36   1.082312 S    
C7    N7    1.320158 A    
C64   C68   1.554542 S    
C17   C24   1.403561 A    
C2    H2    1.080440 S    
C66   C68   1.556682 S    
C66   C67   1.545230 S    
C81   C86   1.403136 A    
N7    Ni4   1.875135 S    
C77   C86   1.483690 S    
C61   H39   1.107532 S    
N15   Ni4   1.875349 S    
C52   H34   1.083429 S    
N10   N16   1.384212 A    
C72   H53   1.083210 S    
C23   C50   1.472685 S    
C14   H10   1.073199 S    
C7    H7    1.077141 S    
C55   C56   1.395604 A    
C25   C26   1.402267 A    
N11   N14   1.392518 A    
C64   H45   1.112563 S    
C13   N9    1.322003 A    
C70   H52   1.083135 S    
C26   H19   1.082666 S    
C16   N12   1.313433 A    
C69   C70   1.392710 A    
H43   C67   1.107383 S    
C71   C80   1.466023 S    
C44   C45   1.407038 A    
N14   Ni1   1.865520 S    
C85   C86   1.405797 A    
C59   C60   1.406218 A    
C25   C30   1.396353 A    
N3    N5    1.384210 A    
C29   H21   1.080499 S    
C37   C42   1.403775 A    
C84   C85   1.408705 A    
C45   C54   1.485754 S    
C62   O3    1.407006 S    
C37   H23   1.083153 S    
N11   Ni3   1.875134 S    
C77   C78   1.386378 A    
C41   H27   1.083219 S    
C81   C82   1.394214 A    
C47   H32   1.079574 S    
N4    N6    1.384210 A    
C79   C80   1.405310 A    
C68   H47   1.111842 S    
C41   C42   1.405452 A    
C8    H8    1.075612 S    
C5    C11   1.377569 A    
C15   H11   1.069640 S    
C28   C29   1.394839 A    
C62   H41   1.112084 S    
C75   H55   1.081656 S    
C71   C72   1.401290 A    
C22   C32   1.450701 S    
C14   N10   1.317573 A    
C78   H56   1.079272 S    
