data_str_m12_o9_o10_f0_bcu.sym.34
_audit_creation_date              2013-03-05T15:57:25-0500
_audit_creation_method            fapswitch 2.2
_symmetry_space_group_name_H-M    P1
_symmetry_Int_Tables_number       1
_space_group_crystal_system       triclinic
_cell_length_a                    13.067648
_cell_length_b                    13.02251
_cell_length_c                    15.196019
_cell_angle_alpha                 115.999248
_cell_angle_beta                  63.435309
_cell_angle_gamma                 96.866665
_cell_volume                      2069.46028096

loop_
_atom_site_label
_atom_site_type_symbol
_atom_site_description
_atom_site_fract_x
_atom_site_fract_y
_atom_site_fract_z
_atom_type_partial_charge
C1    C     C_R   0.020654 0.834293 0.032784 -0.117279
H1    H     H_    0.062679 0.898265 0.075753 0.086802
N1    N     N_R   0.037320 0.720000 0.995830 -0.042853
C2    C     C_R   0.707642 0.396392 0.205854 -0.125529
H2    H     H_    0.657903 0.336319 0.169302 0.088790
N2    N     N_R   0.790770 0.446140 0.151990 -0.047323
C3    C     C_R   0.740212 0.574779 0.944105 -0.153935
H3    H     H_    0.749105 0.619770 0.896546 0.086292
N3    N     N_R   0.824900 0.517970 0.936430 -0.038698
C4    C     C_R   0.962198 0.718338 0.316885 0.353990
N4    N     N_R   0.003190 0.648180 0.211390 -0.083985
C5    C     C_R   0.661764 0.478934 0.046447 -0.110842
H4    H     H_    0.603876 0.439466 0.097153 0.091370
N5    N     N_R   0.774330 0.457010 0.995830 -0.045186
C6    C     C_R   0.045965 0.818775 0.219847 -0.191574
H5    H     H_    0.090502 0.885604 0.198286 0.113295
N6    N     N_R   0.053760 0.709130 0.151980 -0.053106
C7    C     C_R   0.805865 0.480828 0.301372 -0.116487
H6    H     H_    0.845305 0.498204 0.354172 0.179608
N7    N     N_R   0.853840 0.498830 0.211390 -0.054282
C8    C     C_R   0.922902 0.749962 0.935230 -0.145079
H7    H     H_    0.875817 0.736865 0.889009 0.090131
N8    N     N_R   0.974250 0.667320 0.936430 -0.041779
C9    C     C_R   0.944019 0.855447 0.000963 0.138461
C10   C     C_R   0.715910 0.413881 0.299302 0.044911
C11   C     C_R   0.637967 0.555580 0.016954 0.146786
C12   C     C_R   0.983410 0.826376 0.323087 -0.108618
C13   C     C_R   0.323419 0.575852 0.007634 -0.144973
H8    H     H_    0.369751 0.638528 0.979924 0.090150
N9    N     N_R   0.225670 0.542990 0.004170 -0.047162
C14   C     C_R   0.903106 0.202483 0.792829 -0.120471
H9    H     H_    0.852673 0.141810 0.821578 0.098885
N10   N     N_R   0.946240 0.290870 0.848020 -0.043990
C15   C     C_R   0.216658 0.445264 0.683509 -0.137417
H10   H     H_    0.188215 0.392638 0.622827 0.117014
N11   N     N_R   0.146160 0.501170 0.788610 -0.042330
C16   C     C_R   0.092623 0.250411 0.048880 -0.121976
H11   H     H_    0.151118 0.265092 0.084822 0.094057
N12   N     N_R   0.025750 0.332680 0.063570 -0.038812
C17   C     C_R   0.993661 0.166725 0.952736 -0.093069
H12   H     H_    0.960694 0.103756 0.899118 0.094869
N13   N     N_R   0.962680 0.280000 0.004170 -0.045820
C18   C     C_R   0.320364 0.532882 0.776178 -0.135996
H13   H     H_    0.389836 0.565020 0.797919 0.088465
N14   N     N_R   0.209230 0.553860 0.848010 -0.040228
C19   C     C_R   0.244578 0.475718 0.104692 -0.141846
H14   H     H_    0.222625 0.444538 0.165613 0.113930
N15   N     N_R   0.175100 0.482030 0.063570 -0.043742
C20   C     C_R   0.984599 0.303220 0.697623 -0.166680
H15   H     H_    0.010937 0.335881 0.637379 0.099484
N16   N     N_R   0.996810 0.351820 0.788610 -0.038392
Ni1   Ni    Ni4+2 0.130310 0.630310 0.000000 0.206749
Ni2   Ni    Ni4+2 0.869690 0.369690 0.000000 0.204864
Ni3   Ni    Ni4+2 0.985660 0.509480 0.863750 0.205268
Ni4   Ni    Ni4+2 0.014340 0.490520 0.136250 0.255560
C21   C     C_R   0.337897 0.534287 0.070287 0.159951
C22   C     C_R   0.924259 0.211188 0.699923 0.061797
C23   C     C_R   0.327583 0.463221 0.671589 0.058995
C24   C     C_R   0.076201 0.144248 0.978267 0.031886
H16   H     H_    0.490037 0.769480 0.250051 0.115548
C25   C     C_R   0.314306 0.769157 0.359748 -0.138371
H17   H     H_    0.334823 0.709069 0.382397 0.106503
C26   C     C_R   0.200832 0.815194 0.407491 -0.102573
H18   H     H_    0.134242 0.791957 0.468668 0.151453
C27   C     C_R   0.174570 0.894971 0.379874 0.129198
C28   C     C_R   0.262306 0.926112 0.302299 -0.173194
H19   H     H_    0.243392 0.988803 0.281493 0.099733
C29   C     C_R   0.375661 0.879814 0.254640 -0.114006
H20   H     H_    0.443514 0.905241 0.196011 0.106726
C30   C     C_R   0.401868 0.803091 0.284929 -0.054175
C31   C     C_R   0.041306 0.056018 0.538192 -0.244959
H21   H     H_    0.111081 0.083005 0.561452 0.143952
C32   C     C_R   0.933321 0.117415 0.603698 0.067411
C33   C     C_R   0.840276 0.086071 0.577879 0.006258
C34   C     C_R   0.859253 0.987464 0.482953 -0.201071
H22   H     H_    0.790615 0.958959 0.458545 0.126148
C35   C     C_R   0.967819 0.925781 0.418263 0.146249
C36   C     C_R   0.059777 0.959307 0.444694 0.014548
C37   C     C_R   0.624969 0.096855 0.675923 -0.152606
H23   H     H_    0.630501 0.004665 0.647914 0.125996
C38   C     C_R   0.516839 0.159492 0.741871 -0.117680
H24   H     H_    0.440188 0.115575 0.763532 0.113603
C39   C     C_R   0.507525 0.278675 0.780228 -0.083322
H25   H     H_    0.423801 0.326934 0.831257 0.118542
C40   C     C_R   0.606303 0.335456 0.752472 -0.102996
H26   H     H_    0.599128 0.427789 0.782049 0.102200
C41   C     C_R   0.714441 0.273170 0.686130 -0.127863
H27   H     H_    0.789399 0.318887 0.664385 0.121102
C42   C     C_R   0.725206 0.153106 0.647761 0.118040
H28   H     H_    0.009052 0.453183 0.559495 0.112334
C43   C     C_R   0.923829 0.339835 0.465164 -0.139326
H29   H     H_    0.985272 0.266391 0.425659 0.118163
C44   C     C_R   0.830412 0.329159 0.441402 -0.137098
H30   H     H_    0.820379 0.247259 0.383692 0.114699
C45   C     C_R   0.747520 0.422492 0.496093 0.081120
C46   C     C_R   0.760146 0.526968 0.573437 -0.122834
H31   H     H_    0.696059 0.599379 0.617325 0.120196
C47   C     C_R   0.855011 0.537984 0.595139 -0.013919
H32   H     H_    0.864606 0.618557 0.654587 0.105232
C48   C     C_R   0.936515 0.444425 0.541381 -0.094245
C49   C     C_R   0.537981 0.424357 0.574240 -0.224993
H33   H     H_    0.540142 0.451205 0.651490 0.119389
C50   C     C_R   0.433116 0.415793 0.568439 0.061610
C51   C     C_R   0.434493 0.363573 0.463861 0.021653
C52   C     C_R   0.539479 0.329429 0.371794 -0.218956
H34   H     H_    0.538276 0.290275 0.293228 0.125879
C53   C     C_R   0.638927 0.372439 0.381073 0.057303
C54   C     C_R   0.641342 0.406996 0.482115 0.031531
C55   C     C_R   0.299671 0.262666 0.385282 -0.167688
H35   H     H_    0.329476 0.182089 0.374756 0.120599
C56   C     C_R   0.230009 0.262217 0.337190 -0.151114
H36   H     H_    0.203459 0.182143 0.292607 0.102482
C57   C     C_R   0.197520 0.364672 0.343656 -0.083723
H37   H     H_    0.145340 0.363841 0.304625 0.128649
C58   C     C_R   0.230776 0.468393 0.401845 -0.116646
H38   H     H_    0.204690 0.547664 0.407390 0.147059
C59   C     C_R   0.300194 0.469332 0.450337 -0.176420
H39   H     H_    0.330614 0.549380 0.490119 0.118577
C60   C     C_R   0.336552 0.366161 0.440963 0.112116
C61   C     C_2   0.434007 0.549431 0.094749 -0.170824
H40   H     H_    0.435615 0.507702 0.142149 0.123110
C62   C     C_2   0.525982 0.591752 0.040494 -0.234208
H41   H     H_    0.523530 0.636926 0.996181 0.125369
C63   C     C_2   0.884765 0.966484 0.038106 -0.213122
H42   H     H_    0.842730 0.972960 0.992999 0.131947
C64   C     C_2   0.871906 0.056904 0.131048 -0.145366
H43   H     H_    0.907827 0.054728 0.182325 0.123116
N17   N     N_R   0.943930 0.683631 0.399588 0.208505
O1    O     O_R   0.008953 0.597879 0.375476 -0.475456
O2    O     O_R   0.877019 0.748244 0.501438 -0.447994

loop_
_geom_bond_atom_site_label_1
_geom_bond_atom_site_label_2
_geom_bond_distance
_ccdc_geom_bond_type
C25   C30   1.397565 A    
C4    C12   1.370769 A    
N15   Ni4   1.875761 S    
C28   C29   1.397648 A    
C41   H27   1.080107 S    
C26   C27   1.403395 A    
C44   H30   1.083120 S    
C32   C33   1.402324 A    
N1    N8    1.397125 A    
C56   H36   1.082162 S    
C18   H13   1.079202 S    
N17   O1    1.301156 A    
C38   H24   1.082535 S    
C13   C21   1.368439 A    
C3    H3    1.076519 S    
C35   C36   1.395862 A    
C52   C53   1.393929 A    
C10   C53   1.478973 S    
C64   H43   1.085354 S    
C3    C11   1.383125 A    
C33   C42   1.491234 S    
N9    N15   1.360489 A    
C13   H8    1.079432 S    
C15   H10   1.072243 S    
C59   C60   1.405512 A    
N13   Ni2   1.821530 S    
C58   H38   1.082194 S    
C9    C63   1.473191 S    
C20   C22   1.358467 A    
C6    N6    1.327609 A    
C1    H1    1.075357 S    
C22   C32   1.399143 S    
C25   C26   1.397724 A    
C18   C23   1.407186 A    
N12   Ni4   1.844642 S    
C45   C46   1.406230 A    
C29   H20   1.082349 S    
C20   N16   1.320490 A    
C46   C47   1.395621 A    
C53   C54   1.412535 A    
C14   N10   1.329398 A    
C43   C48   1.399547 A    
C7    N7    1.340477 A    
C51   C60   1.476189 S    
C49   C54   1.392696 A    
C17   N13   1.341549 A    
C28   H19   1.082583 S    
C49   C50   1.400325 A    
C17   C24   1.396039 A    
C8    H7    1.075835 S    
C21   C61   1.431269 S    
C7    C10   1.380880 A    
N7    Ni4   1.875731 S    
C4    N17   1.429877 S    
N6    Ni1   1.867852 S    
H28   C48   1.080399 S    
C51   C52   1.385988 A    
C38   C39   1.397153 A    
C61   C62   1.334808 D    
C2    C10   1.388475 A    
N12   N13   1.397124 A    
C40   C41   1.397900 A    
N10   Ni2   1.867853 S    
C19   N15   1.338614 A    
C33   C34   1.386891 A    
C49   H33   1.080973 S    
C2    N2    1.330812 A    
C4    N4    1.325330 A    
C43   H29   1.081170 S    
C31   C32   1.391768 A    
N3    N5    1.360491 A    
C7    H6    1.069297 S    
N14   Ni1   1.867706 S    
C58   C59   1.397623 A    
C40   H26   1.082610 S    
C26   H18   1.083118 S    
C5    C11   1.372907 A    
C1    N1    1.346635 A    
C34   H22   1.084934 S    
C16   H11   1.079848 S    
C43   C44   1.396276 A    
C18   N14   1.338193 A    
C6    C12   1.369471 A    
C39   H25   1.082415 S    
H16   C30   1.082124 S    
C46   H31   1.083157 S    
N11   N14   1.397143 A    
C56   C57   1.397590 A    
C34   C35   1.398972 A    
C16   C24   1.393984 A    
C29   C30   1.397630 A    
C17   H12   1.079636 S    
C39   C40   1.396090 A    
C5    N5    1.316364 A    
C27   C28   1.402739 A    
C47   C48   1.394864 A    
C8    N8    1.345219 A    
C20   H15   1.077963 S    
N2    Ni2   1.867705 S    
N4    Ni4   1.846012 S    
C61   H40   1.083507 S    
C55   C60   1.405098 A    
N8    Ni3   1.844642 S    
C63   C64   1.336596 D    
C57   H37   1.082217 S    
C3    N3    1.338026 A    
N9    Ni1   1.822785 S    
C19   H14   1.080907 S    
N4    N6    1.360490 A    
C27   C36   1.475755 S    
C14   H9    1.081690 S    
C2    H2    1.078574 S    
C12   C35   1.402541 S    
N17   O2    1.300658 A    
N1    Ni1   1.821530 S    
C23   C50   1.470288 S    
N10   N16   1.360491 A    
N2    N7    1.397142 A    
C52   H34   1.080169 S    
C37   C38   1.399513 A    
N16   Ni3   1.846012 S    
C14   C22   1.366102 A    
C41   C42   1.408672 A    
C31   H21   1.087441 S    
C16   N12   1.342010 A    
C59   H39   1.083278 S    
C55   C56   1.397424 A    
C13   N9    1.314234 A    
C15   N11   1.324570 A    
C25   H17   1.082324 S    
C37   C42   1.406958 A    
N11   Ni3   1.875731 S    
C45   C54   1.473108 S    
C37   H23   1.083022 S    
N5    Ni2   1.822785 S    
C5    H4    1.078436 S    
C1    C9    1.388692 A    
C44   C45   1.401906 A    
C47   H32   1.082397 S    
C8    C9    1.383412 A    
C19   C21   1.378077 A    
C50   C51   1.420616 A    
C15   C23   1.381986 A    
N3    Ni3   1.875762 S    
C11   C62   1.428365 S    
C62   H41   1.082424 S    
C55   H35   1.083142 S    
C31   C36   1.363913 A    
C6    H5    1.077853 S    
C63   H42   1.084975 S    
C57   C58   1.396925 A    
