data_str_m4_o17_o17_f0_acs.sym.118
_audit_creation_date              2012-12-11T14:30:00-0500
_audit_creation_method            fapswitch 2.2
_symmetry_space_group_name_H-M    P1
_symmetry_Int_Tables_number       1
_space_group_crystal_system       triclinic
_cell_length_a                    12.653326
_cell_length_b                    12.653329
_cell_length_c                    27.062912
_cell_angle_alpha                 90.0
_cell_angle_beta                  90.000031
_cell_angle_gamma                 120.00017
_cell_volume                      3752.44133018

loop_
_atom_site_label
_atom_site_type_symbol
_atom_type_description
_atom_site_fract_x
_atom_site_fract_y
_atom_site_fract_z
_atom_type_partial_charge
C1    C     C_R   0.558634 0.455942 0.822408 0.546053
C2    C     C_R   0.897309 0.441367 0.677592 0.546053
C3    C     C_R   0.544057 0.102691 0.822408 0.546049
C4    C     C_R   0.558633 0.455942 0.677593 0.546054
C5    C     C_R   0.897308 0.441366 0.822408 0.546052
C6    C     C_R   0.544057 0.102690 0.677593 0.546051
C7    C     C_R   0.455941 0.558637 0.322409 0.546052
C8    C     C_R   0.441365 0.897306 0.177591 0.546052
C9    C     C_R   0.102694 0.544058 0.322409 0.546049
C10   C     C_R   0.455941 0.558636 0.177591 0.546053
C11   C     C_R   0.441364 0.897305 0.322409 0.546051
C12   C     C_R   0.102692 0.544058 0.177592 0.546051
C13   C     C_R   0.992968 0.498413 0.974217 0.063161
C14   C     C_R   0.505437 0.007016 0.525785 0.063161
C15   C     C_R   0.501588 0.494559 0.974217 0.063161
C16   C     C_R   0.992983 0.498421 0.525785 0.063161
C17   C     C_R   0.505442 0.007029 0.974217 0.063161
C18   C     C_R   0.501576 0.494568 0.525786 0.063161
C19   C     C_R   0.498396 0.992939 0.474222 0.063161
C20   C     C_R   0.007046 0.505449 0.025780 0.063160
C21   C     C_R   0.494540 0.501612 0.474223 0.063160
C22   C     C_R   0.498403 0.992951 0.025780 0.063161
C23   C     C_R   0.007061 0.505456 0.474222 0.063160
C24   C     C_R   0.494550 0.501600 0.025780 0.063161
C25   C     C_R   0.990657 0.689493 0.974395 -0.124367
C26   C     C_R   0.698838 0.009345 0.525605 -0.124367
C27   C     C_R   0.310503 0.301169 0.974395 -0.124368
C28   C     C_R   0.990635 0.689483 0.525603 -0.124366
C29   C     C_R   0.698827 0.009326 0.974394 -0.124367
C30   C     C_R   0.310515 0.301156 0.525604 -0.124367
C31   C     C_R   0.689513 0.990699 0.474394 -0.124368
C32   C     C_R   0.009303 0.698815 0.025607 -0.124368
C33   C     C_R   0.301195 0.310481 0.474393 -0.124369
C34   C     C_R   0.689504 0.990680 0.025605 -0.124368
C35   C     C_R   0.009281 0.698804 0.474392 -0.124369
C36   C     C_R   0.301181 0.310493 0.025606 -0.124368
C37   C     C_R   0.959745 0.576619 0.897297 -0.135254
C38   C     C_R   0.616873 0.040253 0.602704 -0.135254
C39   C     C_R   0.423381 0.383129 0.897297 -0.135255
C40   C     C_R   0.959738 0.576618 0.602703 -0.135253
C41   C     C_R   0.616869 0.040247 0.897297 -0.135255
C42   C     C_R   0.423381 0.383123 0.602703 -0.135254
C43   C     C_R   0.576620 0.959756 0.397298 -0.135257
C44   C     C_R   0.040240 0.616862 0.102703 -0.135256
C45   C     C_R   0.383141 0.423380 0.397298 -0.135257
C46   C     C_R   0.576619 0.959751 0.102702 -0.135256
C47   C     C_R   0.040234 0.616857 0.397297 -0.135257
C48   C     C_R   0.383135 0.423381 0.102702 -0.135256
C49   C     C_R   0.049479 0.524378 0.127803 -0.004981
C50   C     C_R   0.474894 0.950512 0.372198 -0.004980
C51   C     C_R   0.475620 0.525103 0.127803 -0.004980
C52   C     C_R   0.049487 0.524379 0.372198 -0.004979
C53   C     C_R   0.474899 0.950519 0.127803 -0.004982
C54   C     C_R   0.475619 0.525112 0.372200 -0.004978
C55   C     C_R   0.524376 0.049464 0.627807 -0.004984
C56   C     C_R   0.950528 0.474907 0.872195 -0.004984
C57   C     C_R   0.525085 0.475623 0.627807 -0.004985
C58   C     C_R   0.524377 0.049470 0.872195 -0.004983
C59   C     C_R   0.950535 0.474914 0.627806 -0.004986
C60   C     C_R   0.525094 0.475622 0.872195 -0.004982
C61   C     C_R   0.982532 0.589675 0.948351 0.016771
C62   C     C_R   0.607141 0.017463 0.551650 0.016771
C63   C     C_R   0.410324 0.392860 0.948350 0.016772
C64   C     C_R   0.982528 0.589675 0.551649 0.016770
C65   C     C_R   0.607138 0.017459 0.948350 0.016772
C66   C     C_R   0.410323 0.392857 0.551650 0.016770
C67   C     C_R   0.589676 0.982539 0.448352 0.016775
C68   C     C_R   0.017455 0.607134 0.051649 0.016773
C69   C     C_R   0.392867 0.410325 0.448352 0.016775
C70   C     C_R   0.589675 0.982535 0.051648 0.016773
C71   C     C_R   0.017451 0.607131 0.448351 0.016774
C72   C     C_R   0.392863 0.410325 0.051648 0.016773
C73   C     C_R   0.971230 0.390424 0.897868 -0.128097
C74   C     C_R   0.419185 0.028750 0.602135 -0.128099
C75   C     C_R   0.609580 0.580806 0.897868 -0.128097
C76   C     C_R   0.971258 0.390442 0.602136 -0.128100
C77   C     C_R   0.419193 0.028773 0.897868 -0.128096
C78   C     C_R   0.609556 0.580820 0.602137 -0.128101
C79   C     C_R   0.390389 0.971176 0.397875 -0.128091
C80   C     C_R   0.028804 0.419204 0.102128 -0.128092
C81   C     C_R   0.580780 0.609626 0.397878 -0.128089
C82   C     C_R   0.390404 0.971199 0.102128 -0.128093
C83   C     C_R   0.028832 0.419214 0.397876 -0.128088
C84   C     C_R   0.580794 0.609603 0.102127 -0.128093
C85   C     C_R   0.988102 0.399037 0.948650 0.013966
C86   C     C_R   0.410923 0.011874 0.551353 0.013968
C87   C     C_R   0.600966 0.589067 0.948650 0.013966
C88   C     C_R   0.988134 0.399055 0.551354 0.013967
C89   C     C_R   0.410934 0.011900 0.948650 0.013967
C90   C     C_R   0.600942 0.589085 0.551356 0.013968
C91   C     C_R   0.399001 0.988040 0.448657 0.013964
C92   C     C_R   0.011936 0.410950 0.051346 0.013966
C93   C     C_R   0.589031 0.601014 0.448660 0.013964
C94   C     C_R   0.399016 0.988067 0.051346 0.013965
C95   C     C_R   0.011968 0.410963 0.448658 0.013964
C96   C     C_R   0.589049 0.600990 0.051345 0.013966
C97   C     C_R   0.005133 0.311744 0.025580 -0.124244
C98   C     C_R   0.306594 0.994833 0.474424 -0.124244
C99   C     C_R   0.688256 0.693392 0.025580 -0.124244
C100  C     C_R   0.005183 0.311768 0.474426 -0.124242
C101  C     C_R   0.306616 0.994875 0.025580 -0.124244
C102  C     C_R   0.688224 0.693427 0.474428 -0.124242
C103  C     C_R   0.311698 0.005035 0.525590 -0.124247
C104  C     C_R   0.994931 0.306646 0.974413 -0.124245
C105  C     C_R   0.693323 0.688318 0.525594 -0.124247
C106  C     C_R   0.311717 0.005077 0.974414 -0.124245
C107  C     C_R   0.994981 0.306672 0.525592 -0.124246
C108  C     C_R   0.693358 0.688286 0.974414 -0.124245
Cr1   Cr    Cr6+3 0.487630 0.241180 0.750000 1.008711
Cr2   Cr    Cr6+3 0.753550 0.512370 0.750000 1.008711
Cr3   Cr    Cr6+3 0.758820 0.246450 0.750000 1.008711
Cr4   Cr    Cr6+3 0.241180 0.487630 0.250000 1.008713
Cr5   Cr    Cr6+3 0.512370 0.753550 0.250000 1.008712
Cr6   Cr    Cr6+3 0.246450 0.758820 0.250000 1.008713
H1    H     H_    0.056095 0.698257 0.122284 0.118451
H2    H     H_    0.642164 0.943910 0.377717 0.118446
H3    H     H_    0.301740 0.357841 0.122283 0.118451
H4    H     H_    0.056074 0.698245 0.377715 0.118446
H5    H     H_    0.642157 0.943892 0.122282 0.118452
H6    H     H_    0.301755 0.357829 0.377715 0.118443
H7    H     H_    0.698281 0.056137 0.622282 0.118463
H8    H     H_    0.943869 0.642147 0.877719 0.118459
H9    H     H_    0.357861 0.301710 0.622280 0.118464
H10   H     H_    0.698271 0.056119 0.877717 0.118458
H11   H     H_    0.943848 0.642138 0.622280 0.118466
H12   H     H_    0.357851 0.301726 0.877718 0.118458
O1    O     O_R   0.460870 0.120930 0.805240 -0.522762
O2    O     O_R   0.660060 0.539130 0.694760 -0.522762
O3    O     O_R   0.879070 0.339940 0.805240 -0.522761
O4    O     O_R   0.460870 0.120930 0.694760 -0.522762
O5    O     O_R   0.660060 0.539130 0.805240 -0.522763
O6    O     O_R   0.879070 0.339940 0.694760 -0.522760
O7    O     O_R   0.120930 0.460870 0.305240 -0.522762
O8    O     O_R   0.539130 0.660060 0.194760 -0.522762
O9    O     O_R   0.339940 0.879070 0.305240 -0.522761
O10   O     O_R   0.120930 0.460870 0.194760 -0.522761
O11   O     O_R   0.539130 0.660060 0.305240 -0.522763
O12   O     O_R   0.339940 0.879070 0.194760 -0.522760
O13   O     O_R   0.498910 0.350470 0.801870 -0.500414
O14   O     O_R   0.851560 0.501090 0.698130 -0.500414
O15   O     O_R   0.649530 0.148440 0.801870 -0.500413
O16   O     O_R   0.498910 0.350470 0.698130 -0.500414
O17   O     O_R   0.851560 0.501090 0.801870 -0.500414
O18   O     O_R   0.649530 0.148440 0.698130 -0.500413
O19   O     O_R   0.350470 0.498910 0.301870 -0.500412
O20   O     O_R   0.501090 0.851560 0.198130 -0.500413
O21   O     O_R   0.148440 0.649530 0.301870 -0.500412
O22   O     O_R   0.350470 0.498910 0.198130 -0.500412
O23   O     O_R   0.501090 0.851560 0.301870 -0.500414
O24   O     O_R   0.148440 0.649530 0.198130 -0.500412
O25   O     O_3   0.666667 0.333333 0.750000 -0.230055
O26   O     O_3   0.333333 0.666667 0.250000 -0.230059
H13   H     H_    0.016903 0.777412 0.044846 0.093829
H14   H     H_    0.760513 0.983105 0.455154 0.093822
H15   H     H_    0.222583 0.239496 0.044845 0.093827
H16   H     H_    0.016867 0.777393 0.455151 0.093828
H17   H     H_    0.760498 0.983073 0.044844 0.093826
H18   H     H_    0.222606 0.239475 0.455152 0.093824
H19   H     H_    0.777451 0.016976 0.544842 0.093831
H20   H     H_    0.983033 0.760479 0.955158 0.093829
H21   H     H_    0.239536 0.222537 0.544840 0.093830
H22   H     H_    0.777434 0.016944 0.955156 0.093830
H23   H     H_    0.982996 0.760462 0.544839 0.093833
H24   H     H_    0.239516 0.222560 0.955157 0.093829
H25   H     H_    0.035053 0.346864 0.120954 0.128968
H26   H     H_    0.311797 0.964921 0.379050 0.128970
H27   H     H_    0.653134 0.688192 0.120953 0.128968
H28   H     H_    0.035093 0.346879 0.379051 0.128970
H29   H     H_    0.311817 0.964954 0.120954 0.128968
H30   H     H_    0.653114 0.688225 0.379054 0.128970
H31   H     H_    0.346835 0.034975 0.620964 0.128963
H32   H     H_    0.964999 0.311846 0.879040 0.128966
H33   H     H_    0.688128 0.653173 0.620967 0.128963
H34   H     H_    0.346847 0.035008 0.879040 0.128965
H35   H     H_    0.965039 0.311870 0.620965 0.128964
H36   H     H_    0.688161 0.653152 0.879040 0.128965
H37   H     H_    0.009548 0.239053 0.044929 0.092905
H38   H     H_    0.229484 0.990411 0.455075 0.092906
H39   H     H_    0.760945 0.770499 0.044929 0.092903
H40   H     H_    0.009611 0.239082 0.455078 0.092905
H41   H     H_    0.229513 0.990464 0.044930 0.092907
H42   H     H_    0.760906 0.770544 0.455080 0.092901
H43   H     H_    0.238996 0.009424 0.544942 0.092905
H44   H     H_    0.990535 0.229551 0.955062 0.092907
H45   H     H_    0.770411 0.761022 0.544947 0.092905
H46   H     H_    0.239020 0.009477 0.955063 0.092906
H47   H     H_    0.990597 0.229584 0.544944 0.092909
H48   H     H_    0.770456 0.760982 0.955062 0.092904

loop_
_geom_bond_atom_site_label_1
_geom_bond_atom_site_label_2
_ccdc_geom_bond_type
C44   C49   A    
C80   C92   A    
C77   H34   S    
C82   C94   A    
C18   C21   A    
C5    C56   S    
C3    O15   A    
Cr6   O26   S    
Cr4   O7    S    
C6    O4    A    
C50   C79   A    
C12   C49   S    
C78   C90   A    
C31   C67   A    
C99   C108  A    
C20   C92   A    
C77   C89   A    
C103  H43   S    
C41   H10   S    
Cr1   O25   S    
C48   C72   A    
C41   C58   A    
C24   C96   A    
C4    O16   A    
C27   H24   S    
C3    O1    A    
C5    O17   A    
C86   C103  A    
C98   C103  A    
C14   C62   A    
C96   C99   A    
C107  H47   S    
Cr5   O23   S    
Cr4   O19   S    
C102  C105  A    
C8    O12   A    
C84   C96   A    
C105  H45   S    
C84   H27   S    
C58   C77   A    
C55   C74   A    
Cr1   O1    S    
C48   C51   A    
C87   C108  A    
C44   H1    S    
C4    C57   S    
C42   H9    S    
C78   H33   S    
C2    O6    A    
Cr6   O9    S    
Cr4   O26   S    
C19   C67   A    
Cr1   O16   S    
C32   H13   S    
C98   H38   S    
Cr2   O2    S    
C76   C88   A    
C79   C91   A    
C1    O13   A    
C33   C69   A    
C32   C68   A    
C25   C32   A    
C5    O3    A    
C82   H29   S    
C35   C71   A    
C26   C31   A    
C37   C56   A    
C40   C59   A    
C22   C94   A    
Cr5   O26   S    
C9    C52   S    
Cr4   O10   S    
C6    C55   S    
C10   C51   S    
C29   H22   S    
C42   C57   A    
C11   O23   A    
C92   C97   A    
C47   H4    S    
C8    O20   A    
C38   C55   A    
C45   C69   A    
C18   C90   A    
C12   O24   A    
Cr2   O5    S    
C17   C89   A    
C35   H16   S    
C14   C86   A    
Cr2   O25   S    
C1    C60   S    
C7    O11   A    
C88   C107  A    
C4    O2    A    
C2    C59   S    
C14   C19   A    
C41   C65   A    
C29   C34   A    
C9    O21   A    
C79   H26   S    
Cr4   O22   S    
C21   C69   A    
C53   C82   A    
C102  H42   S    
Cr5   O20   S    
C89   C106  A    
C52   C83   A    
C3    C58   S    
C99   H39   S    
C11   O9    A    
C43   H2    S    
C81   C93   A    
C97   H37   S    
C83   C95   A    
C25   H20   S    
C26   H19   S    
C25   C61   A    
C81   H30   S    
C74   C86   A    
C73   H32   S    
C106  H46   S    
C74   H31   S    
C30   C66   A    
C85   C104  A    
C27   C63   A    
Cr3   O18   S    
C29   C65   A    
C39   C60   A    
C28   C64   A    
C45   H6    S    
C75   C87   A    
C15   C24   A    
C104  H44   S    
C45   C54   A    
Cr3   O3    S    
Cr5   O8    S    
C7    C54   S    
Cr5   O11   S    
C44   C68   A    
C18   C66   A    
C47   C71   A    
C6    O18   A    
C100  H40   S    
C80   H25   S    
C31   H14   S    
C101  H41   S    
C33   H18   S    
C24   C72   A    
C15   C87   A    
C73   C85   A    
C101  C106  A    
C28   C35   A    
C34   C70   A    
C100  C107  A    
C15   C63   A    
C56   C73   A    
C94   C101  A    
C13   C20   A    
C75   H36   S    
C95   C100  A    
C93   C102  A    
C57   C78   A    
C20   C68   A    
C76   H35   S    
C42   C66   A    
C10   O8    A    
C90   C105  A    
C1    O5    A    
Cr3   O25   S    
C8    C53   S    
Cr6   O21   S    
C108  H48   S    
C37   C61   A    
C43   C50   A    
C48   H3    S    
C27   C36   A    
C16   C23   A    
C39   C63   A    
C83   H28   S    
C60   C75   A    
C17   C65   A    
C17   C22   A    
C40   C64   A    
C49   C80   A    
C97   C104  A    
Cr1   O13   S    
C2    O14   A    
Cr2   O14   S    
C26   C62   A    
C11   C50   S    
C21   C93   A    
C16   C88   A    
C40   H11   S    
C59   C76   A    
C46   C53   A    
C23   C95   A    
C46   H5    S    
C30   C33   A    
Cr6   O12   S    
C91   C98   A    
Cr2   O17   S    
C46   C70   A    
C38   H7    S    
C19   C91   A    
Cr3   O15   S    
C37   H8    S    
C34   H17   S    
Cr3   O6    S    
C13   C61   A    
C36   H15   S    
C23   C71   A    
C43   C67   A    
C12   O10   A    
C13   C85   A    
Cr1   O4    S    
C39   H12   S    
Cr6   O24   S    
C47   C52   A    
C16   C64   A    
C30   H21   S    
C38   C62   A    
C51   C84   A    
C22   C70   A    
C54   C81   A    
C36   C72   A    
C28   H23   S    
C10   O22   A    
C7    O19   A    
C9    O7    A    
