data_str_m9_o2_o17_f0_sra.sym.79
_audit_creation_date              2012-12-11T16:26:33-0500
_audit_creation_method            fapswitch 2.2
_symmetry_space_group_name_H-M    P1
_symmetry_Int_Tables_number       1
_space_group_crystal_system       triclinic
_cell_length_a                    6.936342
_cell_length_b                    17.528129
_cell_length_c                    19.447809
_cell_angle_alpha                 108.644502
_cell_angle_beta                  89.484199
_cell_angle_gamma                 90.646806
_cell_volume                      2240.21959736

loop_
_atom_site_label
_atom_site_type_symbol
_atom_type_description
_atom_site_fract_x
_atom_site_fract_y
_atom_site_fract_z
_atom_type_partial_charge
O1    O     O_R   0.494330 0.415720 0.413720 -0.536273
O2    O     O_R   0.819330 0.430070 0.560210 -0.545276
O3    O     O_R   0.994320 0.584280 0.586280 -0.536010
C1    C     C_R   0.650084 0.415669 0.582343 0.704959
O4    O     O_R   0.823730 0.406300 0.412670 -0.538564
O5    O     O_R   0.998760 0.560340 0.437690 -0.538476
C2    C     C_R   0.654991 0.383514 0.385012 0.695829
O6    O     O_R   0.489890 0.439660 0.562310 -0.541776
O7    O     O_3   0.662340 0.550560 0.508380 -0.366183
V1    V     V_3+5 0.935370 0.490620 0.498450 1.421801
O8    O     O_R   0.328750 0.569930 0.439790 -0.545897
C3    C     C_R   0.160898 0.584808 0.417926 0.706570
O9    O     O_R   0.324340 0.593700 0.587330 -0.536884
C4    C     C_R   0.155454 0.616398 0.615062 0.696430
V2    V     V_3+5 0.435940 0.509380 0.501550 1.423688
O10   O     O_3   0.159100 0.449440 0.491620 -0.369362
H1    H     H_    0.928411 0.858653 0.567332 0.139217
C5    C     C_R   0.259544 0.597696 0.752507 -0.179474
C6    C     C_R   0.308153 0.586130 0.817800 -0.153364
C7    C     C_R   0.295964 0.649537 0.883280 0.026613
C8    C     C_R   0.234182 0.725079 0.882258 -0.196262
C9    C     C_R   0.184770 0.738453 0.816575 0.052660
C10   C     C_R   0.197590 0.673476 0.750411 0.077418
C11   C     C_R   0.119979 0.814867 0.816304 -0.171710
C12   C     C_R   0.067333 0.826113 0.749930 0.068224
C13   C     C_R   0.080017 0.761025 0.683735 0.064355
C14   C     C_R   0.145446 0.684743 0.683940 -0.176973
C15   C     C_R   0.004454 0.901944 0.747899 -0.153664
C16   C     C_R   0.954382 0.913123 0.682583 -0.129182
C17   C     C_R   0.966683 0.849572 0.617983 -0.100600
C18   C     C_R   0.029209 0.774366 0.618197 -0.127587
H2    H     H_    0.270092 0.546221 0.703781 0.114790
H3    H     H_    0.354663 0.527022 0.816919 0.162037
H4    H     H_    0.223438 0.773219 0.933390 0.138067
H5    H     H_    0.994062 0.953512 0.796545 0.108130
H6    H     H_    0.906543 0.971540 0.682101 0.116686
H7    H     H_    0.038316 0.727140 0.566406 0.105667
C19   C     C_R   0.992227 0.628123 0.323140 -0.164196
C20   C     C_R   0.153384 0.633590 0.368060 -0.117089
C21   C     C_R   0.307348 0.685306 0.364650 -0.178419
C22   C     C_R   0.300359 0.732036 0.317858 -0.032520
C23   C     C_R   0.138493 0.725604 0.272658 -0.021177
C24   C     C_R   0.984549 0.673135 0.275094 0.162179
C25   C     C_R   0.451450 0.785416 0.315521 0.607329
C26   C     C_R   0.443082 0.830918 0.268154 -0.271167
C27   C     C_R   0.283632 0.824498 0.222695 -0.006591
C28   C     C_R   0.130063 0.771963 0.225137 0.049398
C29   C     C_R   0.967748 0.765936 0.180312 0.121386
C30   C     C_R   0.816888 0.712724 0.182556 -0.169429
C31   C     C_R   0.825283 0.666685 0.229454 -0.113337
C32   C     C_R   0.274730 0.870128 0.175210 -0.152048
C33   C     C_R   0.112497 0.865281 0.130911 -0.056723
C34   C     C_R   0.959094 0.813193 0.134097 -0.202241
H8    H     H_    0.873507 0.587966 0.324857 0.116446
H9    H     H_    0.431484 0.689894 0.399234 0.181241
H10   H     H_    0.561784 0.871273 0.267048 0.152143
H11   H     H_    0.393204 0.910430 0.173582 0.117146
H12   H     H_    0.833967 0.808649 0.099953 0.131519
H13   H     H_    0.691528 0.707105 0.148374 0.125130
H14   H     H_    0.706101 0.626546 0.230523 0.109070
C35   C     C_R   0.773333 0.192503 0.876307 0.574793
C36   C     C_R   0.625896 0.134681 0.869278 -0.193464
C37   C     C_R   0.484892 0.124492 0.815931 -0.226023
C38   C     C_R   0.487778 0.171597 0.769878 0.126662
C39   C     C_R   0.638671 0.228085 0.775063 -0.037500
C40   C     C_R   0.786771 0.238088 0.827592 -0.093407
C41   C     C_R   0.339117 0.163911 0.719501 -0.142743
C42   C     C_R   0.337956 0.211892 0.674387 -0.203496
C43   C     C_R   0.487233 0.267486 0.677871 0.101084
C44   C     C_R   0.638586 0.275408 0.728121 0.088808
C45   C     C_R   0.788999 0.330888 0.731446 0.083324
C46   C     C_R   0.935626 0.340493 0.782428 -0.234672
C47   C     C_R   0.937580 0.295301 0.830475 -0.013429
C48   C     C_R   0.488382 0.314866 0.631566 -0.230238
C49   C     C_R   0.642016 0.368283 0.633170 -0.089595
C50   C     C_R   0.791518 0.375965 0.683364 -0.199534
H15   H     H_    0.370215 0.080507 0.811103 0.146496
H16   H     H_    0.221918 0.121338 0.715647 0.122659
H17   H     H_    0.220518 0.205220 0.636475 0.130265
H18   H     H_    0.372670 0.308617 0.592974 0.127871
H19   H     H_    0.909196 0.417957 0.685550 0.124155
H20   H     H_    0.051731 0.383105 0.784174 0.149012
H21   H     H_    0.814750 0.130499 0.428076 0.120524
C51   C     C_R   0.551062 0.408273 0.250047 -0.149829
C52   C     C_R   0.500060 0.422189 0.185972 -0.128767
C53   C     C_R   0.488422 0.358463 0.121464 -0.072106
C54   C     C_R   0.527627 0.280334 0.120542 -0.094120
C55   C     C_R   0.578310 0.264198 0.184862 0.054785
C56   C     C_R   0.590395 0.329485 0.250969 0.069453
C57   C     C_R   0.620180 0.184845 0.183863 -0.176677
C58   C     C_R   0.674170 0.170730 0.248918 0.070383
C59   C     C_R   0.686328 0.236012 0.315015 0.069473
C60   C     C_R   0.644464 0.315376 0.316038 -0.179664
C61   C     C_R   0.713350 0.091921 0.249823 -0.151144
C62   C     C_R   0.764340 0.077980 0.313872 -0.115925
C63   C     C_R   0.776120 0.141700 0.378368 -0.110686
C64   C     C_R   0.737046 0.219847 0.379310 -0.140010
H22   H     H_    0.560525 0.460072 0.298550 0.104770
H23   H     H_    0.470437 0.482845 0.186347 0.120449
H24   H     H_    0.449766 0.369638 0.071742 0.135285
H25   H     H_    0.518892 0.233024 0.068797 0.123592
H26   H     H_    0.703746 0.040114 0.201333 0.099226
H27   H     H_    0.793822 0.017308 0.313487 0.127219
H28   H     H_    0.745870 0.267142 0.431057 0.101197
O11   O     O_R   0.775200 0.060470 0.937800 -0.513176
O12   O     O_R   0.441110 0.093720 0.087350 -0.542771
O13   O     O_R   0.266330 0.939630 0.062280 -0.542999
C65   C     C_R   0.609816 0.116688 0.114934 0.695199
O14   O     O_R   0.445750 0.069950 0.939820 -0.538067
O15   O     O_R   0.271000 0.915700 0.913700 -0.540803
C66   C     C_R   0.615341 0.085428 0.918590 0.770175
O16   O     O_R   0.770530 0.084400 0.086380 -0.531259
O17   O     O_3   0.602830 0.949510 0.991680 -0.379592
V3    V     V_3+5 0.329710 0.009370 0.001550 1.481713
O18   O     O_R   0.940990 0.906170 0.912570 -0.542654
C67   C     C_R   0.109956 0.883351 0.885037 0.686604
O19   O     O_R   0.936350 0.929940 0.060100 -0.551367
C68   C     C_R   0.104297 0.914766 0.081696 0.694420
V4    V     V_3+5 0.829160 0.990450 0.998310 1.475813
O20   O     O_3   0.105910 0.050480 0.008320 -0.345286
F1    F     F_    0.607452 0.793777 0.359103 -0.696821
F2    F     F_    0.892107 0.207349 0.934230 -0.666722
C69   C     C_2   0.103536 0.310052 0.880808 0.870159
O21   O     O_2   0.193206 0.253841 0.888582 -0.527192
O22   O     O_R   0.164742 0.389111 0.916122 -0.652748
H29   H     H_    0.281974 0.391809 0.947618 0.307607
C70   C     C_2   0.346448 0.637099 0.952993 0.766015
O23   O     O_2   0.399448 0.571067 0.953827 -0.548896
O24   O     O_R   0.333544 0.700935 0.018107 -0.676059
H30   H     H_    0.370825 0.684902 0.061857 0.292585

loop_
_geom_bond_atom_site_label_1
_geom_bond_atom_site_label_2
_ccdc_geom_bond_type
C54   C55   A    
C22   C23   A    
C62   C63   A    
C1    O6    A    
C69   O21   D    
C52   C53   A    
C33   C34   A    
C12   C15   A    
C16   H6    S    
C13   C14   A    
C16   C17   A    
O12   V3    S    
C15   C16   A    
O17   V3    S    
O19   V4    S    
O5    C3    A    
C17   C18   A    
C69   O22   S    
O18   C67   A    
C25   F1    S    
C32   C33   A    
C5    C6    A    
C1    C49   S    
O17   V4    S    
O8    V2    S    
C35   C40   A    
C36   C66   S    
C6    C7    A    
C15   H5    S    
C42   C43   A    
C47   C69   S    
C44   C45   A    
C32   H11   S    
C10   C14   A    
C4    C14   S    
C53   H24   S    
O7    V1    S    
O15   V3    S    
O13   C68   A    
C35   C36   A    
C55   C56   A    
C42   H17   S    
O11   C66   A    
C13   C18   A    
C48   H18   S    
C8    C9    A    
H1    C17   S    
C43   C44   A    
C41   H16   S    
C62   H27   S    
C59   C64   A    
C29   C34   A    
C2    C60   S    
C48   C49   A    
C41   C42   A    
C38   C41   A    
C19   C20   A    
C11   C12   A    
C26   H10   S    
C7    C70   S    
C6    H3    S    
C20   C21   A    
O4    C2    A    
C53   C54   A    
C8    H4    S    
C12   C13   A    
C26   C27   A    
C40   C47   A    
C27   C32   A    
V2    O10   S    
C19   C24   A    
C18   H7    S    
C35   F2    S    
O2    C1    A    
C49   C50   A    
C70   O24   S    
O13   V3    S    
C36   C37   A    
C52   H23   S    
C28   C29   A    
C19   H8    S    
C54   H25   S    
V4    O20   S    
C21   H9    S    
C63   C64   A    
C43   C48   A    
C51   C52   A    
O3    C4    A    
O14   V3    S    
O1    V2    S    
C21   C22   A    
C55   C57   A    
C11   C67   S    
O6    V2    S    
O18   V4    S    
O9    V2    S    
O22   H29   S    
C22   C25   A    
C9    C11   A    
C5    H2    S    
C23   C24   A    
C70   O23   D    
O2    V1    S    
O15   C67   A    
C58   C59   A    
C25   C26   A    
O24   H30   S    
C37   H15   S    
C27   C28   A    
C29   C30   A    
O1    C2    A    
C46   C47   A    
C50   H19   S    
O5    V1    S    
O16   V4    S    
C34   H12   S    
C24   C31   A    
C30   H13   S    
C31   H14   S    
C38   C39   A    
C3    C20   S    
O14   C66   A    
O7    V2    S    
C51   H22   S    
O4    V1    S    
O3    V1    S    
V1    O10   S    
O19   C68   A    
C58   C61   A    
C57   C58   A    
C45   C50   A    
O12   C65   A    
C5    C10   A    
H21   C63   S    
C59   C60   A    
C23   C28   A    
C39   C40   A    
C56   C60   A    
C61   C62   A    
V3    O20   S    
C64   H28   S    
C57   C65   S    
C37   C38   A    
C65   O16   A    
C45   C46   A    
C7    C8    A    
C61   H26   S    
C30   C31   A    
C51   C56   A    
C9    C10   A    
O11   V4    S    
O9    C4    A    
C46   H20   S    
C39   C44   A    
O8    C3    A    
C33   C68   S    
