data_str_m9_o25_o25_f0_sra.sym.55
_audit_creation_date              2012-12-11T16:12:50-0500
_audit_creation_method            fapswitch 2.2
_symmetry_space_group_name_H-M    P1
_symmetry_Int_Tables_number       1
_space_group_crystal_system       triclinic
_cell_length_a                    7.05146
_cell_length_b                    21.283196
_cell_length_c                    23.554614
_cell_angle_alpha                 90.000194
_cell_angle_beta                  90.000756
_cell_angle_gamma                 90.001913
_cell_volume                      3535.02005979

loop_
_atom_site_label
_atom_site_type_symbol
_atom_type_description
_atom_site_fract_x
_atom_site_fract_y
_atom_site_fract_z
_atom_type_partial_charge
O1    O     O_R   0.615270 0.806540 0.192260 -0.535594
O2    O     O_R   0.384730 0.193460 0.807740 -0.535594
O3    O     O_R   0.384730 0.193460 0.692260 -0.535594
O4    O     O_R   0.615270 0.806540 0.307740 -0.535594
O5    O     O_R   0.115270 0.693460 0.307740 -0.535596
O6    O     O_R   0.884730 0.306540 0.692260 -0.535596
O7    O     O_R   0.884730 0.306540 0.807740 -0.535595
O8    O     O_R   0.115270 0.693460 0.192260 -0.535595
O9    O     O_R   0.285500 0.813970 0.307340 -0.533932
O10   O     O_R   0.714500 0.186030 0.692660 -0.533932
O11   O     O_R   0.714500 0.186030 0.807340 -0.533933
O12   O     O_R   0.285500 0.813970 0.192660 -0.533933
O13   O     O_R   0.785500 0.686030 0.192660 -0.533938
O14   O     O_R   0.214500 0.313970 0.807340 -0.533938
O15   O     O_R   0.214500 0.313970 0.692660 -0.533936
O16   O     O_R   0.785500 0.686030 0.307340 -0.533936
C1    C     C_R   0.454044 0.828883 0.326634 0.718225
C2    C     C_R   0.545956 0.171117 0.673366 0.718223
C3    C     C_R   0.545957 0.171117 0.826635 0.718214
C4    C     C_R   0.454043 0.828882 0.173365 0.718214
C5    C     C_R   0.954040 0.671114 0.173368 0.718214
C6    C     C_R   0.045960 0.328886 0.826632 0.718213
C7    C     C_R   0.045959 0.328884 0.673366 0.718210
C8    C     C_R   0.954041 0.671116 0.326634 0.718211
O17   O     O_3   0.448760 0.710460 0.250000 -0.370115
O18   O     O_3   0.551240 0.289540 0.750000 -0.370115
O19   O     O_3   0.948760 0.789540 0.250000 -0.370108
O20   O     O_3   0.051240 0.210460 0.750000 -0.370108
V1    V     V_3+5 0.173900 0.757330 0.250000 1.448954
V2    V     V_3+5 0.826100 0.242670 0.750000 1.448956
V3    V     V_3+5 0.673900 0.742670 0.250000 1.448951
V4    V     V_3+5 0.326100 0.257330 0.750000 1.448953
C9    C     C_3   0.093257 0.526000 0.542971 0.366158
C10   C     C_3   0.906747 0.474006 0.457034 0.366159
C11   C     C_3   0.906798 0.473987 0.042969 0.366160
C12   C     C_3   0.093210 0.526013 0.957031 0.366159
C13   C     C_3   0.592857 0.973965 0.956978 0.366124
C14   C     C_3   0.407149 0.026034 0.043022 0.366131
C15   C     C_3   0.406808 0.025999 0.457023 0.366154
C16   C     C_3   0.593186 0.973997 0.542979 0.366155
C17   C     C_3   0.904191 0.549791 0.518247 0.365501
C18   C     C_3   0.095813 0.450215 0.481758 0.365494
C19   C     C_3   0.095865 0.450218 0.018232 0.365520
C20   C     C_3   0.904142 0.549783 0.981768 0.365505
C21   C     C_3   0.403808 0.950275 0.981790 0.365549
C22   C     C_3   0.596197 0.049724 0.018210 0.365543
C23   C     C_3   0.595870 0.049778 0.481761 0.365506
C24   C     C_3   0.404124 0.950218 0.518241 0.365499
H1    H     H_    0.677782 0.468061 0.531076 0.165679
H2    H     H_    0.322223 0.531945 0.468929 0.165681
H3    H     H_    0.322218 0.531964 0.031063 0.165677
H4    H     H_    0.677788 0.468036 0.968938 0.165679
H5    H     H_    0.177787 0.032145 0.969103 0.165680
H6    H     H_    0.822219 0.967855 0.030897 0.165677
H7    H     H_    0.822222 0.968028 0.468958 0.165678
H8    H     H_    0.177772 0.031968 0.531044 0.165679
C25   C     C_1   0.962788 0.625519 0.372330 -0.179235
C26   C     C_1   0.037213 0.374484 0.627672 -0.179234
C27   C     C_1   0.037218 0.374490 0.872323 -0.179243
C28   C     C_1   0.962784 0.625510 0.127677 -0.179243
C29   C     C_1   0.462797 0.874477 0.127667 -0.179230
C30   C     C_1   0.537204 0.125522 0.872332 -0.179230
C31   C     C_1   0.537202 0.125519 0.627670 -0.179226
C32   C     C_1   0.462797 0.874480 0.372331 -0.179226
C33   C     C_3   0.178072 0.517648 0.482812 -0.408122
C34   C     C_3   0.821933 0.482359 0.517193 -0.408117
C35   C     C_3   0.821938 0.482343 0.982816 -0.408133
C36   C     C_3   0.178069 0.517658 0.017184 -0.408126
C37   C     C_3   0.678071 0.982244 0.017094 -0.408170
C38   C     C_3   0.321935 0.017756 0.982906 -0.408161
C39   C     C_3   0.321925 0.017658 0.517174 -0.408114
C40   C     C_3   0.678069 0.982338 0.482828 -0.408110
C41   C     C_3   0.985984 0.541648 0.457854 -0.035071
C42   C     C_3   0.014021 0.458358 0.542150 -0.035069
C43   C     C_3   0.014027 0.458365 0.957845 -0.035072
C44   C     C_3   0.985980 0.541636 0.042155 -0.035071
C45   C     C_3   0.485998 0.958347 0.042141 -0.035050
C46   C     C_3   0.514007 0.041652 0.957858 -0.035043
C47   C     C_3   0.514010 0.041646 0.542147 -0.035075
C48   C     C_3   0.485986 0.958351 0.457855 -0.035066
C49   C     C_1   0.971532 0.587682 0.410838 0.076369
C50   C     C_1   0.028471 0.412322 0.589166 0.076370
C51   C     C_1   0.028477 0.412331 0.910828 0.076355
C52   C     C_1   0.971527 0.587670 0.089172 0.076357
C53   C     C_1   0.471547 0.912312 0.089158 0.076385
C54   C     C_1   0.528455 0.087687 0.910842 0.076387
C55   C     C_1   0.528457 0.087682 0.589162 0.076379
C56   C     C_1   0.471540 0.912316 0.410839 0.076382
O21   O     O_3   0.805227 0.604537 0.534283 -0.554726
C57   C     C_3   0.756039 0.601761 0.592358 0.095526
H9    H     H_    0.864987 0.579012 0.619458 0.156135
H10   H     H_    0.623593 0.574406 0.597722 0.149730
C58   C     C_3   0.729786 0.668498 0.614219 -0.760413
H11   H     H_    0.619400 0.693199 0.589138 0.232300
H12   H     H_    0.688310 0.667721 0.659664 0.183525
H13   H     H_    0.864647 0.694963 0.610106 0.219953
O22   O     O_3   0.194785 0.395469 0.465722 -0.554721
C59   C     C_3   0.243947 0.398243 0.407642 0.095546
H14   H     H_    0.376385 0.425605 0.402272 0.149722
H15   H     H_    0.134966 0.420985 0.380543 0.156125
C60   C     C_3   0.270234 0.331502 0.385780 -0.760389
H16   H     H_    0.135369 0.305040 0.389884 0.219946
H17   H     H_    0.311756 0.332275 0.340336 0.183522
H18   H     H_    0.380619 0.306801 0.410871 0.232293
O23   O     O_3   0.194886 0.395477 0.034249 -0.554725
C61   C     C_3   0.244083 0.398237 0.092328 0.095552
H19   H     H_    0.135122 0.420967 0.119437 0.156147
H20   H     H_    0.376519 0.425601 0.097700 0.149737
C62   C     C_3   0.270387 0.331494 0.114171 -0.760486
H21   H     H_    0.380734 0.306803 0.089069 0.232312
H22   H     H_    0.311942 0.332258 0.159611 0.183528
H23   H     H_    0.135522 0.305028 0.110070 0.219947
O24   O     O_3   0.805119 0.604522 0.965748 -0.554729
C63   C     C_3   0.755930 0.601758 0.907670 0.095578
H24   H     H_    0.623489 0.574394 0.902300 0.149737
H25   H     H_    0.864904 0.579026 0.880561 0.156139
C64   C     C_3   0.729622 0.668502 0.885822 -0.760440
H26   H     H_    0.864479 0.694970 0.889926 0.219954
H27   H     H_    0.688084 0.667736 0.840378 0.183520
H28   H     H_    0.619240 0.693193 0.910918 0.232286
O25   O     O_3   0.304442 0.895595 0.965787 -0.554736
C65   C     C_3   0.255019 0.898403 0.907728 0.095541
H29   H     H_    0.363835 0.921175 0.880594 0.156130
H30   H     H_    0.122541 0.925755 0.902428 0.149876
C66   C     C_3   0.228685 0.831677 0.885838 -0.760275
H31   H     H_    0.118323 0.806963 0.910917 0.232217
H32   H     H_    0.187165 0.832484 0.840399 0.183528
H33   H     H_    0.363515 0.805198 0.889921 0.219893
O26   O     O_3   0.695557 0.104407 0.034208 -0.554742
C67   C     C_3   0.745009 0.101598 0.092263 0.095512
H34   H     H_    0.877481 0.074240 0.097556 0.149885
H35   H     H_    0.636186 0.078834 0.119402 0.156125
C68   C     C_3   0.771391 0.168325 0.114149 -0.760219
H36   H     H_    0.636543 0.194803 0.110085 0.219878
H37   H     H_    0.812999 0.167523 0.159584 0.183525
H38   H     H_    0.881723 0.193037 0.089051 0.232216
O27   O     O_3   0.694905 0.104513 0.465728 -0.554724
C69   C     C_3   0.744120 0.101729 0.407654 0.095515
H39   H     H_    0.635183 0.078977 0.380549 0.156139
H40   H     H_    0.876568 0.074374 0.402298 0.149747
C70   C     C_3   0.770393 0.168464 0.385785 -0.760345
H41   H     H_    0.880792 0.193168 0.410863 0.232287
H42   H     H_    0.811863 0.167681 0.340338 0.183520
H43   H     H_    0.635535 0.194931 0.389898 0.219935
O28   O     O_3   0.305092 0.895480 0.534267 -0.554727
C71   C     C_3   0.255868 0.898258 0.592341 0.095507
H44   H     H_    0.123428 0.925620 0.597696 0.149748
H45   H     H_    0.364824 0.920999 0.619450 0.156135
C72   C     C_3   0.229552 0.831518 0.614199 -0.760353
H46   H     H_    0.364412 0.805052 0.610102 0.219927
H47   H     H_    0.187997 0.832291 0.659638 0.183533
H48   H     H_    0.119181 0.806822 0.589101 0.232294
O29   O     O_3   0.189575 0.549764 0.590808 -0.554733
C73   C     C_3   0.236672 0.613581 0.582501 0.089349
H49   H     H_    0.125894 0.640848 0.559873 0.157937
H50   H     H_    0.367907 0.617286 0.556856 0.149291
C74   C     C_3   0.264863 0.644062 0.640352 -0.743623
H51   H     H_    0.375471 0.618561 0.664675 0.232167
H52   H     H_    0.307620 0.693840 0.635138 0.184140
H53   H     H_    0.130692 0.642486 0.664952 0.224060
O30   O     O_3   0.810419 0.450242 0.409199 -0.554737
C75   C     C_3   0.763317 0.386425 0.417505 0.089304
H54   H     H_    0.632075 0.382720 0.443147 0.149323
H55   H     H_    0.874092 0.359157 0.440133 0.157941
C76   C     C_3   0.735133 0.355945 0.359656 -0.743657
H56   H     H_    0.869312 0.357525 0.335058 0.224059
H57   H     H_    0.692374 0.306164 0.364865 0.184149
H58   H     H_    0.624539 0.381451 0.335334 0.232183
O31   O     O_3   0.810536 0.450202 0.090807 -0.554737
C77   C     C_3   0.763456 0.386386 0.082484 0.089302
H59   H     H_    0.874229 0.359132 0.059845 0.157943
H60   H     H_    0.632210 0.382685 0.056845 0.149300
C78   C     C_3   0.735301 0.355884 0.140323 -0.743604
H61   H     H_    0.624713 0.381379 0.164659 0.232182
H62   H     H_    0.692543 0.306104 0.135095 0.184103
H63   H     H_    0.869490 0.357451 0.164918 0.224046
O32   O     O_3   0.189482 0.549801 0.909196 -0.554737
C79   C     C_3   0.236558 0.613616 0.917522 0.089312
H64   H     H_    0.367812 0.617317 0.943158 0.149307
H65   H     H_    0.125785 0.640869 0.940165 0.157945
C80   C     C_3   0.264699 0.644123 0.859684 -0.743670
H66   H     H_    0.130509 0.642558 0.835093 0.224057
H67   H     H_    0.307467 0.693899 0.864912 0.184112
H68   H     H_    0.375272 0.618631 0.835344 0.232197
O33   O     O_3   0.688749 0.950165 0.909083 -0.554729
C81   C     C_3   0.735637 0.886329 0.917362 0.089359
H69   H     H_    0.624749 0.859093 0.939972 0.157924
H70   H     H_    0.866837 0.882561 0.943016 0.149122
C82   C     C_3   0.763764 0.855874 0.859500 -0.743726
H71   H     H_    0.874351 0.881388 0.835180 0.232272
H72   H     H_    0.806527 0.806094 0.864691 0.184174
H73   H     H_    0.629565 0.857464 0.834913 0.224074
O34   O     O_3   0.311261 0.049832 0.090918 -0.554731
C83   C     C_3   0.264375 0.113668 0.082645 0.089332
H74   H     H_    0.133173 0.117440 0.056993 0.149121
H75   H     H_    0.375271 0.140906 0.060039 0.157934
C84   C     C_3   0.236247 0.144117 0.140511 -0.743731
H76   H     H_    0.370455 0.142525 0.165095 0.224063
H77   H     H_    0.193469 0.193899 0.135327 0.184180
H78   H     H_    0.125673 0.118595 0.164829 0.232276
O35   O     O_3   0.310558 0.049765 0.409176 -0.554728
C85   C     C_3   0.263497 0.113585 0.417474 0.089328
H79   H     H_    0.374297 0.140852 0.440094 0.157935
H80   H     H_    0.132274 0.117302 0.443122 0.149275
C86   C     C_3   0.235306 0.144054 0.359621 -0.743675
H81   H     H_    0.124695 0.118547 0.335303 0.232189
H82   H     H_    0.192557 0.193834 0.364826 0.184157
H83   H     H_    0.369475 0.142473 0.335022 0.224078
O36   O     O_3   0.689442 0.950233 0.590826 -0.554729
C87   C     C_3   0.736504 0.886413 0.582530 0.089306
H84   H     H_    0.867731 0.882695 0.556883 0.149286
H85   H     H_    0.625694 0.859146 0.559913 0.157943
C88   C     C_3   0.764705 0.855946 0.640384 -0.743695
H86   H     H_    0.630536 0.857529 0.664984 0.224077
H87   H     H_    0.807456 0.806166 0.635182 0.184168
H88   H     H_    0.875313 0.881454 0.664700 0.232188

loop_
_geom_bond_atom_site_label_1
_geom_bond_atom_site_label_2
_ccdc_geom_bond_type
O17   V3    S    
C7    C26   S    
C17   O21   S    
C14   C38   S    
O18   V4    S    
C76   H56   S    
C68   H36   S    
C13   C37   S    
O12   V1    S    
O19   V1    S    
O31   C77   S    
O23   C61   S    
C37   C45   S    
C10   C18   S    
C23   C47   S    
C79   C80   S    
C10   O30   S    
C43   C51   S    
C44   C52   S    
C22   O26   S    
C47   C55   S    
O22   C59   S    
O33   C81   S    
C9    C33   S    
O15   V4    S    
C78   H61   S    
O16   V3    S    
C30   C54   T    
O11   C3    A    
C74   H51   S    
C85   H80   S    
O7    C6    A    
O8    V1    S    
C27   C51   T    
C71   H44   S    
C72   H47   S    
C1    C32   S    
C61   H20   S    
C9    O29   S    
C2    C31   S    
C80   H68   S    
C83   C84   S    
C38   C46   S    
C61   H19   S    
C3    C30   S    
C71   C72   S    
C80   H66   S    
O1    V3    S    
C5    C28   S    
C33   C41   S    
O3    C2    A    
O2    V4    S    
C19   O23   S    
C23   O27   S    
C82   H72   S    
C22   C37   S    
C62   H22   S    
C72   H46   S    
C81   C82   S    
C13   O33   S    
O11   V2    S    
C19   C36   S    
C85   C86   S    
C18   C33   S    
C11   C19   S    
O5    V1    S    
H7    C40   S    
O9    V1    S    
C46   C54   S    
O15   C7    A    
C83   H74   S    
O2    C3    A    
C81   H69   S    
C45   C53   S    
C60   H17   S    
O7    V2    S    
O18   V2    S    
C48   C56   S    
C81   H70   S    
C19   C43   S    
C10   C34   S    
C76   H57   S    
C42   C50   S    
H5    C38   S    
C41   C49   S    
O28   C71   S    
C71   H45   S    
C65   H29   S    
C78   H62   S    
O17   V1    S    
C11   C44   S    
C18   C42   S    
C14   C22   S    
C85   H79   S    
O19   V3    S    
O4    V3    S    
C60   H16   S    
C79   H64   S    
O20   V4    S    
C26   C50   T    
H1    C34   S    
C64   H28   S    
C6    C27   S    
C22   C46   S    
C8    C25   S    
C21   O25   S    
C86   H81   S    
C16   O36   S    
C75   H54   S    
C39   C47   S    
C62   H23   S    
C70   H42   S    
C74   H52   S    
C82   H73   S    
C67   H35   S    
C12   C43   S    
C68   H38   S    
C75   C76   S    
O10   V2    S    
C57   H10   S    
C11   C35   S    
H8    C39   S    
C24   O28   S    
O12   C4    A    
O36   C87   S    
C73   H49   S    
C16   C47   S    
O13   C5    A    
C79   H65   S    
C58   H11   S    
C84   H77   S    
C66   H32   S    
O25   C65   S    
H4    C35   S    
C29   C53   T    
C73   C74   S    
O4    C1    A    
C72   H48   S    
O9    C1    A    
C76   H58   S    
O6    V2    S    
C20   O24   S    
C59   H14   S    
C58   H13   S    
C87   H85   S    
C84   H78   S    
C15   O35   S    
C66   H31   S    
C11   O31   S    
C25   C49   T    
C18   O22   S    
C67   C68   S    
C35   C43   S    
C24   C39   S    
C13   C21   S    
C59   C60   S    
C83   H75   S    
C57   C58   S    
C15   C23   S    
O24   C63   S    
C13   C46   S    
C86   H83   S    
C82   H71   S    
C16   C24   S    
C88   H88   S    
C70   H43   S    
O1    C4    A    
C16   C40   S    
O3    V4    S    
C31   C55   T    
C21   C38   S    
C73   H50   S    
O13   V3    S    
C12   O32   S    
O14   V4    S    
C69   C70   S    
O8    C5    A    
C63   H25   S    
C12   C36   S    
C63   H24   S    
C17   C34   S    
C69   H40   S    
C14   C45   S    
C74   H53   S    
C36   C44   S    
C87   C88   S    
O27   C69   S    
C4    C29   S    
C59   H15   S    
C14   O34   S    
C9    C17   S    
C15   C48   S    
C24   C48   S    
C65   C66   S    
C64   H27   S    
C67   H34   S    
O26   C67   S    
C88   H87   S    
C40   C48   S    
C75   H55   S    
O30   C75   S    
C70   H41   S    
C28   C52   T    
O14   C6    A    
C57   H9    S    
C58   H12   S    
O5    C8    A    
C77   H60   S    
O10   C2    A    
C66   H33   S    
C88   H86   S    
O6    C7    A    
C77   C78   S    
O20   V2    S    
C78   H63   S    
H3    C36   S    
C87   H84   S    
C84   H76   S    
H2    C33   S    
C23   C40   S    
H6    C37   S    
C63   C64   S    
C12   C20   S    
C69   H39   S    
O32   C79   S    
C10   C41   S    
C17   C41   S    
C9    C42   S    
C80   H67   S    
O35   C85   S    
O16   C8    A    
O34   C83   S    
C77   H59   S    
C62   H21   S    
C68   H37   S    
C15   C39   S    
C20   C35   S    
C21   C45   S    
C60   H18   S    
C20   C44   S    
O21   C57   S    
C64   H26   S    
C86   H82   S    
C65   H30   S    
C32   C56   T    
O29   C73   S    
C61   C62   S    
C34   C42   S    
