data_str_m9_o13_o18_f0_sra.sym.31
_audit_creation_date              2012-12-11T14:45:26-0500
_audit_creation_method            fapswitch 2.2
_symmetry_space_group_name_H-M    P1
_symmetry_Int_Tables_number       1
_space_group_crystal_system       triclinic
_cell_length_a                    24.732953
_cell_length_b                    7.175473
_cell_length_c                    14.482181
_cell_angle_alpha                 90.000206
_cell_angle_beta                  102.476965
_cell_angle_gamma                 89.998178
_cell_volume                      2509.46222332

loop_
_atom_site_label
_atom_site_type_symbol
_atom_type_description
_atom_site_fract_x
_atom_site_fract_y
_atom_site_fract_z
_atom_type_partial_charge
O1    O     O_R   0.319150 0.364170 0.330530 -0.537411
O2    O     O_R   0.680850 0.635830 0.669470 -0.538290
O3    O     O_R   0.180850 0.864170 0.169470 -0.537401
O4    O     O_R   0.819150 0.135830 0.830530 -0.538280
O5    O     O_R   0.210330 0.696850 0.354180 -0.535599
O6    O     O_R   0.789670 0.303150 0.645820 -0.537466
O7    O     O_R   0.289670 0.196850 0.145820 -0.535596
O8    O     O_R   0.710330 0.803150 0.854180 -0.537466
C1    C     C_R   0.196999 0.525703 0.377997 0.676375
C2    C     C_R   0.803063 0.474720 0.622132 0.675652
C3    C     C_R   0.303001 0.025699 0.122004 0.676373
C4    C     C_R   0.696937 0.974724 0.877868 0.675650
O9    O     O_R   0.320550 0.694110 0.341970 -0.541790
O10   O     O_R   0.679450 0.305890 0.658030 -0.541513
O11   O     O_R   0.179450 0.194110 0.158030 -0.541784
O12   O     O_R   0.820550 0.805890 0.841970 -0.541510
O13   O     O_R   0.291860 0.861000 0.157170 -0.538335
O14   O     O_R   0.708140 0.139000 0.842830 -0.536297
O15   O     O_R   0.208140 0.361000 0.342830 -0.538335
O16   O     O_R   0.791860 0.639000 0.657170 -0.536298
C5    C     C_R   0.341676 0.524248 0.362898 0.687625
C6    C     C_R   0.658307 0.475734 0.637162 0.689401
C7    C     C_R   0.158324 0.024253 0.137103 0.687621
C8    C     C_R   0.841694 0.975728 0.862837 0.689407
O17   O     O_3   0.240460 0.529330 0.189380 -0.375780
O18   O     O_3   0.759540 0.470670 0.810620 -0.375936
O19   O     O_3   0.259540 0.029330 0.310620 -0.375790
O20   O     O_3   0.740460 0.970670 0.689380 -0.375943
V1    V     V_3+5 0.251770 0.805510 0.261240 1.427316
V2    V     V_3+5 0.748230 0.194490 0.738760 1.426484
V3    V     V_3+5 0.248230 0.305510 0.238760 1.427328
V4    V     V_3+5 0.751770 0.694490 0.761240 1.426489
C9    C     C_R   0.103320 0.004582 0.072517 -0.057831
C10   C     C_R   0.896721 0.995373 0.927333 -0.064935
C11   C     C_R   0.396680 0.504559 0.427480 -0.057843
C12   C     C_R   0.603278 0.495397 0.572670 -0.064955
C13   C     C_R   0.959896 0.189178 0.040781 -0.176373
C14   C     C_R   0.040168 0.810904 0.958937 -0.158162
C15   C     C_R   0.540088 0.689286 0.459282 -0.176398
C16   C     C_R   0.459846 0.310798 0.541002 -0.158169
C17   C     C_R   0.906602 0.148754 0.989404 -0.162182
C18   C     C_R   0.093455 0.851250 0.010402 -0.166996
C19   C     C_R   0.593385 0.648852 0.510645 -0.162165
C20   C     C_R   0.406557 0.351153 0.489549 -0.166984
C21   C     C_R   0.941254 0.880162 0.918767 -0.212272
C22   C     C_R   0.058789 0.119838 0.081002 -0.224227
C23   C     C_R   0.558754 0.380118 0.581197 -0.212301
C24   C     C_R   0.441202 0.619883 0.419036 -0.224233
C25   C     C_R   0.995287 0.921779 0.969287 0.159448
C26   C     C_R   0.004766 0.078232 0.030455 0.152607
C27   C     C_R   0.504719 0.421742 0.530689 0.159464
C28   C     C_R   0.495228 0.578271 0.469571 0.152627
H1    H     H_    0.065756 0.236302 0.129855 0.127594
H2    H     H_    0.934277 0.763735 0.869893 0.139164
H3    H     H_    0.434227 0.736409 0.370220 0.127585
H4    H     H_    0.565740 0.263630 0.630034 0.139156
H5    H     H_    0.127127 0.759789 0.003043 0.125598
H6    H     H_    0.872936 0.240229 0.996781 0.127332
H7    H     H_    0.372893 0.259640 0.496880 0.125625
H8    H     H_    0.627043 0.740378 0.503296 0.127363
H9    H     H_    0.966104 0.309008 0.087444 0.139706
H10   H     H_    0.033975 0.691194 0.912200 0.142451
H11   H     H_    0.533872 0.809176 0.412658 0.139670
H12   H     H_    0.466049 0.191027 0.587700 0.142457
C29   C     C_R   0.664495 0.985530 0.950917 -0.035629
C30   C     C_R   0.335813 0.023787 0.049258 -0.038048
C31   C     C_R   0.835504 0.485508 0.549080 -0.035641
C32   C     C_R   0.164186 0.523809 0.450742 -0.038069
C33   C     C_R   0.659722 0.997928 0.115486 -0.143997
C34   C     C_R   0.342842 0.099494 0.889818 -0.144001
C35   C     C_R   0.840279 0.497662 0.384508 -0.144004
C36   C     C_R   0.157144 0.599724 0.610153 -0.144007
C37   C     C_R   0.690622 0.976383 0.046355 -0.161572
C38   C     C_R   0.310568 0.066485 0.955860 -0.157558
C39   C     C_R   0.809380 0.476190 0.453644 -0.161573
C40   C     C_R   0.189423 0.566650 0.544125 -0.157541
C41   C     C_R   0.607389 0.016008 0.924589 -0.211863
C42   C     C_R   0.393583 0.014671 0.076529 -0.214166
C43   C     C_R   0.892606 0.516076 0.575398 -0.211851
C44   C     C_R   0.106417 0.514608 0.423473 -0.214169
C45   C     C_R   0.575708 0.050727 0.993208 0.078705
C46   C     C_R   0.427322 0.066498 0.013258 0.078926
C47   C     C_R   0.924284 0.550706 0.506768 0.078703
C48   C     C_R   0.072671 0.566504 0.486721 0.078928
C49   C     C_R   0.602573 0.033516 0.089762 0.068219
C50   C     C_R   0.400856 0.100849 0.917737 0.069478
C51   C     C_R   0.897423 0.533331 0.410221 0.068222
C52   C     C_R   0.099131 0.601006 0.582229 0.069482
C53   C     C_R   0.517764 0.091615 0.968984 -0.079743
C54   C     C_R   0.486358 0.079517 0.040887 -0.082094
C55   C     C_R   0.982224 0.591653 0.530979 -0.079737
C56   C     C_R   0.013633 0.579459 0.459083 -0.082085
C57   C     C_R   0.515623 0.085202 0.137308 0.338848
C58   C     C_R   0.489745 0.146749 0.876263 0.339846
C59   C     C_R   0.984369 0.584986 0.362659 0.338832
C60   C     C_R   0.010236 0.646934 0.623679 0.339832
C61   C     C_R   0.572580 0.056238 0.160063 -0.189891
C62   C     C_R   0.432211 0.144204 0.851509 -0.188668
C63   C     C_R   0.927416 0.555961 0.339913 -0.189900
C64   C     C_R   0.067769 0.644444 0.648439 -0.188672
H13   H     H_    0.593761 0.055918 0.233929 0.139612
H14   H     H_    0.411815 0.182722 0.780025 0.138189
H15   H     H_    0.906236 0.555515 0.266047 0.139603
H16   H     H_    0.088160 0.683074 0.719907 0.138186
H17   H     H_    0.411123 0.970068 0.147908 0.148687
H18   H     H_    0.588475 0.007346 0.850186 0.147553
H19   H     H_    0.088884 0.469899 0.352110 0.148693
H20   H     H_    0.911519 0.507535 0.649806 0.147552
H21   H     H_    0.265907 0.077261 0.934570 0.100523
H22   H     H_    0.734874 0.953225 0.067200 0.101441
H23   H     H_    0.234083 0.577496 0.565413 0.100532
H24   H     H_    0.765132 0.452951 0.432806 0.101452
H25   H     H_    0.680602 0.988217 0.189266 0.111629
H26   H     H_    0.322407 0.130311 0.817412 0.110890
H27   H     H_    0.819403 0.487820 0.310731 0.111631
H28   H     H_    0.177574 0.630656 0.682548 0.110889
O21   O     O_3   0.491631 0.138473 0.210630 -0.654472
H29   H     H_    0.463179 0.233872 0.185827 0.288193
O22   O     O_3   0.516305 0.223562 0.810940 -0.661368
H30   H     H_    0.548286 0.296308 0.846096 0.286992
O23   O     O_3   0.008357 0.638159 0.289319 -0.654489
H31   H     H_    0.036797 0.733613 0.314084 0.288190
O24   O     O_3   0.983666 0.723835 0.688969 -0.661374
H32   H     H_    0.951679 0.796520 0.653782 0.287000

loop_
_geom_bond_atom_site_label_1
_geom_bond_atom_site_label_2
_ccdc_geom_bond_type
O17   V3    S    
C24   H3    S    
C63   H15   S    
O1    C5    A    
O19   V1    S    
O13   V1    S    
O3    C7    A    
C64   H16   S    
C44   C48   A    
O15   V3    S    
C38   H21   S    
O4    V2    S    
O24   H32   S    
C14   C25   A    
C2    C31   S    
C34   H26   S    
O7    C3    A    
C44   H19   S    
C33   H25   S    
C39   H24   S    
C42   H17   S    
C9    C18   A    
O9    V1    S    
C41   H18   S    
C17   H6    S    
C14   C18   A    
O4    C8    A    
C59   C63   A    
C58   C62   A    
C20   H7    S    
C30   C38   A    
O1    V3    S    
C29   C37   A    
C12   C23   A    
O2    V4    S    
C53   C58   A    
O3    V1    S    
C55   C60   A    
C1    O15   A    
C2    O16   A    
C7    C9    S    
O2    C6    A    
C33   C37   A    
O14   V2    S    
C21   C25   A    
C16   C20   A    
O5    V1    S    
C3    C30   S    
C36   C40   A    
C45   C53   A    
C59   O23   S    
O11   C7    A    
C15   C28   A    
O12   C8    A    
C9    C22   A    
C10   C17   A    
C57   O21   S    
O10   V2    S    
C11   C24   A    
C18   H5    S    
C36   C52   A    
C51   C63   A    
C30   C42   A    
O7    V3    S    
C35   H27   S    
C27   C28   A    
O8    V4    S    
C37   H22   S    
C31   C43   A    
C55   C56   A    
O18   V4    S    
C15   C19   A    
C46   C50   A    
C56   C59   A    
C8    C10   S    
C34   C38   A    
C29   C41   A    
C58   O22   S    
C42   C46   A    
C13   H9    S    
C6    C12   S    
C41   C45   A    
O8    C4    A    
O9    C5    A    
C10   C21   A    
C32   C40   A    
C11   C20   A    
O23   H31   S    
C52   C64   A    
C19   H8    S    
C35   C51   A    
O6    V2    S    
C21   H2    S    
C31   C39   A    
C32   C44   A    
C34   C50   A    
C57   C61   A    
C33   C49   A    
C54   C57   A    
O16   V4    S    
C36   H28   S    
C3    O13   A    
C60   O24   S    
C48   C52   A    
O5    C1    A    
C46   C54   A    
C47   C51   A    
O6    C2    A    
C23   C27   A    
O22   H30   S    
O11   V3    S    
C5    C11   S    
O12   V4    S    
C16   C27   A    
C15   H11   S    
C4    C29   S    
C22   C26   A    
C16   H12   S    
O10   C6    A    
O20   V2    S    
C1    C32   S    
C62   H14   S    
O21   H29   S    
C35   C39   A    
C13   C26   A    
C40   H23   S    
C60   C64   A    
C22   H1    S    
C43   H20   S    
C47   C55   A    
C13   C17   A    
C50   C62   A    
C45   C49   A    
C49   C61   A    
C43   C47   A    
C24   C28   A    
C25   C26   A    
C4    O14   A    
C12   C19   A    
C48   C56   A    
C53   C54   A    
C61   H13   S    
C23   H4    S    
C14   H10   S    
