data_str_m9_o2_o19_f0_sra.sym.65
_audit_creation_date              2012-12-11T16:28:29-0500
_audit_creation_method            fapswitch 2.2
_symmetry_space_group_name_H-M    P1
_symmetry_Int_Tables_number       1
_space_group_crystal_system       triclinic
_cell_length_a                    16.865689
_cell_length_b                    7.253035
_cell_length_c                    14.909713
_cell_angle_alpha                 90.001283
_cell_angle_beta                  94.575734
_cell_angle_gamma                 90.000074
_cell_volume                      1818.05380124

loop_
_atom_site_label
_atom_site_type_symbol
_atom_type_description
_atom_site_fract_x
_atom_site_fract_y
_atom_site_fract_z
_atom_type_partial_charge
O1    O     O_R   0.663460 0.361760 0.165970 -0.532729
O2    O     O_R   0.336540 0.638240 0.834030 -0.532729
O3    O     O_R   0.836540 0.861760 0.334030 -0.532729
O4    O     O_R   0.163460 0.138240 0.665970 -0.532729
O5    O     O_R   0.827100 0.689870 0.163730 -0.518606
O6    O     O_R   0.172900 0.310130 0.836270 -0.518605
O7    O     O_R   0.672900 0.189870 0.336270 -0.518605
O8    O     O_R   0.327100 0.810130 0.663730 -0.518605
C1    C     C_R   0.853776 0.523034 0.144194 0.726070
C2    C     C_R   0.146224 0.476966 0.855806 0.726070
C3    C     C_R   0.646225 0.023037 0.355807 0.726046
C4    C     C_R   0.353775 0.976963 0.644193 0.726046
O9    O     O_R   0.663490 0.691370 0.155500 -0.533064
O10   O     O_R   0.336510 0.308630 0.844500 -0.533063
O11   O     O_R   0.836510 0.191370 0.344500 -0.533059
O12   O     O_R   0.163490 0.808630 0.655500 -0.533059
O13   O     O_R   0.671770 0.863320 0.325740 -0.541444
O14   O     O_R   0.328230 0.136680 0.674260 -0.541444
O15   O     O_R   0.828230 0.363320 0.174260 -0.541446
O16   O     O_R   0.171770 0.636680 0.825740 -0.541446
C5    C     C_R   0.638625 0.523951 0.130271 0.681791
C6    C     C_R   0.361375 0.476048 0.869729 0.681791
C7    C     C_R   0.861375 0.023953 0.369729 0.681782
C8    C     C_R   0.138625 0.976047 0.630271 0.681782
H1    H     H_    0.099698 0.153457 0.219361 0.142204
H2    H     H_    0.900302 0.846543 0.780638 0.142204
H3    H     H_    0.400313 0.653686 0.280618 0.142225
H4    H     H_    0.599687 0.346314 0.719382 0.142225
O17   O     O_3   0.752910 0.528800 0.305860 -0.369811
O18   O     O_3   0.247090 0.471200 0.694140 -0.369811
O19   O     O_3   0.747090 0.028800 0.194140 -0.369820
O20   O     O_3   0.252910 0.971200 0.805860 -0.369820
V1    V     V_3+5 0.749460 0.803010 0.239640 1.484268
V2    V     V_3+5 0.250540 0.196990 0.760360 1.484268
V3    V     V_3+5 0.750540 0.303010 0.260360 1.484281
V4    V     V_3+5 0.249460 0.696990 0.739640 1.484281
C9    C     C_1   0.469020 0.994706 0.530335 0.026731
C10   C     C_1   0.530980 0.005294 0.469665 0.026731
C11   C     C_1   0.030980 0.494709 0.969664 0.026734
C12   C     C_1   0.969020 0.505291 0.030336 0.026734
C13   C     C_R   0.018908 0.094679 0.319056 -0.158057
C14   C     C_R   0.981092 0.905321 0.680944 -0.158057
C15   C     C_R   0.481097 0.594824 0.180929 -0.158085
C16   C     C_R   0.518903 0.405176 0.819071 -0.158085
C17   C     C_R   0.093996 0.107161 0.287695 -0.133139
C18   C     C_R   0.906004 0.892839 0.712305 -0.133139
C19   C     C_R   0.406012 0.607348 0.212289 -0.133127
C20   C     C_R   0.593988 0.392652 0.787711 -0.133127
C21   C     C_R   0.160391 0.048271 0.341181 -0.006058
C22   C     C_R   0.839609 0.951729 0.658819 -0.006058
C23   C     C_R   0.339612 0.548438 0.158813 -0.006074
C24   C     C_R   0.660388 0.451562 0.841187 -0.006074
C25   C     C_R   0.151955 0.984622 0.429284 -0.097501
C26   C     C_R   0.848045 0.015378 0.570716 -0.097501
C27   C     C_R   0.348043 0.484741 0.070715 -0.097485
C28   C     C_R   0.651957 0.515259 0.929285 -0.097485
C29   C     C_R   0.077499 0.002732 0.467879 0.023440
C30   C     C_R   0.922501 0.997268 0.532121 0.023440
C31   C     C_R   0.422500 0.502803 0.032118 0.023443
C32   C     C_R   0.577500 0.497196 0.967882 0.023443
C33   C     C_R   0.008777 0.040180 0.408505 0.071423
C34   C     C_R   0.991223 0.959820 0.591495 0.071423
C35   C     C_R   0.491224 0.540255 0.091488 0.071424
C36   C     C_R   0.508775 0.459745 0.908512 0.071424
C37   C     C_R   0.068670 0.976839 0.561576 -0.158111
C38   C     C_R   0.931330 0.023161 0.438424 -0.158111
C39   C     C_R   0.431329 0.476841 0.938426 -0.158113
C40   C     C_R   0.568671 0.523158 0.061574 -0.158113
C41   C     C_1   0.416452 0.986058 0.581994 -0.153784
C42   C     C_1   0.583548 0.013942 0.418006 -0.153783
C43   C     C_1   0.083548 0.486065 0.918005 -0.153760
C44   C     C_1   0.916452 0.513935 0.081995 -0.153759
H5    H     H_    0.969038 0.132060 0.272502 0.121230
H6    H     H_    0.030962 0.867940 0.727498 0.121230
H7    H     H_    0.530971 0.632214 0.227478 0.121252
H8    H     H_    0.469029 0.367786 0.772522 0.121252
C45   C     C_1   0.212228 0.859111 0.466964 0.275808
N1    N     N_1   0.259920 0.753827 0.493545 -0.327940
C46   C     C_1   0.787772 0.140889 0.533036 0.275808
N2    N     N_1   0.740080 0.246172 0.506455 -0.327939
C47   C     C_1   0.287759 0.359244 0.033045 0.275787
N3    N     N_1   0.240058 0.253976 0.006471 -0.327977
C48   C     C_1   0.712241 0.640756 0.966955 0.275786
N4    N     N_1   0.759942 0.746024 0.993529 -0.327977
C49   C     C_1   0.763698 0.955474 0.697702 0.330185
N5    N     N_1   0.703003 0.958366 0.728836 -0.352912
C50   C     C_1   0.236301 0.044526 0.302298 0.330185
N6    N     N_1   0.296997 0.041634 0.271164 -0.352912
C51   C     C_1   0.736294 0.455299 0.802295 0.330194
N7    N     N_1   0.796986 0.458188 0.771156 -0.352884
C52   C     C_1   0.263706 0.544701 0.197705 0.330194
N8    N     N_1   0.203014 0.541812 0.228844 -0.352884

loop_
_geom_bond_atom_site_label_1
_geom_bond_atom_site_label_2
_ccdc_geom_bond_type
C30   C34   A    
C16   C20   A    
C50   N6    T    
C10   C42   T    
O1    C5    A    
C27   C31   A    
C21   C50   S    
O3    C7    A    
C1    C44   S    
C13   C33   A    
C4    C41   S    
C47   N3    T    
C3    C42   S    
C15   C35   A    
C49   N5    T    
C16   C36   A    
O7    C3    A    
C22   C26   A    
C7    C38   S    
C9    C41   T    
C14   C18   A    
O4    C8    A    
O3    V1    S    
O2    V4    S    
O8    V4    S    
C16   H8    S    
C22   C49   S    
C23   C52   S    
C33   C38   A    
C30   C38   A    
C3    O13   A    
C2    O16   A    
O5    V1    S    
O2    C6    A    
O19   V1    S    
C27   C47   S    
C14   C34   A    
C31   C39   A    
C2    C43   S    
O11   C7    A    
O12   C8    A    
C24   C51   S    
O13   V1    S    
O11   V3    S    
C1    O15   A    
C15   H7    S    
O4    V2    S    
C14   H6    S    
C36   C39   A    
C52   N8    T    
C25   C29   A    
C19   C23   A    
C45   N1    T    
C28   C32   A    
O20   V2    S    
C25   C45   S    
O5    C1    A    
C9    C10   S    
C48   N4    T    
C17   C21   A    
O8    C4    A    
O9    C5    A    
O14   V2    S    
C8    C37   S    
C5    C40   S    
H1    C17   S    
C11   C12   S    
O1    V3    S    
C28   C48   S    
C26   C46   S    
C26   C30   A    
H3    C19   S    
C18   C22   A    
C35   C40   A    
H4    C20   S    
C11   C43   T    
C12   C44   T    
C34   C37   A    
O7    V3    S    
C29   C37   A    
O10   V2    S    
C29   C33   A    
O17   V3    S    
C31   C35   A    
O18   V4    S    
C32   C36   A    
O10   C6    A    
O15   V3    S    
O12   V4    S    
C21   C25   A    
C23   C27   A    
C6    C39   S    
O6    C2    A    
H2    C18   S    
C13   H5    S    
C46   N2    T    
O16   V4    S    
O6    V2    S    
C20   C24   A    
C32   C40   A    
O9    V1    S    
C4    O14   A    
C13   C17   A    
C51   N7    T    
C15   C19   A    
C24   C28   A    
