data_str_m9_o11_o18_f0_sra.sym.87
_audit_creation_date              2012-12-11T14:21:22-0500
_audit_creation_method            fapswitch 2.2
_symmetry_space_group_name_H-M    P1
_symmetry_Int_Tables_number       1
_space_group_crystal_system       triclinic
_cell_length_a                    21.953057
_cell_length_b                    7.207658
_cell_length_c                    14.936283
_cell_angle_alpha                 89.472743
_cell_angle_beta                  106.961149
_cell_angle_gamma                 89.820265
_cell_volume                      2260.43236209

loop_
_atom_site_label
_atom_site_type_symbol
_atom_type_description
_atom_site_fract_x
_atom_site_fract_y
_atom_site_fract_z
_atom_type_partial_charge
O1    O     O_R   0.584770 0.505770 0.002090 -0.541196
O2    O     O_R   0.415230 0.005770 0.997910 -0.541868
O3    O     O_R   0.467060 0.173340 0.861950 -0.538393
O4    O     O_R   0.532940 0.673340 0.138050 -0.538560
C1    C     C_R   0.455125 0.345352 0.826084 0.677807
C2    C     C_R   0.544972 0.843189 0.174042 0.677720
O5    O     O_R   0.587510 0.175890 0.993210 -0.541055
O6    O     O_R   0.412490 0.675890 0.006790 -0.540596
O7    O     O_R   0.536540 0.008150 0.130100 -0.536787
O8    O     O_R   0.463460 0.508150 0.869900 -0.536134
C3    C     C_R   0.612972 0.344731 0.997498 0.730303
C4    C     C_R   0.387024 0.845106 0.002548 0.731531
O9    O     O_3   0.483140 0.340040 0.044760 -0.378192
O10   O     O_3   0.516860 0.840040 0.955240 -0.377960
V1    V     V_3+5 0.503130 0.064190 0.991700 1.416256
V2    V     V_3+5 0.496870 0.564190 0.008300 1.418286
C5    C     C_2   0.214187 0.727312 0.003565 -0.131550
C6    C     C_2   0.786360 0.227768 0.997592 -0.130592
C7    C     C_2   0.180285 0.886417 0.996133 -0.304674
C8    C     C_2   0.819680 0.387023 0.003872 -0.305592
H1    H     H_    0.191297 0.596375 0.009626 0.138336
H2    H     H_    0.809776 0.096986 0.992566 0.139309
H3    H     H_    0.201662 0.018755 0.988941 0.127814
H4    H     H_    0.797839 0.519255 0.010133 0.128007
C9    C     C_2   0.282076 0.714705 0.003288 -0.137559
C10   C     C_2   0.718483 0.214412 0.997808 -0.140996
C11   C     C_2   0.319914 0.861699 0.003490 -0.303296
C12   C     C_2   0.680058 0.361095 0.996530 -0.301716
H5    H     H_    0.301443 0.575775 0.003662 0.136573
H6    H     H_    0.699659 0.075382 0.998349 0.136057
H7    H     H_    0.301857 0.001495 0.004073 0.130030
H8    H     H_    0.697677 0.500915 0.995170 0.130860
C13   C     C_R   0.927869 0.893205 0.723807 -0.026590
C14   C     C_R   0.072106 0.379447 0.275773 -0.024460
C15   C     C_R   0.573654 0.845646 0.275460 -0.026978
C16   C     C_R   0.426343 0.358341 0.724940 -0.024394
C17   C     C_R   0.936881 0.963963 0.570307 -0.157017
C18   C     C_R   0.061746 0.298734 0.427360 -0.155875
C19   C     C_R   0.964647 0.945651 0.666275 -0.178828
C20   C     C_R   0.034314 0.327891 0.331951 -0.179976
C21   C     C_R   0.862996 0.858999 0.685379 -0.196270
C22   C     C_R   0.137549 0.401916 0.314798 -0.195844
C23   C     C_R   0.832625 0.881770 0.588063 0.044465
C24   C     C_R   0.167415 0.369309 0.411475 0.044453
C25   C     C_R   0.870925 0.935375 0.529854 0.121801
C26   C     C_R   0.128152 0.316705 0.468435 0.121074
C27   C     C_R   0.765517 0.856854 0.547721 0.055127
C28   C     C_R   0.234845 0.384430 0.452367 0.054855
C29   C     C_R   0.737372 0.885767 0.449488 0.014717
C30   C     C_R   0.262309 0.347963 0.550073 0.014477
C31   C     C_R   0.777160 0.938357 0.394592 -0.188949
C32   C     C_R   0.221642 0.295939 0.603716 -0.187771
C33   C     C_R   0.842681 0.962608 0.432926 0.146539
C34   C     C_R   0.155837 0.280417 0.564729 0.148629
C35   C     C_R   0.725458 0.804827 0.602627 -0.172629
C36   C     C_R   0.275887 0.433682 0.398503 -0.172669
C37   C     C_R   0.660535 0.781534 0.563417 -0.202768
C38   C     C_R   0.341140 0.447055 0.438261 -0.202826
C39   C     C_R   0.632490 0.807149 0.467883 0.143394
C40   C     C_R   0.368564 0.414038 0.533372 0.142810
C41   C     C_R   0.670133 0.860235 0.409156 0.093926
C42   C     C_R   0.329836 0.364320 0.591059 0.094413
C43   C     C_R   0.566885 0.776228 0.430450 -0.163753
C44   C     C_R   0.434723 0.433115 0.571420 -0.162798
C45   C     C_R   0.537860 0.792925 0.334647 -0.169917
C46   C     C_R   0.463357 0.406736 0.666835 -0.171917
C47   C     C_R   0.638770 0.881280 0.312071 -0.211722
C48   C     C_R   0.360549 0.336225 0.687818 -0.210254
H9    H     H_    0.663440 0.917864 0.261909 0.096609
H10   H     H_    0.335081 0.302427 0.737355 0.093997
H11   H     H_    0.487613 0.762598 0.306440 0.106341
H12   H     H_    0.514246 0.426051 0.695571 0.105233
H13   H     H_    0.632003 0.740777 0.608531 0.121154
H14   H     H_    0.370473 0.485406 0.393913 0.120951
H15   H     H_    0.967594 0.004734 0.528742 0.125133
H16   H     H_    0.030308 0.259004 0.467976 0.125294
H17   H     H_    0.014869 0.974672 0.695996 0.112812
H18   H     H_    0.983556 0.308286 0.301658 0.110358
H19   H     H_    0.837615 0.822010 0.734554 0.095121
H20   H     H_    0.163530 0.440132 0.266566 0.093562
H21   H     H_    0.758484 0.963236 0.320566 0.127119
H22   H     H_    0.239835 0.264032 0.677133 0.126747
H23   H     H_    0.742402 0.779597 0.676828 0.120218
H24   H     H_    0.259544 0.463328 0.324663 0.121073
H25   H     H_    0.538230 0.734828 0.475237 0.111442
H26   H     H_    0.464249 0.471430 0.527398 0.111524
O11   O     O_R   0.036450 0.233070 0.130130 -0.537119
O12   O     O_R   0.963550 0.733070 0.869870 -0.538322
O13   O     O_R   0.912470 0.560570 0.006790 -0.545432
O14   O     O_R   0.087530 0.060570 0.993210 -0.544885
C49   C     C_R   0.886995 0.392089 0.002643 0.730004
C50   C     C_R   0.113005 0.891733 0.997383 0.731208
O15   O     O_R   0.032920 0.562940 0.138050 -0.539408
O16   O     O_R   0.967080 0.062940 0.861950 -0.538762
O17   O     O_R   0.084790 0.730500 0.002090 -0.537631
O18   O     O_R   0.915210 0.230500 0.997910 -0.537042
C51   C     C_R   0.044545 0.393249 0.174408 0.683689
C52   C     C_R   0.955340 0.895523 0.825470 0.683838
O19   O     O_3   0.016820 0.396170 0.955260 -0.378236
O20   O     O_3   0.983180 0.896170 0.044740 -0.378233
V3    V     V_3+5 0.996880 0.672090 0.008300 1.415301
V4    V     V_3+5 0.003120 0.172090 0.991700 1.418515
C53   C     C_3   0.881356 0.020247 0.368496 -0.805376
H27   H     H_    0.918637 0.914328 0.370786 0.211776
H28   H     H_    0.851704 0.034900 0.294507 0.209938
H29   H     H_    0.904027 0.156476 0.390418 0.205653
C54   C     C_3   0.116225 0.222141 0.627710 -0.808715
H30   H     H_    0.080454 0.331419 0.627694 0.212331
H31   H     H_    0.091680 0.089789 0.602654 0.205610
H32   H     H_    0.145530 0.199646 0.701373 0.207959

loop_
_geom_bond_atom_site_label_1
_geom_bond_atom_site_label_2
_ccdc_geom_bond_type
C43   C45   A    
C22   H20   S    
C17   C25   A    
O18   V4    S    
C21   C23   A    
C14   C22   A    
O2    C4    A    
C2    O7    A    
O12   V3    S    
C27   C29   A    
C18   H16   S    
O5    C3    A    
C13   C19   A    
C34   C54   S    
C14   C20   A    
C19   H17   S    
C16   C46   A    
C37   C39   A    
C15   C45   A    
C38   C40   A    
C1    C16   S    
C14   C51   S    
C2    C15   S    
C40   C42   A    
C13   C52   S    
C37   H13   S    
O14   V4    S    
C7    C50   S    
C49   O18   A    
C46   H12   S    
C8    H4    S    
C24   C26   A    
C29   C31   A    
C6    C10   S    
C30   C32   A    
C54   H30   S    
O13   C49   A    
C31   H21   S    
C28   C30   A    
C17   H15   S    
C25   C33   A    
O6    V2    S    
C43   H25   S    
C54   H31   S    
C22   C24   A    
C44   H26   S    
C32   C34   A    
C36   H24   S    
C9    H5    S    
C8    C49   S    
C39   C41   A    
C29   C41   A    
C4    C11   S    
C11   H7    S    
C12   H8    S    
O4    C2    A    
O15   V3    S    
C45   H11   S    
C50   O17   A    
C5    H1    S    
C47   H9    S    
C44   C46   A    
O4    V2    S    
C7    H3    S    
O11   V4    S    
C41   C47   A    
O14   C50   A    
C15   C47   A    
O6    C4    A    
C26   C34   A    
C53   H28   S    
O1    V2    S    
C32   H22   S    
O2    V1    S    
C23   C25   A    
C10   H6    S    
C35   C37   A    
C30   C42   A    
C54   H32   S    
C20   H18   S    
C35   H23   S    
O15   C51   A    
O3    V1    S    
C38   H14   S    
C27   C35   A    
C28   C36   A    
O13   V3    S    
C6    H2    S    
C10   C12   D    
O3    C1    A    
C21   H19   S    
C16   C48   A    
C9    C11   D    
C39   C43   A    
C42   C48   A    
C40   C44   A    
C13   C21   A    
O7    V1    S    
C5    C9    S    
C1    O8    A    
C17   C19   A    
O8    V2    S    
C18   C20   A    
C3    C12   S    
C33   C53   S    
O5    V1    S    
O20   V3    S    
C5    C7    D    
C36   C38   A    
C53   H29   S    
C6    C8    D    
C18   C26   A    
O17   V3    S    
O19   V4    S    
O16   V4    S    
C48   H10   S    
O9    V2    S    
C53   H27   S    
O16   C52   A    
O10   V1    S    
O1    C3    A    
C31   C33   A    
C23   C27   A    
O12   C52   A    
C24   C28   A    
O11   C51   A    
