data_str_m4_o22_o22_f0_acs.sym.19
_audit_creation_date              2012-12-11T15:06:55-0500
_audit_creation_method            fapswitch 2.2
_symmetry_space_group_name_H-M    P1
_symmetry_Int_Tables_number       1
_space_group_crystal_system       triclinic
_cell_length_a                    19.754075
_cell_length_b                    11.286178
_cell_length_c                    18.714557
_cell_angle_alpha                 89.902482
_cell_angle_beta                  90.716627
_cell_angle_gamma                 90.006149
_cell_volume                      4172.04076694

loop_
_atom_site_label
_atom_site_type_symbol
_atom_type_description
_atom_site_fract_x
_atom_site_fract_y
_atom_site_fract_z
_atom_type_partial_charge
C1    C     C_R   0.761852 0.522327 0.638590 0.536748
C2    C     C_3   0.255194 0.054202 0.561946 0.064968
C3    C     C_R   0.740020 0.036038 0.152058 0.530692
C4    C     C_R   0.774778 0.133569 0.859190 0.532953
C5    C     C_R   0.225558 0.132376 0.141309 0.532661
C6    C     C_R   0.274779 0.633571 0.859191 0.532956
C7    C     C_R   0.725557 0.632376 0.141309 0.532659
C8    C     C_R   0.968019 0.353225 0.854417 0.536576
C9    C     C_R   0.029951 0.353260 0.146896 0.533419
C10   C     C_R   0.468019 0.853226 0.854417 0.536576
C11   C     C_R   0.529951 0.853260 0.146896 0.533417
C12   C     C_3   0.684628 0.128658 0.465782 -0.230815
C13   C     C_3   0.244818 0.553930 0.438087 0.065148
C14   C     C_3   0.315435 0.128791 0.534110 -0.231163
C15   C     C_3   0.184628 0.628658 0.465782 -0.230815
C16   C     C_3   0.815435 0.628791 0.534110 -0.231163
C17   C     C_3   0.689378 0.142148 0.547326 -0.229948
C18   C     C_3   0.310676 0.142209 0.452544 -0.229854
C19   C     C_3   0.189378 0.642148 0.547326 -0.229948
C20   C     C_3   0.810675 0.642209 0.452544 -0.229854
C21   C     C_3   0.754638 0.936043 0.481792 -0.217671
C22   C     C_3   0.245336 0.936238 0.518575 -0.217308
C23   C     C_3   0.254638 0.436043 0.481792 -0.217671
C24   C     C_3   0.755194 0.554202 0.561946 0.064968
C25   C     C_3   0.745336 0.436238 0.518575 -0.217308
C26   C     C_3   0.982014 0.101876 0.414180 -0.414639
C27   C     C_3   0.018195 0.102041 0.586467 -0.414328
C28   C     C_3   0.482014 0.601876 0.414180 -0.414639
C29   C     C_3   0.518195 0.602041 0.586467 -0.414328
C30   C     C_3   0.756348 0.086542 0.576127 0.068114
C31   C     C_3   0.243689 0.086498 0.423866 0.068444
C32   C     C_3   0.256348 0.586542 0.576127 0.068114
C33   C     C_3   0.743689 0.586498 0.423866 0.068444
C34   C     C_3   0.750008 0.953874 0.563198 -0.264141
C35   C     C_3   0.250024 0.953872 0.437140 -0.264546
C36   C     C_3   0.250008 0.453874 0.563198 -0.264141
C37   C     C_R   0.238113 0.522064 0.361466 0.535918
C38   C     C_3   0.750024 0.453872 0.437140 -0.264546
C39   C     C_3   0.818049 0.130571 0.533229 -0.214120
C40   C     C_3   0.181986 0.130666 0.466583 -0.214098
C41   C     C_3   0.318049 0.630571 0.533229 -0.214120
C42   C     C_3   0.681986 0.630666 0.466583 -0.214098
C43   C     C_3   0.013128 0.200260 0.461583 -0.104605
C44   C     C_3   0.986993 0.200307 0.538824 -0.104456
C45   C     C_3   0.513128 0.700260 0.461583 -0.104606
C46   C     C_3   0.486993 0.700306 0.538824 -0.104456
C47   C     C_3   0.063867 0.404536 0.475620 -0.238291
C48   C     C_R   0.261852 0.022327 0.638590 0.536751
C49   C     C_3   0.936118 0.404509 0.524253 -0.238546
C50   C     C_3   0.563867 0.904536 0.475620 -0.238291
C51   C     C_3   0.436118 0.904509 0.524253 -0.238546
C52   C     C_3   0.941541 0.381288 0.443708 -0.269634
C53   C     C_3   0.058446 0.381543 0.556232 -0.269757
C54   C     C_3   0.441541 0.881289 0.443708 -0.269634
C55   C     C_3   0.558446 0.881543 0.556232 -0.269757
C56   C     C_3   0.011772 0.329219 0.431058 0.064159
C57   C     C_3   0.988255 0.329373 0.569002 0.063914
C58   C     C_3   0.511772 0.829219 0.431058 0.064159
C59   C     C_R   0.738113 0.022064 0.361466 0.535918
C60   C     C_3   0.488255 0.829373 0.569002 0.063914
C61   C     C_3   0.819520 0.030751 0.048671 -0.229620
C62   C     C_3   0.187269 0.010643 0.955517 -0.224604
C63   C     C_3   0.319520 0.530752 0.048671 -0.229620
C64   C     C_3   0.687268 0.510647 0.955516 -0.224598
C65   C     C_R   0.772584 0.118195 0.651003 0.534456
C66   C     C_R   0.227450 0.118055 0.348955 0.533896
C67   C     C_R   0.272584 0.618196 0.651003 0.534457
C68   C     C_R   0.727450 0.618055 0.348955 0.533896
C69   C     C_3   0.822161 0.036360 0.968446 -0.227135
C70   C     C_3   0.806928 0.128971 0.452272 -0.267761
C71   C     C_3   0.184566 0.016665 0.035667 -0.235357
C72   C     C_3   0.322161 0.536360 0.968446 -0.227137
C73   C     C_3   0.684565 0.516666 0.035666 -0.235359
C74   C     C_3   0.692735 0.012987 0.030800 -0.221379
C75   C     C_3   0.317869 0.033913 0.970385 -0.214279
C76   C     C_3   0.192735 0.512987 0.030800 -0.221378
C77   C     C_3   0.817868 0.533923 0.970380 -0.214273
C78   C     C_3   0.744506 0.204829 0.060964 -0.254801
C79   C     C_3   0.245210 0.200311 0.937504 -0.259855
C80   C     C_3   0.244505 0.704828 0.060964 -0.254800
C81   C     C_3   0.193113 0.129291 0.547543 -0.268234
C82   C     C_3   0.745204 0.700319 0.937504 -0.259860
C83   C     C_3   0.749162 0.072890 0.075544 0.059290
C84   C     C_3   0.253315 0.068149 0.925916 0.063861
C85   C     C_3   0.249162 0.572890 0.075544 0.059291
C86   C     C_3   0.753312 0.568158 0.925914 0.063869
C87   C     C_3   0.760974 0.105949 0.936395 0.061874
C88   C     C_3   0.239692 0.102498 0.064521 0.058565
C89   C     C_3   0.260974 0.605948 0.936395 0.061874
C90   C     C_3   0.739691 0.602498 0.064520 0.058559
C91   C     C_3   0.699601 0.027214 0.948682 -0.259048
C92   C     C_3   0.306928 0.628971 0.452272 -0.267761
C93   C     C_3   0.308011 0.044361 0.052138 -0.250527
C94   C     C_3   0.199601 0.527211 0.948681 -0.259048
C95   C     C_3   0.808010 0.544361 0.052133 -0.250532
C96   C     C_3   0.745815 0.222408 0.978733 -0.215277
C97   C     C_3   0.238081 0.217868 0.019219 -0.229038
C98   C     C_3   0.245813 0.722406 0.978733 -0.215278
C99   C     C_3   0.738080 0.717870 0.019220 -0.229030
C100  C     C_3   0.994755 0.479865 0.042282 -0.233699
C101  C     C_3   0.991464 0.479892 0.961413 -0.227054
C102  C     C_3   0.494756 0.979866 0.042282 -0.233699
C103  C     C_3   0.693113 0.629291 0.547543 -0.268234
C104  C     C_3   0.491465 0.979893 0.961412 -0.227052
C105  C     C_3   0.066811 0.296293 0.028117 -0.220827
C106  C     C_3   0.937762 0.270094 0.972651 -0.210659
C107  C     C_3   0.566811 0.796295 0.028117 -0.220831
C108  C     C_3   0.437762 0.770094 0.972650 -0.210659
C109  C     C_3   0.945420 0.278889 0.054623 -0.257577
C110  C     C_3   0.057766 0.298503 0.945959 -0.264838
C111  C     C_3   0.445420 0.778890 0.054622 -0.257577
C112  C     C_3   0.557767 0.798502 0.945959 -0.264838
C113  C     C_R   0.968047 0.341693 0.644609 0.542612
C114  C     C_3   0.744818 0.053930 0.438087 0.065148
C115  C     C_R   0.031960 0.341590 0.355408 0.541544
C116  C     C_R   0.468047 0.841693 0.644609 0.542612
C117  C     C_R   0.531960 0.841590 0.355408 0.541544
C118  C     C_3   0.008199 0.352207 0.070312 0.061041
C119  C     C_3   0.988233 0.351276 0.931322 0.064865
C120  C     C_3   0.508198 0.852208 0.070312 0.061040
C121  C     C_3   0.488233 0.851276 0.931321 0.064869
C122  C     C_R   0.761256 0.532285 0.849423 0.535424
C123  C     C_R   0.240020 0.536039 0.152059 0.530693
C124  C     C_R   0.261260 0.032271 0.849427 0.535443
Cr1   Cr    Cr6+3 0.885690 0.492860 0.745310 0.992518
Cr2   Cr    Cr6+3 0.111880 0.178590 0.246990 0.983554
Cr3   Cr    Cr6+3 0.388120 0.678590 0.753010 0.984194
Cr4   Cr    Cr6+3 0.611880 0.678590 0.246990 0.983554
Cr5   Cr    Cr6+3 0.114310 0.492860 0.254690 0.991759
Cr6   Cr    Cr6+3 0.385690 0.992860 0.745310 0.992518
Cr7   Cr    Cr6+3 0.614310 0.992860 0.254690 0.991759
Cr8   Cr    Cr6+3 0.729880 0.332270 0.748190 0.990283
Cr9   Cr    Cr6+3 0.270120 0.332270 0.251810 0.989676
Cr10  Cr    Cr6+3 0.229880 0.832270 0.748190 0.990282
Cr11  Cr    Cr6+3 0.770120 0.832270 0.251810 0.989677
Cr12  Cr    Cr6+3 0.888120 0.178590 0.753010 0.984195
H1    H     H_    0.636244 0.091593 0.449531 0.133029
H2    H     H_    0.192911 0.906369 0.528288 0.122802
H3    H     H_    0.536931 0.025815 0.940416 0.113418
H4    H     H_    0.607938 0.852131 0.042689 0.110256
H5    H     H_    0.385364 0.781807 0.954887 0.111305
H6    H     H_    0.107939 0.352123 0.042689 0.110254
H7    H     H_    0.885363 0.281811 0.954889 0.111303
H8    H     H_    0.597840 0.852163 0.920421 0.105474
H9    H     H_    0.400044 0.819961 0.078464 0.102500
H10   H     H_    0.097839 0.352166 0.920422 0.105477
H11   H     H_    0.900045 0.319961 0.078465 0.102499
H12   H     H_    0.952365 0.189385 0.078326 0.114587
H13   H     H_    0.307021 0.405985 0.472127 0.122526
H14   H     H_    0.061441 0.207497 0.923776 0.109584
H15   H     H_    0.452364 0.689386 0.078325 0.114587
H16   H     H_    0.561441 0.707495 0.923778 0.109583
H17   H     H_    0.952292 0.178578 0.958495 0.123440
H18   H     H_    0.075770 0.204342 0.046082 0.133054
H19   H     H_    0.452293 0.678578 0.958496 0.123439
H20   H     H_    0.575771 0.704346 0.046083 0.133056
H21   H     H_    0.645358 0.099130 0.572504 0.105294
H22   H     H_    0.354710 0.099204 0.427470 0.105084
H23   H     H_    0.145358 0.599130 0.572504 0.105294
H24   H     H_    0.692911 0.406369 0.528288 0.122802
H25   H     H_    0.854710 0.599204 0.427470 0.105084
H26   H     H_    0.721124 0.866627 0.463402 0.109921
H27   H     H_    0.278768 0.866790 0.537256 0.110140
H28   H     H_    0.221124 0.366627 0.463402 0.109921
H29   H     H_    0.778768 0.366790 0.537256 0.110140
H30   H     H_    0.701376 0.920131 0.583911 0.105014
H31   H     H_    0.298676 0.920102 0.416578 0.104915
H32   H     H_    0.201376 0.420131 0.583911 0.105014
H33   H     H_    0.798676 0.420102 0.416578 0.104915
H34   H     H_    0.850654 0.088486 0.426164 0.126781
H35   H     H_    0.791313 0.905130 0.591358 0.118196
H36   H     H_    0.149375 0.088939 0.573770 0.126798
H37   H     H_    0.350654 0.588486 0.426164 0.126781
H38   H     H_    0.649375 0.588939 0.573770 0.126798
H39   H     H_    0.800632 0.219459 0.430456 0.104507
H40   H     H_    0.199439 0.219824 0.569077 0.104732
H41   H     H_    0.300633 0.719459 0.430456 0.104507
H42   H     H_    0.699439 0.719824 0.569077 0.104732
H43   H     H_    0.834727 0.217712 0.551862 0.105236
H44   H     H_    0.165292 0.217745 0.447617 0.105644
H45   H     H_    0.334728 0.717712 0.551862 0.105236
H46   H     H_    0.208729 0.905110 0.409078 0.117838
H47   H     H_    0.665292 0.717745 0.447617 0.105644
H48   H     H_    0.944692 0.138922 0.375505 0.143148
H49   H     H_    0.022160 0.057627 0.382872 0.161111
H50   H     H_    0.958674 0.030944 0.446850 0.111189
H51   H     H_    0.055593 0.139188 0.624957 0.143390
H52   H     H_    0.978115 0.057811 0.617978 0.161427
H53   H     H_    0.041452 0.031015 0.553953 0.111141
H54   H     H_    0.444692 0.638922 0.375505 0.143148
H55   H     H_    0.522160 0.557627 0.382872 0.161111
H56   H     H_    0.458674 0.530944 0.446850 0.111189
H57   H     H_    0.291313 0.405130 0.591358 0.118196
H58   H     H_    0.555593 0.639188 0.624957 0.143389
H59   H     H_    0.478114 0.557811 0.617978 0.161427
H60   H     H_    0.541452 0.531015 0.553953 0.111141
H61   H     H_    0.708729 0.405110 0.409078 0.117838
H62   H     H_    0.064692 0.179013 0.467493 0.151845
H63   H     H_    0.935443 0.178890 0.533065 0.151991
H64   H     H_    0.564692 0.679013 0.467493 0.151845
H65   H     H_    0.363791 0.091605 0.550456 0.133185
H66   H     H_    0.435443 0.678890 0.533065 0.151992
H67   H     H_    0.615748 0.890616 0.457707 0.111916
H68   H     H_    0.384241 0.890579 0.542210 0.111787
H69   H     H_    0.115748 0.390616 0.457707 0.111916
H70   H     H_    0.884241 0.390579 0.542210 0.111787
H71   H     H_    0.598181 0.819204 0.574751 0.109528
H72   H     H_    0.401844 0.818808 0.425400 0.109412
H73   H     H_    0.098181 0.319204 0.574751 0.109528
H74   H     H_    0.901844 0.318808 0.425400 0.109412
H75   H     H_    0.934761 0.465267 0.413610 0.123257
H76   H     H_    0.136244 0.591593 0.449531 0.133029
H77   H     H_    0.065131 0.465621 0.586074 0.123349
H78   H     H_    0.434761 0.965267 0.413610 0.123257
H79   H     H_    0.565131 0.965620 0.586074 0.123349
H80   H     H_    0.949834 0.498677 0.532667 0.133959
H81   H     H_    0.050104 0.498659 0.466918 0.134336
H82   H     H_    0.449834 0.998677 0.532667 0.133959
H83   H     H_    0.550104 0.998660 0.466918 0.134336
H84   H     H_    0.832785 0.938803 0.064008 0.138441
H85   H     H_    0.179823 0.919247 0.939098 0.138771
H86   H     H_    0.332786 0.438804 0.064009 0.138442
H87   H     H_    0.863791 0.591605 0.550456 0.133186
H88   H     H_    0.679823 0.419251 0.939096 0.138778
H89   H     H_    0.684606 0.217506 0.440549 0.106394
H90   H     H_    0.315511 0.217666 0.559140 0.106346
H91   H     H_    0.184606 0.717506 0.440549 0.106395
H92   H     H_    0.815511 0.717666 0.559140 0.106346
H93   H     H_    0.859508 0.086499 0.072936 0.115270
H94   H     H_    0.142360 0.057024 0.932389 0.114881
H95   H     H_    0.359507 0.586500 0.072936 0.115269
H96   H     H_    0.642357 0.557026 0.932389 0.114874
H97   H     H_    0.870807 0.071954 0.953219 0.133916
H98   H     H_    0.858698 0.064782 0.545057 0.129146
H99   H     H_    0.132397 0.042413 0.049697 0.132728
H100  H     H_    0.370807 0.571952 0.953219 0.133915
H101  H     H_    0.632397 0.542413 0.049698 0.132729
H102  H     H_    0.822556 0.944793 0.946507 0.114597
H103  H     H_    0.192197 0.928082 0.059333 0.118435
H104  H     H_    0.322556 0.444793 0.946508 0.114598
H105  H     H_    0.692198 0.428083 0.059331 0.118434
H106  H     H_    0.699716 0.922436 0.044894 0.109902
H107  H     H_    0.338341 0.948189 0.955172 0.109039
H108  H     H_    0.199715 0.422436 0.044895 0.109902
H109  H     H_    0.141324 0.064862 0.454930 0.129107
H110  H     H_    0.838350 0.448209 0.955159 0.109051
H111  H     H_    0.706267 0.940102 0.922471 0.106220
H112  H     H_    0.310389 0.956033 0.077991 0.102196
H113  H     H_    0.206269 0.440098 0.922472 0.106221
H114  H     H_    0.810388 0.456031 0.077983 0.102199
H115  H     H_    0.696405 0.238678 0.083331 0.114799
H116  H     H_    0.289533 0.250091 0.917098 0.112550
H117  H     H_    0.196404 0.738677 0.083331 0.114797
H118  H     H_    0.789525 0.750104 0.917095 0.112542
H119  H     H_    0.787016 0.252511 0.087372 0.102121
H120  H     H_    0.358698 0.564782 0.545057 0.129146
H121  H     H_    0.199932 0.233752 0.907936 0.103214
H122  H     H_    0.287015 0.752513 0.087371 0.102121
H123  H     H_    0.699923 0.733759 0.907938 0.103209
H124  H     H_    0.779074 0.295015 0.963964 0.109337
H125  H     H_    0.188078 0.249074 0.026375 0.111179
H126  H     H_    0.279070 0.795011 0.963963 0.109333
H127  H     H_    0.688076 0.749075 0.026380 0.111180
H128  H     H_    0.693757 0.247504 0.963073 0.119510
H129  H     H_    0.276926 0.280265 0.038955 0.126271
H130  H     H_    0.193755 0.747501 0.963074 0.119509
H131  H     H_    0.641324 0.564862 0.454930 0.129107
H132  H     H_    0.776925 0.780266 0.038957 0.126272
H133  H     H_    0.642662 0.045381 0.047612 0.126881
H134  H     H_    0.356339 0.100766 0.956601 0.118752
H135  H     H_    0.142663 0.545384 0.047610 0.126883
H136  H     H_    0.856334 0.600791 0.956600 0.118749
H137  H     H_    0.684726 0.235061 0.562394 0.138429
H138  H     H_    0.315301 0.235167 0.437289 0.138984
H139  H     H_    0.184726 0.735061 0.562394 0.138429
H140  H     H_    0.815301 0.735167 0.437289 0.138984
H141  H     H_    0.653107 0.067800 0.925242 0.111145
H142  H     H_    0.807021 0.905985 0.472127 0.122526
H143  H     H_    0.348247 0.100762 0.076348 0.116342
H144  H     H_    0.153108 0.567794 0.925241 0.111145
H145  H     H_    0.848246 0.600758 0.076346 0.116340
H146  H     H_    0.034056 0.544367 0.058903 0.134102
H147  H     H_    0.949811 0.535258 0.943135 0.134685
H148  H     H_    0.534057 0.044368 0.058903 0.134101
H149  H     H_    0.449815 0.035261 0.943133 0.134685
H150  H     H_    0.946937 0.513402 0.064478 0.115589
H151  H     H_    0.036929 0.525816 0.940416 0.113420
H152  H     H_    0.446937 0.013406 0.064477 0.115590
O1    O     O_R   0.957210 0.449410 0.665480 -0.533667
O2    O     O_R   0.167480 0.095300 0.164000 -0.534325
O3    O     O_R   0.332520 0.595300 0.836000 -0.534094
O4    O     O_R   0.667480 0.595300 0.164000 -0.534325
O5    O     O_R   0.946380 0.253940 0.826940 -0.513493
O6    O     O_R   0.053620 0.253940 0.173060 -0.513746
O7    O     O_R   0.446380 0.753940 0.826940 -0.513494
O8    O     O_R   0.553620 0.753940 0.173060 -0.513746
O9    O     O_3   0.834560 0.334570 0.748840 -0.273200
O10   O     O_3   0.165440 0.334570 0.251160 -0.270401
O11   O     O_3   0.334560 0.834570 0.748840 -0.273205
O12   O     O_R   0.042790 0.449410 0.334520 -0.534284
O13   O     O_3   0.665440 0.834570 0.251160 -0.270401
O14   O     O_R   0.820730 0.541240 0.668250 -0.515282
O15   O     O_R   0.179270 0.541240 0.331750 -0.515814
O16   O     O_R   0.320730 0.041240 0.668250 -0.515281
O17   O     O_R   0.679270 0.041240 0.331750 -0.515814
O18   O     O_R   0.714240 0.455060 0.663710 -0.532179
O19   O     O_R   0.285760 0.455060 0.336290 -0.532786
O20   O     O_R   0.214240 0.955060 0.663710 -0.532178
O21   O     O_R   0.785760 0.955060 0.336290 -0.532785
O22   O     O_R   0.736780 0.204870 0.675910 -0.514260
O23   O     O_R   0.457210 0.949410 0.665480 -0.533667
O24   O     O_R   0.263220 0.204870 0.324090 -0.514604
O25   O     O_R   0.236780 0.704870 0.675910 -0.514260
O26   O     O_R   0.763220 0.704870 0.324090 -0.514604
O27   O     O_R   0.833070 0.087590 0.673490 -0.534976
O28   O     O_R   0.166930 0.087590 0.326510 -0.535124
O29   O     O_R   0.333070 0.587590 0.673490 -0.534976
O30   O     O_R   0.666930 0.587590 0.326510 -0.535124
O31   O     O_R   0.946890 0.246800 0.676300 -0.513171
O32   O     O_R   0.053110 0.246800 0.323700 -0.513533
O33   O     O_R   0.446890 0.746800 0.676300 -0.513171
O34   O     O_R   0.542790 0.949410 0.334520 -0.534284
O35   O     O_R   0.553110 0.746800 0.323700 -0.513533
O36   O     O_R   0.956650 0.457120 0.827980 -0.532103
O37   O     O_R   0.043350 0.457120 0.172020 -0.531766
O38   O     O_R   0.456650 0.957120 0.827980 -0.532104
O39   O     O_R   0.543350 0.957120 0.172020 -0.531766
O40   O     O_R   0.820220 0.548390 0.818890 -0.510096
O41   O     O_R   0.179780 0.548390 0.181110 -0.509506
O42   O     O_R   0.320220 0.048390 0.818890 -0.510099
O43   O     O_R   0.679780 0.048390 0.181110 -0.509505
O44   O     O_R   0.713680 0.462770 0.826210 -0.533605
O45   O     O_R   0.736260 0.212010 0.826560 -0.511100
O46   O     O_R   0.286320 0.462770 0.173790 -0.533123
O47   O     O_R   0.213680 0.962770 0.826210 -0.533609
O48   O     O_R   0.786320 0.962770 0.173790 -0.533123
O49   O     O_R   0.263740 0.212010 0.173440 -0.510732
O50   O     O_R   0.236260 0.712010 0.826560 -0.511104
O51   O     O_R   0.763740 0.712010 0.173440 -0.510732
O52   O     O_R   0.832520 0.095300 0.836000 -0.534094

loop_
_geom_bond_atom_site_label_1
_geom_bond_atom_site_label_2
_ccdc_geom_bond_type
C105  C110  S    
C87   C91   S    
C107  C112  S    
C74   C83   S    
Cr2   O28   S    
C90   C95   S    
C4    C87   S    
C45   H64   S    
C47   H81   S    
C41   H120  S    
C10   O38   A    
C26   H49   S    
C8    O5    A    
C11   C120  S    
Cr12  O31   S    
C113  O1    A    
C14   H65   S    
C28   H56   S    
C36   H32   S    
Cr4   O8    S    
C62   H85   S    
C89   C94   S    
Cr9   O19   S    
C122  O40   A    
C40   H44   S    
C5    C88   S    
C123  O46   A    
C78   C96   S    
C2    C22   S    
C88   C97   S    
C97   H125  S    
C47   C53   S    
C23   H13   S    
C99   H127  S    
C63   C85   S    
C52   H74   S    
C17   C30   S    
C63   H86   S    
C19   C32   S    
C109  C118  S    
C51   H82   S    
C47   H69   S    
C81   H40   S    
Cr8   O45   S    
C59   O21   A    
C45   C46   S    
C72   H100  S    
Cr1   O40   S    
C15   H91   S    
C43   C44   S    
C20   H140  S    
Cr7   O43   S    
C7    O4    A    
C44   C57   S    
C16   C20   S    
C106  H17   S    
C77   H136  S    
C27   H51   S    
C20   C33   S    
C97   H129  S    
C3    C83   S    
C105  C118  S    
C122  O44   A    
C107  C120  S    
C51   H68   S    
C75   C93   S    
C38   H33   S    
Cr3   O7    S    
C54   H78   S    
C16   H92   S    
C46   C60   S    
C79   C97   S    
C110  H14   S    
C17   H137  S    
Cr4   O35   S    
C29   C46   S    
C33   C38   S    
C108  C111  S    
C68   O30   A    
C19   H23   S    
Cr4   O13   S    
C108  H19   S    
C85   C123  S    
C58   C117  S    
Cr7   O34   S    
C2    C14   S    
C93   H143  S    
Cr11  O21   S    
C94   H144  S    
C71   C88   S    
C74   H106  S    
C49   H70   S    
C23   C36   S    
C2    C81   S    
C18   C31   S    
C76   C85   S    
Cr1   O1    S    
C34   H35   S    
Cr2   O6    S    
C5    O49   A    
C79   H116  S    
C42   C103  S    
C40   H109  S    
C33   C42   S    
C32   C36   S    
C73   C90   S    
C8    O36   A    
C55   H79   S    
C79   C84   S    
C75   C84   S    
C76   H135  S    
C100  H150  S    
C50   H83   S    
C107  H4    S    
C49   C57   S    
C13   C23   S    
C102  H152  S    
C69   H97   S    
Cr10  O20   S    
C27   C44   S    
C95   H145  S    
Cr11  O51   S    
C64   C73   S    
C71   H99   S    
C17   H21   S    
Cr9   O24   S    
Cr10  O11   S    
C76   C94   S    
C4    O45   A    
C96   H128  S    
Cr2   O2    S    
C9    C118  S    
C109  H11   S    
C116  O33   A    
C95   H114  S    
C12   C114  S    
Cr12  O27   S    
C99   H132  S    
C30   C34   S    
C79   H121  S    
C124  O42   A    
C105  H6    S    
C66   O24   A    
C57   C113  S    
C117  O34   A    
C29   H59   S    
C7    C90   S    
C103  H38   S    
C15   H76   S    
C6    O50   A    
C25   C38   S    
C98   H126  S    
C32   C67   S    
C54   H72   S    
C37   O19   A    
C1    O14   A    
C60   C116  S    
C28   H55   S    
C90   C99   S    
C59   O17   A    
Cr12  O9    S    
C63   H95   S    
C23   H28   S    
C62   C84   S    
C53   H77   S    
C21   H26   S    
Cr1   O36   S    
Cr6   O16   S    
Cr7   O13   S    
Cr8   O18   S    
C110  C119  S    
Cr7   O39   S    
C65   O27   A    
C75   H134  S    
C66   O28   A    
Cr9   O49   S    
Cr4   O30   S    
C89   C98   S    
C24   C103  S    
C112  C121  S    
Cr12  O52   S    
C26   H50   S    
C98   H130  S    
C100  C101  S    
C30   C39   S    
Cr3   O33   S    
C30   C65   S    
C92   H41   S    
Cr9   O10   S    
Cr3   O11   S    
C116  O23   A    
Cr4   O4    S    
C1    C24   S    
C51   C60   S    
C42   H131  S    
C110  H10   S    
C33   C68   S    
C47   C56   S    
C18   H138  S    
C106  C109  S    
C67   O29   A    
C106  C119  S    
C82   C99   S    
C108  C121  S    
C5    O2    A    
C106  H7    S    
C50   H67   S    
C15   C19   S    
C14   H90   S    
C115  O32   A    
C31   C40   S    
C64   H88   S    
C77   H110  S    
C91   H141  S    
Cr9   O46   S    
Cr6   O38   S    
C78   C83   S    
C12   C17   S    
C86   C122  S    
C61   H93   S    
C112  H16   S    
C69   H102  S    
C69   C87   S    
Cr7   O17   S    
C124  O47   A    
C55   C60   S    
C78   H115  S    
C41   H45   S    
C64   C86   S    
C108  H5    S    
C91   H111  S    
C45   C58   S    
C80   H117  S    
C101  H147  S    
C50   C58   S    
C102  H148  S    
C61   C83   S    
C64   H96   S    
C53   C57   S    
C21   C34   S    
C25   H29   S    
C82   C86   S    
C115  O12   A    
C71   H103  S    
C74   C91   S    
C80   C85   S    
C18   H22   S    
Cr1   O9    S    
C39   H43   S    
Cr6   O42   S    
C96   H124  S    
C49   C52   S    
C25   H24   S    
Cr10  O25   S    
C117  O35   A    
C13   C92   S    
C42   H47   S    
C31   C35   S    
C80   H122  S    
C78   H119  S    
C29   H60   S    
C102  C120  S    
C6    O3    A    
Cr5   O15   S    
C80   C98   S    
C82   H123  S    
Cr5   O37   S    
C28   H54   S    
C39   H98   S    
C3    O43   A    
C22   H2    S    
C104  H3    S    
Cr6   O11   S    
C2    C48   S    
C103  H42   S    
C70   H34   S    
C21   H142  S    
Cr2   O32   S    
Cr3   O29   S    
C59   C114  S    
C56   C115  S    
C43   H62   S    
C27   H52   S    
Cr12  O5    S    
C20   H25   S    
C46   H66   S    
C73   H105  S    
C63   C72   S    
C53   H73   S    
C82   H118  S    
C16   H87   S    
Cr8   O22   S    
C34   H30   S    
C31   C66   S    
C37   O15   A    
C22   H27   S    
C14   C18   S    
C4    O52   A    
C61   H84   S    
C10   C121  S    
Cr5   O41   S    
C70   C114  S    
C35   H46   S    
C22   C35   S    
C49   H80   S    
C101  H151  S    
Cr10  O47   S    
C76   H108  S    
C65   O22   A    
C111  H9    S    
Cr8   O44   S    
C123  O41   A    
C29   H58   S    
Cr5   O10   S    
C81   H36   S    
C36   H57   S    
C19   H139  S    
C67   O25   A    
Cr11  O48   S    
C62   C71   S    
C52   H75   S    
C35   H31   S    
C72   H104  S    
Cr10  O50   S    
C70   H39   S    
C13   C37   S    
C107  H20   S    
C104  H149  S    
C105  H18   S    
C16   C24   S    
Cr11  O13   S    
C9    O6    A    
C74   H133  S    
C26   C43   S    
Cr6   O23   S    
C11   O8    A    
C28   C45   S    
Cr8   O9    S    
C101  C119  S    
C48   O20   A    
C24   C25   S    
Cr3   O3    S    
C104  C121  S    
C62   H94   S    
C77   C95   S    
C111  C120  S    
C7    O51   A    
C73   H101  S    
C93   H112  S    
Cr11  O26   S    
C32   C41   S    
C87   C96   S    
C38   H61   S    
C68   O26   A    
C102  C104  S    
Cr1   O14   S    
C9    O37   A    
C77   C86   S    
C13   C15   S    
C11   O39   A    
C109  H12   S    
C94   H113  S    
C54   C58   S    
C61   C69   S    
C88   C93   S    
C40   C81   S    
C21   C114  S    
C48   O16   A    
C111  H15   S    
Cr2   O10   S    
C92   H37   S    
C84   C124  S    
C6    C89   S    
C1    O18   A    
Cr5   O12   S    
C50   C55   S    
C51   C54   S    
C112  H8    S    
C55   H71   S    
C72   C89   S    
C12   H89   S    
C113  O31   A    
C3    O48   A    
C39   C70   S    
C75   H107  S    
C43   C56   S    
C41   C92   S    
C100  C118  S    
C8    C119  S    
C44   H63   S    
C100  H146  S    
C12   H1    S    
C27   H53   S    
C52   C56   S    
C10   O7    A    
C26   H48   S    
