data_str_m3_o5_o27_f0_pcu.sym.17
_audit_creation_date              2012-12-10T20:50:09-0500
_audit_creation_method            fapswitch 2.2
_symmetry_space_group_name_H-M    P1
_symmetry_Int_Tables_number       1
_space_group_crystal_system       triclinic
_cell_length_a                    19.283488
_cell_length_b                    8.919453
_cell_length_c                    8.087767
_cell_angle_alpha                 90.000216
_cell_angle_beta                  90.00029
_cell_angle_gamma                 89.99995
_cell_volume                      1391.08108205

loop_
_atom_site_label
_atom_site_type_symbol
_atom_type_description
_atom_site_fract_x
_atom_site_fract_y
_atom_site_fract_z
_atom_type_partial_charge
C1    C     C_R   0.500000 0.217954 0.500000 1.007898
C2    C     C_R   0.252334 0.592746 0.387195 0.406434
C3    C     C_R   0.180264 0.412158 0.613839 -0.187550
C4    C     C_R   0.819736 0.412162 0.386155 -0.187548
C5    C     C_R   0.819736 0.587841 0.613845 -0.187548
C6    C     C_R   0.180264 0.587843 0.386157 -0.187551
C7    C     C_R   0.144650 0.500001 0.499998 -0.069569
C8    C     C_R   0.855350 0.500002 0.500000 -0.069569
C9    C     C_R   0.289304 0.500000 0.499999 -0.311105
C10   C     C_R   0.710696 0.500000 0.500001 -0.311098
C11   C     C_R   0.930328 0.500003 0.499999 0.347837
C12   C     C_R   0.500000 0.782045 0.500000 1.007899
C13   C     C_R   0.069672 0.500002 0.499999 0.347837
C14   C     C_R   0.365092 0.500000 0.500000 1.014450
C15   C     C_R   0.634908 0.500000 0.500000 1.014432
C16   C     C_1   0.500000 0.065190 0.500000 -0.138399
C17   C     C_1   0.500000 0.934810 0.500000 -0.138399
C18   C     C_R   0.252334 0.407254 0.612802 0.406434
C19   C     C_R   0.747666 0.407258 0.387193 0.406437
C20   C     C_R   0.747666 0.592743 0.612809 0.406436
H1    H     H_    0.151305 0.343427 0.699993 0.207601
H2    H     H_    0.848695 0.343434 0.299999 0.207600
H3    H     H_    0.848695 0.656570 0.700002 0.207600
H4    H     H_    0.151305 0.656575 0.300004 0.207602
H5    H     H_    0.370495 0.103396 0.721263 0.389077
H6    H     H_    0.629483 0.103443 0.278700 0.389062
H7    H     H_    0.629481 0.896550 0.721313 0.389063
H8    H     H_    0.370494 0.896609 0.278737 0.389070
N1    N     N_1   0.500000 0.500000 0.073640 0.033815
N2    N     N_1   0.500000 0.500000 0.926360 0.033815
N3    N     N_R   0.034392 0.500443 0.355202 -0.138732
N4    N     N_R   0.965608 0.500438 0.644797 -0.138731
N5    N     N_R   0.965607 0.499567 0.355202 -0.138731
N6    N     N_R   0.034393 0.499562 0.644796 -0.138732
O1    O     O_R   0.500000 0.285350 0.636850 -0.615798
O2    O     O_2   0.240291 0.170378 0.818869 -0.250481
O3    O     O_3   0.351855 0.176744 0.640745 -0.572023
O4    O     O_2   0.671803 0.358447 0.113942 -0.243119
O5    O     O_2   0.759710 0.170388 0.181117 -0.250457
O6    O     O_3   0.648146 0.176747 0.359242 -0.571992
O7    O     O_2   0.671804 0.641546 0.886061 -0.243121
O8    O     O_2   0.759709 0.829609 0.818891 -0.250457
O9    O     O_3   0.648145 0.823251 0.640767 -0.571992
O10   O     O_2   0.328198 0.641565 0.113948 -0.243105
O11   O     O_2   0.240291 0.829622 0.181129 -0.250483
O12   O     O_R   0.500000 0.714650 0.363150 -0.615799
O13   O     O_3   0.351854 0.823256 0.359257 -0.572012
O14   O     O_R   0.500000 0.714650 0.636850 -0.615826
O15   O     O_R   0.500000 0.285350 0.363150 -0.615826
O16   O     O_R   0.398140 0.500000 0.636920 -0.572913
O17   O     O_R   0.601860 0.500000 0.363080 -0.572919
O18   O     O_R   0.601860 0.500000 0.636920 -0.572917
O19   O     O_R   0.398140 0.500000 0.363080 -0.572913
O20   O     O_2   0.328197 0.358436 0.886053 -0.243106
S1    S     S_3+6 0.292962 0.276377 0.747188 0.071028
S2    S     S_3+6 0.707039 0.276384 0.252803 0.071040
S3    S     S_3+6 0.707039 0.723613 0.747203 0.071038
S4    S     S_3+6 0.292962 0.723623 0.252811 0.071030
Zn1   Zn    Zn3+2 0.500000 0.500000 0.682780 1.127994
Zn2   Zn    Zn3+2 0.500000 0.500000 0.317220 1.127994

loop_
_geom_bond_atom_site_label_1
_geom_bond_atom_site_label_2
_ccdc_geom_bond_type
C12   C17   S    
C19   S2    S    
C5    C8    A    
C9    C14   S    
C2    S4    S    
H8    O13   S    
N4    N6    A    
C6    C7    A    
O18   Zn1   S    
C15   O17   A    
C4    H2    S    
O10   S4    D    
O5    S2    D    
C5    H3    S    
N1    Zn2   S    
C12   O14   A    
C10   C19   A    
C4    C8    A    
C6    H4    S    
N2    Zn1   S    
N3    N5    A    
O7    S3    D    
C13   N6    A    
C5    C20   A    
C2    C6    A    
C15   O18   A    
O13   S4    S    
C4    C19   A    
H6    O6    S    
N1    N2    T    
O15   Zn2   S    
C18   S1    S    
O14   Zn1   S    
C8    C11   S    
O16   Zn1   S    
O8    S3    D    
O1    Zn1   S    
O19   Zn2   S    
C11   N4    A    
C3    C7    A    
C10   C15   S    
O2    S1    D    
O11   S4    D    
C3    H1    S    
C14   O16   A    
O3    S1    S    
H7    O9    S    
C9    C18   A    
C7    C13   S    
C14   O19   A    
O4    S2    D    
C1    O1    A    
C3    C18   A    
C12   O12   A    
C11   N5    A    
C1    C16   S    
O9    S3    S    
O20   S1    D    
O17   Zn2   S    
O12   Zn2   S    
C20   S3    S    
C2    C9    A    
C1    O15   A    
C13   N3    A    
C10   C20   A    
C16   C17   T    
O6    S2    S    
H5    O3    S    
