data_str_m9_o16_o22_f0_sra.sym.31
_audit_creation_date              2012-12-11T15:11:44-0500
_audit_creation_method            fapswitch 2.2
_symmetry_space_group_name_H-M    P1
_symmetry_Int_Tables_number       1
_space_group_crystal_system       monoclinic
_cell_length_a                    20.225385
_cell_length_b                    7.098505
_cell_length_c                    13.559312
_cell_angle_alpha                 90.0
_cell_angle_beta                  103.594138
_cell_angle_gamma                 90.0
_cell_volume                      1892.17338933

loop_
_atom_site_label
_atom_site_type_symbol
_atom_type_description
_atom_site_fract_x
_atom_site_fract_y
_atom_site_fract_z
_atom_type_partial_charge
O1    O     O_R   0.449830 0.506740 0.599960 -0.535683
O2    O     O_R   0.550170 0.006740 0.400040 -0.535682
O3    O     O_R   0.588980 0.179860 0.596720 -0.544171
O4    O     O_R   0.411020 0.679860 0.403280 -0.544171
C1    C     C_R   0.616379 0.345181 0.618823 0.777358
C2    C     C_R   0.383621 0.845181 0.381177 0.777358
O5    O     O_R   0.452740 0.177340 0.612040 -0.543494
O6    O     O_R   0.547260 0.677340 0.387960 -0.543494
O7    O     O_R   0.412960 0.002070 0.415460 -0.519852
O8    O     O_R   0.587040 0.502070 0.584540 -0.519852
C3    C     C_R   0.436286 0.346268 0.638000 0.800161
C4    C     C_R   0.563714 0.846268 0.362000 0.800161
O9    O     O_3   0.487110 0.337570 0.435490 -0.374779
O10   O     O_3   0.512890 0.837570 0.564510 -0.374780
V1    V     V_3+5 0.502390 0.064650 0.511970 1.581050
V2    V     V_3+5 0.497610 0.564650 0.488030 1.581051
C5    C     C_R   0.611491 0.963924 0.119073 -0.126410
C6    C     C_R   0.388509 0.463924 0.880927 -0.126411
H1    H     H_    0.586072 0.012053 0.043878 0.216102
H2    H     H_    0.413928 0.512053 0.956122 0.216102
C7    C     C_R   0.603104 0.860891 0.284893 -0.204992
C8    C     C_R   0.396896 0.360891 0.715107 -0.204991
C9    C     C_R   0.928563 0.781664 0.313185 0.288599
C10   C     C_R   0.071437 0.281665 0.686815 0.288599
C11   C     C_R   0.894517 0.776654 0.390896 -0.132853
C12   C     C_R   0.105483 0.276655 0.609104 -0.132853
C13   C     C_R   0.826108 0.824314 0.373142 0.620850
C14   C     C_R   0.173892 0.324315 0.626858 0.620851
C15   C     C_R   0.788289 0.866789 0.273391 -0.060018
C16   C     C_R   0.211711 0.366790 0.726610 -0.060017
C17   C     C_R   0.825382 0.894155 0.196641 -0.142483
C18   C     C_R   0.174618 0.394155 0.803359 -0.142483
C19   C     C_R   0.715506 0.882489 0.246461 0.037259
C20   C     C_R   0.284494 0.382489 0.753539 0.037259
C21   C     C_R   0.682553 0.941885 0.146854 -0.088556
C22   C     C_R   0.317447 0.441885 0.853146 -0.088556
C23   C     C_R   0.720377 0.976328 0.075036 0.687907
C24   C     C_R   0.279623 0.476328 0.924964 0.687907
C25   C     C_R   0.790520 0.953254 0.099426 -0.141980
C26   C     C_R   0.209480 0.453254 0.900574 -0.141979
C27   C     C_R   0.673561 0.833682 0.312828 -0.205155
C28   C     C_R   0.326439 0.333682 0.687172 -0.205156
C29   C     C_R   0.572247 0.927815 0.188361 0.597039
C30   C     C_R   0.427753 0.427815 0.811639 0.597039
C31   C     C_R   0.896247 0.853855 0.217436 -0.143645
C32   C     C_R   0.103753 0.353856 0.782564 -0.143645
H3    H     H_    0.693306 0.773150 0.386492 0.235152
H4    H     H_    0.306694 0.273151 0.613508 0.235152
H5    H     H_    0.921358 0.733760 0.466385 0.232637
H6    H     H_    0.078642 0.233762 0.533614 0.232637
H7    H     H_    0.817103 0.976344 0.039967 0.137011
H8    H     H_    0.182897 0.476345 0.960033 0.137011
C33   C     C_3   0.232653 0.713476 0.154413 -0.383952
C34   C     C_3   0.767347 0.213475 0.845586 -0.383952
H9    H     H_    0.211754 0.570007 0.160179 0.284279
H10   H     H_    0.788246 0.070007 0.839820 0.284279
H11   H     H_    0.232054 0.735276 0.073278 0.225152
H12   H     H_    0.767946 0.235275 0.926722 0.225152
C35   C     C_3   0.306803 0.722169 0.219381 -0.315459
C36   C     C_3   0.693197 0.222169 0.780619 -0.315459
H13   H     H_    0.341209 0.772835 0.171930 0.235764
H14   H     H_    0.658791 0.272835 0.828070 0.235764
H15   H     H_    0.323350 0.577084 0.244816 0.248457
H16   H     H_    0.676649 0.077084 0.755183 0.248457
H17   H     H_    0.268246 0.642838 0.393671 0.240950
H18   H     H_    0.731753 0.142839 0.606329 0.240949
C37   C     C_3   0.184974 0.811073 0.301255 0.918346
C38   C     C_3   0.815026 0.311073 0.698745 0.918346
C39   C     C_3   0.224628 0.060686 0.190428 0.807257
C40   C     C_3   0.775372 0.560685 0.809573 0.807258
C41   C     C_3   0.187470 0.864123 0.189773 -0.294023
C42   C     C_3   0.812530 0.364123 0.810227 -0.294023
C43   C     C_3   0.312452 0.855784 0.311996 -0.259622
C44   C     C_3   0.687548 0.355784 0.688004 -0.259623
C45   C     C_3   0.258453 0.792086 0.369629 -0.339922
C46   C     C_3   0.741547 0.292086 0.630371 -0.339922
C47   C     C_3   0.294345 0.059825 0.270048 0.193468
C48   C     C_3   0.705655 0.559825 0.729952 0.193469
H19   H     H_    0.335201 0.107977 0.233468 0.145329
H20   H     H_    0.664799 0.607977 0.766532 0.145329
H21   H     H_    0.264101 0.874222 0.440951 0.191516
H22   H     H_    0.735899 0.374222 0.559049 0.191517
O11   O     O_R   0.912980 0.203550 0.915410 -0.534801
O12   O     O_R   0.087020 0.703550 0.084590 -0.534801
O13   O     O_R   0.047270 0.535570 0.887960 -0.553093
O14   O     O_R   0.952730 0.035570 0.112040 -0.553093
C49   C     C_R   0.064779 0.367485 0.862295 0.782202
C50   C     C_R   0.935221 0.867485 0.137705 0.782202
O15   O     O_R   0.911030 0.532970 0.903270 -0.497142
O16   O     O_R   0.088970 0.032970 0.096730 -0.497142
O17   O     O_R   0.949820 0.708150 0.099970 -0.526528
O18   O     O_R   0.050180 0.208150 0.900030 -0.526528
C51   C     C_R   0.883822 0.365738 0.881320 0.808866
C52   C     C_R   0.116177 0.865738 0.118680 0.808865
O19   O     O_3   0.012900 0.375230 0.064480 -0.362880
O20   O     O_3   0.987100 0.875230 0.935520 -0.362880
V3    V     V_3+5 0.997610 0.648190 0.988040 1.714653
V4    V     V_3+5 0.002390 0.148190 0.011960 1.714653
F1    F     F_    0.504076 0.958215 0.161355 -0.674993
F2    F     F_    0.495924 0.458214 0.838645 -0.674993
F3    F     F_    0.152148 0.639517 0.300911 -0.560528
F4    F     F_    0.847852 0.139518 0.699089 -0.560528
F5    F     F_    0.184478 0.206560 0.211811 -0.562936
F6    F     F_    0.815522 0.706559 0.788189 -0.562937
Cl1   Cl    Cl    0.238560 0.113087 0.067319 -0.676514
Cl2   Cl    Cl    0.761440 0.613086 0.932681 -0.676514
Cl3   Cl    Cl    0.294176 0.228695 0.369858 -0.530926
Cl4   Cl    Cl    0.705824 0.728695 0.630142 -0.530926
Cl5   Cl    Cl    0.138369 0.981684 0.355755 -0.413223
Cl6   Cl    Cl    0.861631 0.481685 0.644245 -0.413222
F7    F     F_    0.688405 0.021614 0.978491 -0.690816
F8    F     F_    0.311595 0.521614 0.021509 -0.690816
Cl7   Cl    Cl    0.011455 0.690384 0.338806 -0.459426
Cl8   Cl    Cl    0.988545 0.190385 0.661194 -0.459426
F9    F     F_    0.799693 0.835910 0.455919 -0.606511
F10   F     F_    0.200307 0.335912 0.544081 -0.606511

loop_
_geom_bond_atom_site_label_1
_geom_bond_atom_site_label_2
_ccdc_geom_bond_type
C25   H7    S    
C10   Cl8   S    
C9    C31   A    
C40   C48   S    
C30   F2    S    
C39   C47   S    
O1    C3    A    
O2    C4    A    
C2    O7    A    
C33   C35   S    
O19   V4    S    
O18   V4    S    
C41   C52   S    
C34   C36   S    
O5    C3    A    
C44   C46   S    
O12   V3    S    
C36   H14   S    
C21   C23   A    
C38   F4    S    
C12   H6    S    
O14   C50   A    
C37   C41   S    
C13   C15   A    
O11   C51   A    
C15   C19   A    
C48   Cl4   S    
C36   C44   S    
C1    C44   S    
C39   C41   S    
C38   Cl6   S    
C14   F10   S    
C5    H1    S    
C7    C29   A    
C37   Cl5   S    
C8    C30   A    
C20   C28   A    
O11   V4    S    
O20   V4    S    
C16   C18   A    
C35   C43   S    
C6    H2    S    
O6    C4    A    
O13   C49   A    
O6    V2    S    
C49   O18   A    
C43   C45   S    
C12   C14   A    
O16   C52   A    
C33   H9    S    
C34   H10   S    
C35   H13   S    
C16   C20   A    
C47   Cl3   S    
C31   C50   S    
C47   H19   S    
O4    C2    A    
C40   Cl2   S    
C46   H22   S    
C39   Cl1   S    
C45   H21   S    
C28   H4    S    
C26   H8    S    
C4    C7    S    
O15   V3    S    
O4    V2    S    
C5    C29   A    
C6    C30   A    
C9    Cl7   S    
C50   O17   A    
C38   C42   S    
H18   C46   S    
O20   V3    S    
C27   H3    S    
C48   H20   S    
O1    V2    S    
O12   C52   A    
C38   C46   S    
O17   V3    S    
O2    V1    S    
C7    C27   A    
C42   C51   S    
C17   C31   A    
C37   C45   S    
C24   F8    S    
C33   C41   S    
O3    V1    S    
C37   F3    S    
C2    C43   S    
C32   C49   S    
C34   H12   S    
C33   H11   S    
C40   F6    S    
C18   C32   A    
C10   C12   A    
O3    C1    A    
O19   V3    S    
C11   C13   A    
C3    C8    S    
C35   H15   S    
H17   C45   S    
C36   H16   S    
C19   C27   A    
C22   C24   A    
O7    V1    S    
C10   C32   A    
C14   C16   A    
C23   C25   A    
O8    V2    S    
C29   F1    S    
C24   C26   A    
C39   F5    S    
C8    C28   A    
O5    V1    S    
C19   C21   A    
C17   C25   A    
C20   C22   A    
C18   C26   A    
O15   C51   A    
O14   V4    S    
C11   H5    S    
C23   F7    S    
O13   V3    S    
C1    O8    A    
C9    C11   A    
C34   C42   S    
C15   C17   A    
C44   C48   S    
O9    V2    S    
C43   C47   S    
O10   V1    S    
C40   C42   S    
C5    C21   A    
C6    C22   A    
O16   V4    S    
C13   F9    S    
