data_str_m9_o18_o24_f0_sra.sym.67
_audit_creation_date              2012-12-11T15:31:40-0500
_audit_creation_method            fapswitch 2.2
_symmetry_space_group_name_H-M    P1
_symmetry_Int_Tables_number       1
_space_group_crystal_system       triclinic
_cell_length_a                    6.942253
_cell_length_b                    14.75368
_cell_length_c                    21.309169
_cell_angle_alpha                 75.178717
_cell_angle_beta                  90.247476
_cell_angle_gamma                 90.597257
_cell_volume                      2109.83052807

loop_
_atom_site_label
_atom_site_type_symbol
_atom_type_description
_atom_site_fract_x
_atom_site_fract_y
_atom_site_fract_z
_atom_type_partial_charge
O1    O     O_R   0.648150 0.130050 0.214300 -0.538962
O2    O     O_R   0.351850 0.869950 0.785700 -0.538054
O3    O     O_R   0.320490 0.006660 0.340150 -0.548934
O4    O     O_R   0.679510 0.993340 0.659850 -0.544221
O5    O     O_R   0.146100 0.869940 0.285700 -0.541496
O6    O     O_R   0.853900 0.130060 0.714300 -0.535582
C1    C     C_R   0.489180 0.001586 0.367150 0.658194
C2    C     C_R   0.510820 0.998418 0.632849 0.677682
O7    O     O_R   0.318690 0.137980 0.218120 -0.538010
O8    O     O_R   0.681310 0.862020 0.781880 -0.540503
O9    O     O_R   0.144280 0.002190 0.162800 -0.524865
O10   O     O_R   0.855720 0.997810 0.837200 -0.542762
C3    C     C_R   0.488174 0.175374 0.205848 0.785640
C4    C     C_R   0.511956 0.824651 0.794342 0.682385
O11   O     O_R   0.649960 0.997790 0.337200 -0.546137
O12   O     O_R   0.350040 0.002210 0.662800 -0.541219
O13   O     O_3   0.479300 0.955290 0.231990 -0.361799
O14   O     O_3   0.520700 0.044710 0.768010 -0.369413
V1    V     V_3+5 0.206040 0.008290 0.253340 1.452436
V2    V     V_3+5 0.793960 0.991710 0.746660 1.429585
O15   O     O_R   0.814320 0.993320 0.159850 -0.536193
O16   O     O_R   0.185680 0.006680 0.840150 -0.545907
C5    C     C_R   0.982899 0.998154 0.132874 0.704319
C6    C     C_R   0.017094 0.001515 0.867174 0.690552
O17   O     O_R   0.816120 0.862000 0.281880 -0.538254
O18   O     O_R   0.183880 0.138000 0.718120 -0.541117
C7    C     C_R   0.984027 0.824427 0.294563 0.690049
C8    C     C_R   0.016004 0.175606 0.705564 0.697882
V3    V     V_3+5 0.705540 0.991700 0.246660 1.467275
V4    V     V_3+5 0.294460 0.008300 0.753340 1.422344
O19   O     O_3   0.982150 0.044700 0.268010 -0.380127
O20   O     O_3   0.017850 0.955300 0.731990 -0.369948
C9    C     C_R   0.988831 0.722976 0.322304 -0.049428
C10   C     C_R   0.011565 0.277109 0.677965 -0.046352
C11   C     C_R   0.953263 0.565920 0.309433 -0.129439
C12   C     C_R   0.052043 0.434015 0.690722 -0.109245
C13   C     C_R   0.962615 0.662261 0.282384 -0.118569
C14   C     C_R   0.042688 0.337669 0.717746 -0.110410
C15   C     C_R   0.006568 0.687326 0.389554 -0.213611
C16   C     C_R   0.990733 0.312909 0.610832 -0.215476
C17   C     C_R   0.995443 0.589534 0.418615 0.086459
C18   C     C_R   0.004024 0.410629 0.581714 0.083917
C19   C     C_R   0.967897 0.529214 0.376918 0.124117
C20   C     C_R   0.034369 0.470840 0.623334 0.125362
C21   C     C_R   0.008082 0.549837 0.487324 0.062408
C22   C     C_R   0.991287 0.450330 0.513006 0.063690
C23   C     C_R   0.963720 0.393877 0.469111 -0.188725
C24   C     C_R   0.037098 0.606236 0.531176 -0.189726
C25   C     C_R   0.953018 0.432692 0.402658 -0.202502
C26   C     C_R   0.049584 0.567352 0.597585 -0.196522
H1    H     H_    0.931626 0.386401 0.371000 0.119831
H2    H     H_    0.072959 0.613563 0.629188 0.120881
H3    H     H_    0.969094 0.262139 0.582998 0.091420
H4    H     H_    0.024087 0.738227 0.417501 0.090888
H5    H     H_    0.060942 0.310230 0.769656 0.110666
H6    H     H_    0.947800 0.689619 0.230349 0.136778
H7    H     H_    0.931902 0.519968 0.277560 0.130352
H8    H     H_    0.076163 0.479862 0.722508 0.120144
H9    H     H_    0.949745 0.318747 0.484304 0.116457
H10   H     H_    0.052313 0.681314 0.515936 0.116770
C27   C     C_3   0.820224 0.997263 0.976970 -0.109755
C28   C     C_3   0.179551 0.001920 0.023120 -0.098546
C29   C     C_3   0.909567 0.921026 0.033107 -0.127348
C30   C     C_3   0.090229 0.078198 0.967010 -0.136155
H11   H     H_    0.834937 0.856225 0.060687 0.133365
H12   H     H_    0.164917 0.142999 0.939461 0.108112
H13   H     H_    0.671718 0.995353 0.957749 0.109953
H14   H     H_    0.328206 0.003373 0.042287 0.149638
C31   C     C_3   0.992240 0.998475 0.062294 -0.019947
C32   C     C_3   0.007590 0.000789 0.937805 -0.019936
C33   C     C_3   0.902946 0.074710 0.006965 -0.126420
C34   C     C_3   0.096791 0.924510 0.993118 -0.142380
H15   H     H_    0.822711 0.136590 0.013093 0.125854
H16   H     H_    0.176984 0.862629 0.986968 0.115908
C35   C     C_3   0.681042 0.994540 0.479311 -0.119903
C36   C     C_3   0.318959 0.005470 0.520686 -0.119518
C37   C     C_3   0.603685 0.073439 0.508094 -0.136992
C38   C     C_3   0.396316 0.926571 0.491903 -0.135466
H17   H     H_    0.689168 0.134047 0.515250 0.097667
H18   H     H_    0.310832 0.865963 0.484747 0.097563
H19   H     H_    0.830453 0.990084 0.462031 0.106663
H20   H     H_    0.169548 0.009925 0.537965 0.107539
C39   C     C_3   0.502750 0.999007 0.562248 -0.005676
C40   C     C_3   0.497251 0.001003 0.437749 0.000042
C41   C     C_3   0.580149 0.920124 0.534278 -0.143064
C42   C     C_3   0.419852 0.079886 0.465718 -0.144503
H21   H     H_    0.645952 0.854175 0.563010 0.103373
H22   H     H_    0.354055 0.145836 0.436983 0.100300
C43   C     C_R   0.499522 0.276106 0.176037 -0.058471
C44   C     C_R   0.502150 0.723969 0.824530 -0.096357
C45   C     C_R   0.528482 0.432054 0.191121 -0.128447
C46   C     C_R   0.462668 0.567298 0.811309 -0.114019
C47   C     C_R   0.532815 0.335606 0.216211 -0.251458
C48   C     C_R   0.449389 0.663749 0.786375 -0.194620
C49   C     C_R   0.470265 0.313229 0.108750 -0.039791
C50   C     C_R   0.553092 0.687561 0.890267 -0.067708
C51   C     C_R   0.502702 0.411191 0.081106 -0.008832
C52   C     C_R   0.526039 0.589770 0.919024 0.067714
C53   C     C_R   0.512101 0.471756 0.123740 0.101017
C54   C     C_R   0.511241 0.529135 0.876934 0.096766
C55   C     C_R   0.522046 0.451405 0.012713 0.036282
C56   C     C_R   0.511363 0.549917 0.987467 0.093224
C57   C     C_R   0.474292 0.605247 0.030815 -0.179907
C58   C     C_R   0.562451 0.396575 0.969125 -0.289001
C59   C     C_R   0.492857 0.569748 0.097761 -0.011777
C60   C     C_R   0.545935 0.432420 0.902066 -0.017362
H23   H     H_    0.409643 0.691602 0.735914 0.110798
H24   H     H_    0.550444 0.307164 0.268082 0.108519
H25   H     H_    0.537170 0.473936 0.225717 0.176222
H26   H     H_    0.429161 0.523319 0.779140 0.161230
H27   H     H_    0.435455 0.678063 0.012979 0.107554
H28   H     H_    0.609754 0.324993 0.986715 0.136690
C61   C     C_2   0.482907 0.639038 0.137433 0.341447
H29   H     H_    0.388169 0.698843 0.122392 0.046718
O21   O     O_2   0.588797 0.634494 0.183949 -0.548240
C62   C     C_2   0.578032 0.366257 0.861029 0.330386
H30   H     H_    0.551758 0.291806 0.881127 0.047059
O22   O     O_2   0.643677 0.392592 0.806249 -0.536204
C63   C     C_2   0.659002 0.749826 0.924109 0.341714
H31   H     H_    0.626503 0.823985 0.913680 0.031587
O23   O     O_2   0.788947 0.719231 0.962234 -0.529074
C64   C     C_2   0.375429 0.253600 0.070367 0.279669
H32   H     H_    0.272229 0.284630 0.032791 0.068749
O24   O     O_2   0.415200 0.170956 0.078659 -0.547422

loop_
_geom_bond_atom_site_label_1
_geom_bond_atom_site_label_2
_ccdc_geom_bond_type
C27   C32   S    
C29   H11   S    
C55   C56   A    
O11   V3    S    
C2    C39   S    
O13   V3    S    
C5    C31   S    
C50   C63   S    
O4    C2    A    
V1    O19   S    
C58   C60   A    
C6    C32   S    
C23   C25   A    
C21   C22   A    
C7    C9    S    
O9    V1    S    
C9    C15   A    
C10   C16   A    
C59   C61   S    
C11   C13   A    
C36   C38   S    
O3    C1    A    
C47   H24   S    
C38   H18   S    
C35   C40   S    
C15   H4    S    
C37   C39   S    
O12   V4    S    
C62   H30   S    
C57   H27   S    
C18   C22   A    
C30   C33   S    
C31   C33   S    
O7    C3    A    
C4    C44   S    
C28   C30   S    
O5    C7    A    
C13   H6    S    
O7    V1    S    
O6    C8    A    
C14   H5    S    
C29   C31   S    
O8    V2    S    
C25   H1    S    
C50   C52   A    
C26   H2    S    
O3    V1    S    
O14   V4    S    
C30   C32   S    
C11   C19   A    
O14   V2    S    
C24   H10   S    
C27   C33   S    
C41   H21   S    
C1    C40   S    
C8    C10   S    
C2    O12   A    
C17   C19   A    
C18   C20   A    
C36   C39   S    
O1    V3    S    
C51   C53   A    
C35   C41   S    
C44   C48   A    
C37   H17   S    
O17   V3    S    
C53   C59   A    
C48   H23   S    
C12   H8    S    
C34   H16   S    
O8    C4    A    
C36   H20   S    
C33   H15   S    
C19   C25   A    
C1    O11   A    
C52   C56   A    
O15   V3    S    
C9    C13   A    
C28   C31   S    
C60   C62   S    
C30   H12   S    
C43   C49   A    
C45   C47   A    
C27   H13   S    
O10   V2    S    
C46   C48   A    
C28   C34   S    
C57   C59   A    
C24   C26   A    
C35   C37   S    
C63   O23   D    
C38   C41   S    
C39   C41   S    
C37   C42   S    
O18   V4    S    
C55   C58   A    
C52   C54   A    
O15   C5    A    
O16   C6    A    
C12   C20   A    
O1    C3    A    
O2    V4    S    
C64   O24   D    
C36   C42   S    
C46   C54   A    
C58   H28   S    
C61   H29   S    
V2    O20   S    
C21   C24   A    
C20   C26   A    
C22   C23   A    
O16   V4    S    
C3    C43   S    
C10   C14   A    
O18   C8    A    
C27   C29   S    
C35   H19   S    
C40   C42   S    
C16   C18   A    
C63   H31   S    
C49   C51   A    
C44   C50   A    
O5    V1    S    
O17   C7    A    
O6    V2    S    
O10   C6    A    
C54   C60   A    
C28   H14   S    
C11   H7    S    
C49   C64   S    
C45   H25   S    
C12   C14   A    
V3    O19   S    
V4    O20   S    
C46   H26   S    
O9    C5    A    
O13   V1    S    
C62   O22   D    
C42   H22   S    
C43   C47   A    
C56   C57   A    
O2    C4    A    
C23   H9    S    
O4    V2    S    
C38   C40   S    
C29   C34   S    
C15   C17   A    
C16   H3    S    
C17   C21   A    
C32   C34   S    
C45   C53   A    
C64   H32   S    
C51   C55   A    
C61   O21   D    
