data_str_m4_o17_o17_f0_acs.sym.25
_audit_creation_date              2012-12-11T14:30:11-0500
_audit_creation_method            fapswitch 2.2
_symmetry_space_group_name_H-M    P1
_symmetry_Int_Tables_number       1
_space_group_crystal_system       triclinic
_cell_length_a                    12.613086
_cell_length_b                    12.613111
_cell_length_c                    27.136687
_cell_angle_alpha                 90.000041
_cell_angle_beta                  89.999595
_cell_angle_gamma                 120.000237
_cell_volume                      3738.78072063

loop_
_atom_site_label
_atom_site_type_symbol
_atom_type_description
_atom_site_fract_x
_atom_site_fract_y
_atom_site_fract_z
_atom_type_partial_charge
C1    C     C_R   0.557458 0.456065 0.822257 0.564353
C2    C     C_R   0.456066 0.557460 0.177742 0.564364
C3    C     C_R   0.005514 0.314791 0.474518 -0.111189
C4    C     C_R   0.309301 0.994533 0.025487 -0.111183
C5    C     C_R   0.685202 0.690732 0.474519 -0.111186
C6    C     C_R   0.314766 0.005463 0.525488 -0.111183
C7    C     C_R   0.994496 0.309282 0.974517 -0.111186
C8    C     C_R   0.690704 0.685227 0.525485 -0.111185
C9    C     C_R   0.314802 0.005540 0.974522 -0.111187
C10   C     C_R   0.994511 0.309290 0.525484 -0.111185
C11   C     C_R   0.690707 0.685227 0.974514 -0.111184
C12   C     C_R   0.442539 0.898604 0.322258 0.564357
C13   C     C_R   0.101395 0.543935 0.177742 0.564355
C14   C     C_R   0.993881 0.502366 0.974136 0.030251
C15   C     C_R   0.508480 0.006106 0.525866 0.030250
C16   C     C_R   0.497627 0.491522 0.974134 0.030251
C17   C     C_R   0.993885 0.502368 0.525865 0.030250
C18   C     C_R   0.508490 0.006132 0.974137 0.030252
C19   C     C_R   0.497628 0.491519 0.525866 0.030251
C20   C     C_R   0.502360 0.993870 0.474137 0.030251
C21   C     C_R   0.898607 0.442541 0.677742 0.564355
C22   C     C_R   0.006118 0.508485 0.025865 0.030250
C23   C     C_R   0.491511 0.497639 0.474137 0.030251
C24   C     C_R   0.502374 0.993896 0.025866 0.030251
C25   C     C_R   0.006119 0.508485 0.474136 0.030252
C26   C     C_R   0.491510 0.497641 0.025863 0.030251
C27   C     C_R   0.994064 0.694929 0.974435 -0.122027
C28   C     C_R   0.700874 0.005951 0.525564 -0.122031
C29   C     C_R   0.305067 0.299138 0.974435 -0.122035
C30   C     C_R   0.994059 0.694926 0.525565 -0.122033
C31   C     C_R   0.700857 0.005923 0.974432 -0.122034
C32   C     C_R   0.543934 0.101394 0.822258 0.564358
C33   C     C_R   0.305072 0.299131 0.525566 -0.122029
C34   C     C_R   0.694938 0.994083 0.474432 -0.122034
C35   C     C_R   0.005932 0.700862 0.025566 -0.122027
C36   C     C_R   0.299141 0.305066 0.474434 -0.122031
C37   C     C_R   0.694927 0.994059 0.025564 -0.122033
C38   C     C_R   0.005923 0.700858 0.474433 -0.122035
C39   C     C_R   0.299137 0.305072 0.025567 -0.122036
C40   C     C_R   0.969896 0.585579 0.896288 0.208928
C41   C     C_R   0.615691 0.030112 0.603711 0.208924
C42   C     C_R   0.414416 0.384318 0.896288 0.208923
C43   C     C_R   0.557459 0.456065 0.677742 0.564353
C44   C     C_R   0.969898 0.585581 0.603712 0.208925
C45   C     C_R   0.615672 0.030092 0.896286 0.208925
C46   C     C_R   0.414418 0.384315 0.603713 0.208928
C47   C     C_R   0.585580 0.969903 0.396287 0.208922
C48   C     C_R   0.030101 0.615681 0.103712 0.208929
C49   C     C_R   0.384323 0.414420 0.396288 0.208926
C50   C     C_R   0.585583 0.969898 0.103712 0.208923
C51   C     C_R   0.030095 0.615677 0.396287 0.208923
C52   C     C_R   0.384324 0.414421 0.103713 0.208924
C53   C     C_R   0.046031 0.525104 0.128147 0.006788
C54   C     C_R   0.898605 0.442540 0.822258 0.564350
C55   C     C_R   0.479068 0.953964 0.371853 0.006789
C56   C     C_R   0.474897 0.520931 0.128147 0.006791
C57   C     C_R   0.046028 0.525102 0.371852 0.006789
C58   C     C_R   0.479080 0.953977 0.128149 0.006786
C59   C     C_R   0.474895 0.520930 0.371853 0.006791
C60   C     C_R   0.525106 0.046026 0.628148 0.006783
C61   C     C_R   0.953968 0.479074 0.871853 0.006787
C62   C     C_R   0.520922 0.474896 0.628148 0.006784
C63   C     C_R   0.525102 0.046035 0.871853 0.006791
C64   C     C_R   0.953973 0.479077 0.628148 0.006785
C65   C     C_R   0.543935 0.101394 0.677742 0.564352
C66   C     C_R   0.520921 0.474897 0.871852 0.006788
C67   C     C_R   0.987214 0.595797 0.947941 0.031626
C68   C     C_R   0.608587 0.012788 0.552059 0.031628
C69   C     C_R   0.404198 0.391421 0.947940 0.031629
C70   C     C_R   0.987215 0.595798 0.552059 0.031627
C71   C     C_R   0.608578 0.012782 0.947940 0.031626
C72   C     C_R   0.404200 0.391417 0.552060 0.031626
C73   C     C_R   0.595798 0.987219 0.447940 0.031626
C74   C     C_R   0.012783 0.608581 0.052060 0.031625
C75   C     C_R   0.391420 0.404203 0.447941 0.031626
C76   C     C_R   0.456065 0.557460 0.322258 0.564361
C77   C     C_R   0.595801 0.987219 0.052059 0.031628
C78   C     C_R   0.012778 0.608578 0.447940 0.031626
C79   C     C_R   0.391419 0.404206 0.052059 0.031626
C80   C     C_R   0.970802 0.392734 0.898149 -0.142802
C81   C     C_R   0.421923 0.029173 0.601854 -0.142791
C82   C     C_R   0.607257 0.578075 0.898147 -0.142786
C83   C     C_R   0.970813 0.392740 0.601852 -0.142791
C84   C     C_R   0.421938 0.029219 0.898152 -0.142796
C85   C     C_R   0.607257 0.578075 0.601852 -0.142798
C86   C     C_R   0.392720 0.970781 0.398152 -0.142794
C87   C     C_R   0.442542 0.898607 0.177742 0.564353
C88   C     C_R   0.029199 0.421932 0.101850 -0.142801
C89   C     C_R   0.578063 0.607276 0.398151 -0.142796
C90   C     C_R   0.392748 0.970825 0.101853 -0.142787
C91   C     C_R   0.029199 0.421931 0.398150 -0.142795
C92   C     C_R   0.578064 0.607278 0.101848 -0.142793
C93   C     C_R   0.988244 0.402190 0.948751 0.005796
C94   C     C_R   0.413935 0.011729 0.551252 0.005799
C95   C     C_R   0.597800 0.586063 0.948748 0.005800
C96   C     C_R   0.988254 0.402196 0.551250 0.005798
C97   C     C_R   0.413956 0.011780 0.948754 0.005796
C98   C     C_R   0.101393 0.543934 0.322258 0.564354
C99   C     C_R   0.597800 0.586062 0.551251 0.005797
C100  C     C_R   0.402176 0.988220 0.448754 0.005797
C101  C     C_R   0.011756 0.413946 0.051249 0.005796
C102  C     C_R   0.586046 0.597820 0.448753 0.005796
C103  C     C_R   0.402204 0.988270 0.051252 0.005799
C104  C     C_R   0.011760 0.413948 0.448751 0.005797
C105  C     C_R   0.586048 0.597821 0.051247 0.005797
C106  C     C_R   0.005504 0.314786 0.025483 -0.111186
C107  C     C_R   0.309261 0.994457 0.474522 -0.111187
C108  C     C_R   0.685204 0.690732 0.025479 -0.111188
Cl1   Cl    Cl    0.031009 0.736947 0.137169 -0.571407
Cl2   Cl    Cl    0.736913 0.030960 0.862826 -0.571411
Cl3   Cl    Cl    0.968985 0.705938 0.637168 -0.571424
Cl4   Cl    Cl    0.294063 0.263042 0.862833 -0.571438
Cl5   Cl    Cl    0.705943 0.969006 0.362829 -0.571419
Cl6   Cl    Cl    0.263077 0.294051 0.137172 -0.571412
Cl7   Cl    Cl    0.030997 0.736941 0.362830 -0.571417
Cl8   Cl    Cl    0.705935 0.968968 0.137166 -0.571431
Cl9   Cl    Cl    0.263070 0.294054 0.362830 -0.571408
Cl10  Cl    Cl    0.736985 0.031058 0.637163 -0.571432
Cl11  Cl    Cl    0.968981 0.705936 0.862833 -0.571415
Cl12  Cl    Cl    0.294064 0.263036 0.637168 -0.571418
Cr1   Cr    Cr6+3 0.487630 0.241180 0.750000 1.164288
Cr2   Cr    Cr6+3 0.753550 0.512370 0.750000 1.164288
Cr3   Cr    Cr6+3 0.758820 0.246450 0.750000 1.164285
Cr4   Cr    Cr6+3 0.241180 0.487630 0.250000 1.164283
Cr5   Cr    Cr6+3 0.512370 0.753550 0.250000 1.164288
Cr6   Cr    Cr6+3 0.246450 0.758820 0.250000 1.164289
H1    H     H_    0.010911 0.779435 0.043814 0.167929
H2    H     H_    0.779424 0.010893 0.956183 0.167922
H3    H     H_    0.989077 0.768519 0.543812 0.167922
H4    H     H_    0.231473 0.220564 0.956188 0.167919
H5    H     H_    0.038012 0.350337 0.120194 0.196494
H6    H     H_    0.312307 0.961960 0.379809 0.196509
H7    H     H_    0.649657 0.687689 0.120192 0.196517
H8    H     H_    0.038012 0.350336 0.379806 0.196500
H9    H     H_    0.312345 0.962022 0.120199 0.196505
H10   H     H_    0.649655 0.687688 0.379807 0.196507
H11   H     H_    0.350322 0.037973 0.620200 0.196506
H12   H     H_    0.768537 0.989116 0.456183 0.167923
H13   H     H_    0.961990 0.312327 0.879805 0.196491
H14   H     H_    0.687661 0.649673 0.620197 0.196502
H15   H     H_    0.350347 0.038042 0.879809 0.196514
H16   H     H_    0.962006 0.312335 0.620196 0.196518
H17   H     H_    0.687663 0.649673 0.879802 0.196510
H18   H     H_    0.010312 0.241990 0.044725 0.135614
H19   H     H_    0.231652 0.989640 0.455281 0.135613
H20   H     H_    0.757999 0.768338 0.044721 0.135617
H21   H     H_    0.010325 0.241996 0.455276 0.135613
H22   H     H_    0.231702 0.989734 0.044731 0.135625
H23   H     H_    0.220566 0.231476 0.043815 0.167919
H24   H     H_    0.757995 0.768339 0.455278 0.135616
H25   H     H_    0.241965 0.010259 0.544731 0.135626
H26   H     H_    0.989689 0.231679 0.955275 0.135613
H27   H     H_    0.768304 0.758026 0.544728 0.135621
H28   H     H_    0.242009 0.010355 0.955281 0.135615
H29   H     H_    0.989709 0.231689 0.544727 0.135625
H30   H     H_    0.768308 0.758025 0.955271 0.135623
H31   H     H_    0.010896 0.779427 0.456186 0.167921
H32   H     H_    0.768519 0.989074 0.043810 0.167918
H33   H     H_    0.220572 0.231469 0.456186 0.167924
H34   H     H_    0.779453 0.010940 0.543809 0.167922
H35   H     H_    0.989086 0.768523 0.956188 0.167928
H36   H     H_    0.231481 0.220555 0.543813 0.167927
O1    O     O_R   0.460870 0.120930 0.805240 -0.490221
O2    O     O_R   0.120930 0.460870 0.194760 -0.490230
O3    O     O_R   0.539130 0.660060 0.305240 -0.490225
O4    O     O_R   0.339940 0.879070 0.194760 -0.490217
O5    O     O_R   0.498910 0.350470 0.801870 -0.440209
O6    O     O_R   0.851560 0.501090 0.698130 -0.440206
O7    O     O_R   0.649530 0.148440 0.801870 -0.440214
O8    O     O_R   0.498910 0.350470 0.698130 -0.440205
O9    O     O_R   0.851560 0.501090 0.801870 -0.440206
O10   O     O_R   0.649530 0.148440 0.698130 -0.440201
O11   O     O_R   0.350470 0.498910 0.301870 -0.440209
O12   O     O_R   0.660060 0.539130 0.694760 -0.490220
O13   O     O_R   0.501090 0.851560 0.198130 -0.440207
O14   O     O_R   0.148440 0.649530 0.301870 -0.440209
O15   O     O_R   0.350470 0.498910 0.198130 -0.440211
O16   O     O_R   0.501090 0.851560 0.301870 -0.440210
O17   O     O_R   0.148440 0.649530 0.198130 -0.440205
O18   O     O_3   0.666667 0.333333 0.750000 -0.312436
O19   O     O_3   0.333333 0.666667 0.250000 -0.312439
O20   O     O_R   0.879070 0.339940 0.805240 -0.490233
O21   O     O_R   0.460870 0.120930 0.694760 -0.490216
O22   O     O_R   0.660060 0.539130 0.805240 -0.490219
O23   O     O_R   0.879070 0.339940 0.694760 -0.490211
O24   O     O_R   0.120930 0.460870 0.305240 -0.490227
O25   O     O_R   0.539130 0.660060 0.194760 -0.490216
O26   O     O_R   0.339940 0.879070 0.305240 -0.490222

loop_
_geom_bond_atom_site_label_1
_geom_bond_atom_site_label_2
_ccdc_geom_bond_type
C3    C104  A    
C12   O16   A    
C32   O7    A    
C4    C103  A    
C35   C74   A    
C3    H21   S    
C90   H9    S    
C89   C102  A    
C45   C71   A    
Cr5   O3    S    
C92   H7    S    
C91   C104  A    
C86   H6    S    
C58   C87   S    
C15   C94   A    
C88   C101  A    
C44   C64   A    
Cr2   O18   S    
C22   C101  A    
C46   C62   A    
C18   C24   A    
C84   C97   A    
C76   O11   A    
C28   C68   A    
C8    C99   A    
Cr3   O20   S    
C107  H19   S    
C43   O12   A    
C87   O4    A    
C15   C68   A    
C61   C80   A    
C12   O26   A    
C32   O1    A    
C28   H34   S    
C33   C36   A    
C30   C38   A    
C59   C89   A    
C42   Cl4   S    
C2    O25   A    
C21   C64   S    
C33   C72   A    
C30   C70   A    
C1    O22   A    
C49   Cl9   S    
C6    C94   A    
C40   C67   A    
C6    C107  A    
C49   C75   A    
C44   C70   A    
C51   C57   A    
C18   C97   A    
C41   Cl10  S    
Cr1   O18   S    
C52   C79   A    
C86   C100  A    
C14   C93   A    
C13   C53   S    
Cr3   O10   S    
C36   H33   S    
Cr1   O21   S    
C21   O6    A    
C31   C71   A    
Cr1   O8    S    
C28   C34   A    
C17   C70   A    
C89   H10   S    
C19   C72   A    
C15   C20   A    
C31   H2    S    
Cr1   O5    S    
C26   C105  A    
C62   C85   A    
C43   O8    A    
C41   C68   A    
C29   C69   A    
C16   C26   A    
C48   C53   A    
C7    C93   A    
C105  C108  A    
Cr2   O6    S    
C65   O10   A    
Cr5   O19   S    
C25   C78   A    
C50   C58   A    
C48   C74   A    
Cr6   O17   S    
C42   C66   A    
C32   C63   S    
C19   C99   A    
C45   Cl2   S    
C82   H17   S    
Cr4   O11   S    
C38   C78   A    
C27   C35   A    
C81   H11   S    
C37   C77   A    
C45   C63   A    
C42   C69   A    
C51   Cl7   S    
C5    H24   S    
C31   C37   A    
C39   C79   A    
C37   H32   S    
Cr3   O23   S    
C19   C23   A    
C21   O23   A    
C64   C83   A    
C85   C99   A    
C36   C75   A    
C66   C82   A    
Cr1   O1    S    
C98   O14   A    
C60   C81   A    
C24   C77   A    
C29   H4    S    
C20   C100  A    
C10   C96   A    
C14   C67   A    
C29   C39   A    
C54   O20   A    
C1    C66   S    
C7    C106  A    
C46   Cl12  S    
C76   O3    A    
C17   C96   A    
C35   H1    S    
C8    H27   S    
C58   C90   A    
C85   H14   S    
C47   C73   A    
Cr4   O15   S    
Cr3   O7    S    
C11   H30   S    
C80   H13   S    
C6    H25   S    
C2    O15   A    
C60   C65   S    
C5    C8    A    
C22   C74   A    
Cr5   O13   S    
C50   C77   A    
C101  C106  A    
Cr6   O14   S    
Cr2   O22   S    
C13   O2    A    
C47   C55   A    
C65   O21   A    
C11   C95   A    
C18   C71   A    
C47   Cl5   S    
C5    C102  A    
C100  C107  A    
C9    C97   A    
C82   C95   A    
C57   C91   A    
C46   C72   A    
C54   O9    A    
C16   C69   A    
C41   C60   A    
C23   C75   A    
Cr3   O18   S    
Cr6   O4    S    
C10   H29   S    
C9    H28   S    
C83   H16   S    
C25   C104  A    
C106  H18   S    
C54   C61   S    
C52   Cl6   S    
C30   H3    S    
C87   O13   A    
C39   H23   S    
C26   C79   A    
C49   C59   A    
C63   C84   A    
Cr5   O25   S    
C24   C103  A    
C17   C25   A    
C38   H31   S    
C55   C86   A    
Cr6   O26   S    
C33   H36   S    
C80   C93   A    
C51   C78   A    
Cr4   O19   S    
C98   O24   A    
C108  H20   S    
Cr2   O12   S    
C27   H35   S    
Cr4   O24   S    
C81   C94   A    
C16   C95   A    
C14   C22   A    
C91   H8    S    
C84   H15   S    
C83   C96   A    
C13   O17   A    
C34   H12   S    
C20   C73   A    
C48   Cl1   S    
C53   C88   A    
C50   Cl8   S    
C57   C98   S    
C90   C103  A    
C12   C55   S    
C27   C67   A    
C40   C61   A    
C34   C73   A    
C7    H26   S    
C23   C102  A    
C44   Cl3   S    
C92   C105  A    
C56   C92   A    
C40   Cl11  S    
Cr5   O16   S    
Cr2   O9    S    
C11   C108  A    
C3    C10   A    
C1    O5    A    
Cr6   O19   S    
C2    C56   S    
C88   H5    S    
C4    C9    A    
C59   C76   S    
C52   C56   A    
C43   C62   S    
Cr4   O2    S    
C4    H22   S    
