data_str_m9_o11_o18_f0_sra.sym.70
_audit_creation_date              2013-03-05T15:42:08-0500
_audit_creation_method            fapswitch 2.2
_symmetry_space_group_name_H-M    P1
_symmetry_Int_Tables_number       1
_space_group_crystal_system       triclinic
_cell_length_a                    21.928246
_cell_length_b                    7.207459
_cell_length_c                    14.912479
_cell_angle_alpha                 90.155519
_cell_angle_beta                  106.627381
_cell_angle_gamma                 90.064847
_cell_volume                      2258.30841046

loop_
_atom_site_label
_atom_site_type_symbol
_atom_site_description
_atom_site_fract_x
_atom_site_fract_y
_atom_site_fract_z
_atom_type_partial_charge
O1    O     O_R   0.584770 0.505770 0.002090 -0.559926
O2    O     O_R   0.415230 0.005770 0.997910 -0.561022
O3    O     O_R   0.467060 0.173340 0.861950 -0.573894
O4    O     O_R   0.532940 0.673340 0.138050 -0.574865
C1    C     C_R   0.455043 0.343620 0.825926 0.870969
C2    C     C_R   0.545163 0.844109 0.174101 0.869017
O5    O     O_R   0.587510 0.175890 0.993210 -0.553352
O6    O     O_R   0.412490 0.675890 0.006790 -0.553915
O7    O     O_R   0.536540 0.008150 0.130100 -0.542545
O8    O     O_R   0.463460 0.508150 0.869900 -0.542970
C3    C     C_R   0.612442 0.345315 0.995096 0.800313
C4    C     C_R   0.387547 0.845202 0.004859 0.798515
O9    O     O_3   0.483140 0.340040 0.044760 -0.285651
O10   O     O_3   0.516860 0.840040 0.955240 -0.284088
V1    V     V_3+5 0.503130 0.064190 0.991700 1.152805
V2    V     V_3+5 0.496870 0.564190 0.008300 1.150765
C5    C     C_2   0.219243 0.751635 0.030752 -0.085061
C6    C     C_2   0.780703 0.250923 0.969592 -0.097140
C7    C     C_2   0.178174 0.882328 0.983552 0.268062
C8    C     C_2   0.821864 0.382218 0.016653 0.251982
H1    H     H_    0.204613 0.659035 0.078178 0.092566
H2    H     H_    0.795291 0.157453 0.922399 0.139610
C9    C     C_2   0.284207 0.721780 0.020348 -0.067338
C10   C     C_2   0.715709 0.221567 0.979955 -0.054224
C11   C     C_2   0.321959 0.864196 0.012329 -0.165536
C12   C     C_2   0.678029 0.364283 0.987605 -0.168858
H3    H     H_    0.302459 0.581007 0.026014 0.093909
H4    H     H_    0.697380 0.080713 0.974585 0.098341
H5    H     H_    0.304783 0.004697 0.014342 0.105009
H6    H     H_    0.695267 0.504717 0.985312 0.102860
C13   C     C_R   0.925047 0.884979 0.724807 -0.135065
C14   C     C_R   0.074984 0.392487 0.275383 -0.136083
C15   C     C_R   0.572720 0.846674 0.276069 -0.180365
C16   C     C_R   0.427216 0.345991 0.724170 -0.176346
C17   C     C_R   0.936478 0.882791 0.568577 -0.071248
C18   C     C_R   0.067357 0.458901 0.430407 -0.070803
C19   C     C_R   0.963660 0.880088 0.664946 -0.172823
C20   C     C_R   0.039852 0.454159 0.334280 -0.157691
C21   C     C_R   0.858144 0.888690 0.688344 0.298701
C22   C     C_R   0.139427 0.341734 0.312466 0.298438
C23   C     C_R   0.829919 0.869013 0.589922 -0.018999
C24   C     C_R   0.170717 0.375336 0.409240 -0.011786
C25   C     C_R   0.870172 0.879229 0.530698 0.041190
C26   C     C_R   0.132126 0.419365 0.468300 0.044666
C27   C     C_R   0.763414 0.837706 0.548124 0.048349
C28   C     C_R   0.238368 0.367760 0.449944 0.040173
C29   C     C_R   0.736221 0.861845 0.449927 0.050125
C30   C     C_R   0.264748 0.374952 0.549252 0.051374
C31   C     C_R   0.778497 0.878453 0.394298 -0.099194
C32   C     C_R   0.222438 0.387634 0.604766 -0.092829
C33   C     C_R   0.843998 0.882792 0.433928 -0.116377
C34   C     C_R   0.158091 0.419680 0.565064 -0.114381
C35   C     C_R   0.725127 0.760704 0.599660 -0.026559
C36   C     C_R   0.280838 0.365293 0.394824 -0.038380
C37   C     C_R   0.660753 0.729953 0.559763 -0.020042
C38   C     C_R   0.344945 0.328433 0.433773 0.012436
C39   C     C_R   0.630734 0.779916 0.466955 -0.073387
C40   C     C_R   0.370830 0.313161 0.530710 -0.064873
C41   C     C_R   0.668326 0.849440 0.410364 -0.056199
C42   C     C_R   0.332393 0.362161 0.589468 -0.067199
C43   C     C_R   0.564378 0.750314 0.427858 0.413986
C44   C     C_R   0.435352 0.261941 0.570274 0.416605
C45   C     C_R   0.537366 0.773831 0.331752 -0.165734
C46   C     C_R   0.461910 0.273169 0.667205 -0.178840
C47   C     C_R   0.636232 0.899871 0.316109 0.345347
C48   C     C_R   0.363908 0.401323 0.685289 0.345214
H7    H     H_    0.874508 0.888884 0.388228 0.070322
H8    H     H_    0.128029 0.440070 0.610686 0.069981
H9    H     H_    0.487760 0.738869 0.299972 0.132774
H10   H     H_    0.510278 0.226396 0.698583 0.134229
H11   H     H_    0.635339 0.660961 0.602456 0.145382
H12   H     H_    0.374519 0.320202 0.386992 0.153730
H13   H     H_    0.967416 0.885779 0.523436 0.075611
H14   H     H_    0.038232 0.497613 0.475203 0.073704
H15   H     H_    0.015044 0.880282 0.693061 0.070066
H16   H     H_    0.990330 0.492884 0.305810 0.069707
H17   H     H_    0.763073 0.871844 0.319164 0.139905
H18   H     H_    0.237369 0.371184 0.679543 0.137006
H19   H     H_    0.745197 0.709501 0.669852 0.130976
H20   H     H_    0.265839 0.393912 0.320947 0.136240
O11   O     O_R   0.036450 0.233070 0.130130 -0.526726
O12   O     O_R   0.963550 0.733070 0.869870 -0.545161
O13   O     O_R   0.912470 0.560570 0.006790 -0.559099
O14   O     O_R   0.087530 0.060570 0.993210 -0.551339
C49   C     C_R   0.887402 0.391850 0.005326 0.772600
C50   C     C_R   0.112616 0.891961 0.994771 0.787713
O15   O     O_R   0.032920 0.562940 0.138050 -0.564435
O16   O     O_R   0.967080 0.062940 0.861950 -0.559492
O17   O     O_R   0.084790 0.730500 0.002090 -0.576956
O18   O     O_R   0.915210 0.230500 0.997910 -0.569336
C51   C     C_R   0.045057 0.395091 0.174343 0.877923
C52   C     C_R   0.955073 0.894210 0.825692 0.884508
O19   O     O_3   0.016820 0.396170 0.955260 -0.292306
O20   O     O_3   0.983180 0.896170 0.044740 -0.286703
V3    V     V_3+5 0.996880 0.672090 0.008300 1.171164
V4    V     V_3+5 0.003120 0.172090 0.991700 1.185244
N1    N     N_R   0.820454 0.938410 0.749449 0.052828
O21   O     O_R   0.780724 0.076338 0.728018 -0.377021
O22   O     O_R   0.826369 0.848841 0.827140 -0.410452
N2    N     N_R   0.169480 0.237658 0.254508 0.060011
O23   O     O_R   0.172068 0.302817 0.174342 -0.409906
O24   O     O_R   0.193564 0.075226 0.281456 -0.372619
N3    N     N_R   0.523854 0.693077 0.483663 0.116665
O25   O     O_R   0.474041 0.590914 0.446454 -0.363808
O26   O     O_R   0.528659 0.772634 0.563848 -0.328519
N4    N     N_R   0.473529 0.189294 0.514173 0.120514
O27   O     O_R   0.534717 0.217863 0.539048 -0.327766
O28   O     O_R   0.449309 0.071755 0.446981 -0.346585
O29   O     O_3   0.191869 0.971396 0.908778 -0.679391
C53   C     C_3   0.189180 0.167103 0.915119 0.241839
H21   H     H_    0.235705 0.223174 0.911812 0.064419
H22   H     H_    0.182778 0.220246 0.982107 0.095696
C54   C     C_3   0.137467 0.241979 0.830780 -0.190921
H23   H     H_    0.145851 0.190198 0.765055 0.112161
H24   H     H_    0.090026 0.191415 0.832721 0.142242
C55   C     C_3   0.137272 0.453552 0.829391 -0.461819
H25   H     H_    0.128346 0.508057 0.894026 0.165154
H26   H     H_    0.098943 0.503554 0.768186 0.131841
H27   H     H_    0.183648 0.507283 0.824171 0.136574
O30   O     O_3   0.808229 0.472348 0.091370 -0.675300
C56   C     C_3   0.810826 0.667951 0.084782 0.247095
H28   H     H_    0.764247 0.723613 0.087920 0.063496
H29   H     H_    0.817319 0.720198 0.017813 0.092609
C57   C     C_3   0.862415 0.744371 0.169144 -0.191763
H30   H     H_    0.854207 0.691935 0.234742 0.110235
H31   H     H_    0.909946 0.695479 0.166928 0.143251
C58   C     C_3   0.862085 0.955919 0.171034 -0.460378
H32   H     H_    0.871183 0.010907 0.106729 0.166099
H33   H     H_    0.900087 0.006955 0.232624 0.133261
H34   H     H_    0.815480 0.008097 0.175937 0.136326
O31   O     O_3   0.666209 0.996769 0.261072 -0.674021
C59   C     C_3   0.665676 0.187512 0.282621 0.260761
H35   H     H_    0.677962 0.214310 0.359559 0.048694
H36   H     H_    0.617627 0.245559 0.248477 0.090636
C60   C     C_3   0.714963 0.286574 0.245546 -0.172781
H37   H     H_    0.763480 0.240739 0.285610 0.122058
H38   H     H_    0.707552 0.249320 0.171058 0.142863
C61   C     C_3   0.710190 0.496049 0.254626 -0.472325
H39   H     H_    0.663209 0.546260 0.211031 0.151467
H40   H     H_    0.748042 0.564431 0.230815 0.166138
H41   H     H_    0.716424 0.533764 0.328884 0.126045
O32   O     O_3   0.334403 0.497580 0.741452 -0.672999
C62   C     C_3   0.336066 0.689236 0.722200 0.262205
H42   H     H_    0.327126 0.719000 0.646042 0.049199
H43   H     H_    0.383484 0.746575 0.760741 0.096226
C63   C     C_3   0.284538 0.787574 0.754687 -0.179448
H44   H     H_    0.236886 0.742251 0.710652 0.122524
H45   H     H_    0.288800 0.749276 0.828123 0.145139
C64   C     C_3   0.290050 0.997354 0.747535 -0.467379
H46   H     H_    0.335938 0.047203 0.795023 0.151942
H47   H     H_    0.250637 0.065139 0.767751 0.163999
H48   H     H_    0.286981 0.036695 0.674482 0.130018

loop_
_geom_bond_atom_site_label_1
_geom_bond_atom_site_label_2
_geom_bond_distance
_ccdc_geom_bond_type
C40   C44   1.418022 A    
C62   C63   1.525436 S    
O16   V4    2.025458 S    
O4    V2    2.025535 S    
O15   C51   1.322544 A    
C60   C61   1.521870 S    
C35   C37   1.383359 A    
O1    C3    1.324258 A    
C7    C50   1.495747 S    
O2    C4    1.324233 A    
C16   C48   1.401542 A    
C2    O7    1.340859 A    
N1    O21   1.301438 A    
C15   C47   1.401724 A    
C60   H37   1.111781 S    
C29   C31   1.415026 A    
C20   H16   1.083922 S    
O5    C3    1.334288 A    
C5    C9    1.492221 S    
C6    C10   1.491767 S    
C43   N3    1.441051 S    
O14   C50   1.332026 A    
C54   H23   1.111310 S    
C64   H47   1.107155 S    
O14   V4    2.013017 S    
C39   C41   1.429105 A    
C14   C51   1.461374 S    
N4    O27   1.301683 A    
C40   C42   1.422875 A    
C62   H42   1.117271 S    
O12   C52   1.323632 A    
C55   H25   1.108044 S    
C60   H38   1.107863 S    
C24   C28   1.434278 A    
C27   C29   1.425512 A    
C43   C45   1.396167 A    
C53   H21   1.111099 S    
C56   C57   1.531716 S    
C44   C46   1.397370 A    
N1    O22   1.301582 A    
C45   H9    1.084002 S    
C31   H17   1.074632 S    
C59   H35   1.117163 S    
C31   C33   1.388268 A    
O15   V3    2.030228 S    
C48   O32   1.381781 S    
C32   C34   1.384999 A    
C14   C20   1.395842 A    
C17   C25   1.401296 A    
C36   H20   1.076319 S    
C34   H8    1.084132 S    
C15   C45   1.391410 A    
C54   C55   1.525099 S    
C26   C34   1.391468 A    
C22   C24   1.429389 A    
C19   H15   1.083986 S    
C42   C48   1.425239 A    
O6    V2    2.012937 S    
C1    C16   1.464749 S    
C23   C25   1.418054 A    
C24   C26   1.420611 A    
C32   H18   1.075451 S    
N2    O24   1.301344 A    
C47   O31   1.379956 S    
C30   C42   1.435259 A    
C63   H45   1.107852 S    
C7    O29   1.393103 S    
C11   H5    1.084164 S    
C28   C30   1.428181 A    
O16   C52   1.324701 A    
C21   C23   1.426944 A    
C64   H48   1.109720 S    
O11   V4    2.029709 S    
O5    V1    2.011207 S    
C3    C12   1.480279 S    
C38   H12   1.081437 S    
C61   H41   1.109273 S    
C5    H1    1.086489 S    
C13   C19   1.395522 A    
O17   V3    2.000605 S    
C46   H10   1.084041 S    
C58   H33   1.110300 S    
C63   C64   1.523123 S    
O10   V1    1.756783 S    
O6    C4    1.334854 A    
O13   V3    2.011297 S    
C8    C49   1.495818 S    
C28   C36   1.407593 A    
C16   C46   1.394352 A    
N3    O26   1.301454 A    
O1    V2    2.001218 S    
C33   H7    1.083980 S    
C39   C43   1.419770 A    
O2    V1    2.000408 S    
C53   C54   1.532269 S    
C56   H28   1.111097 S    
C18   H14   1.084221 S    
C55   H26   1.110322 S    
C57   C58   1.524970 S    
C44   N4    1.440252 S    
O4    C2    1.337518 A    
O13   C49   1.331490 A    
C12   H6    1.084096 S    
O19   V4    1.758129 S    
C9    H3    1.085728 S    
C37   C39   1.400108 A    
C18   C26   1.400056 A    
C58   H32   1.108078 S    
C8    O30   1.392846 S    
O3    V1    2.030304 S    
O30   C56   1.415700 S    
C17   C19   1.389550 A    
C57   H31   1.110001 S    
C63   H44   1.111381 S    
C62   H43   1.112664 S    
C17   H13   1.084100 S    
O12   V3    2.032491 S    
C35   H19   1.079049 S    
C6    H2    1.085452 S    
C10   H4    1.085730 S    
C10   C12   1.344992 D    
O3    C1    1.336999 A    
C50   O17   1.332541 A    
C22   N2    1.437900 S    
C49   O18   1.332651 A    
C55   H27   1.111192 S    
C36   C38   1.385102 A    
O18   V4    2.001418 S    
C61   H40   1.107530 S    
C2    C15   1.466850 S    
C4    C11   1.480440 S    
C18   C20   1.387346 A    
O7    V1    2.024690 S    
C58   H34   1.111152 S    
C1    O8    1.340272 A    
O8    V2    2.022121 S    
O29   C53   1.415882 S    
C41   C47   1.428378 A    
C25   C33   1.392395 A    
N4    O28   1.301374 A    
C59   C60   1.525083 S    
C27   C35   1.405002 A    
C30   C32   1.412024 A    
N2    O23   1.301824 A    
C5    C7    1.355172 D    
C38   C40   1.398363 A    
C6    C8    1.354488 D    
C14   C22   1.411229 A    
O20   V3    1.756043 S    
C53   H22   1.114737 S    
C56   H29   1.114773 S    
C21   N1    1.439350 S    
C61   H39   1.110739 S    
C29   C41   1.438525 A    
O11   C51   1.325936 A    
C9    C11   1.344858 D    
C59   H36   1.113352 S    
C13   C52   1.460754 S    
O9    V2    1.758870 S    
N3    O25   1.300906 A    
C13   C21   1.411483 A    
C23   C27   1.429855 A    
O32   C62   1.414182 S    
C64   H46   1.110447 S    
C37   H11   1.080420 S    
O31   C59   1.411803 S    
C57   H30   1.111195 S    
C54   H24   1.110103 S    
