data_str_m2_o14_o16_f0_pcu.sym.89
_audit_creation_date              2012-12-10T17:18:58-0500
_audit_creation_method            fapswitch 2.2
_symmetry_space_group_name_H-M    P1
_symmetry_Int_Tables_number       1
_space_group_crystal_system       triclinic
_cell_length_a                    9.59991
_cell_length_b                    10.790734
_cell_length_c                    13.425312
_cell_angle_alpha                 92.804994
_cell_angle_beta                  72.280542
_cell_angle_gamma                 89.908393
_cell_volume                      1322.96431032

loop_
_atom_site_label
_atom_site_type_symbol
_atom_type_description
_atom_site_fract_x
_atom_site_fract_y
_atom_site_fract_z
_atom_type_partial_charge
C1    C     C_R   0.497250 0.737551 0.506074 0.799645
C2    C     C_R   0.373664 0.482641 0.814382 -0.103755
C3    C     C_R   0.256926 0.880641 0.658787 -0.183772
C4    C     C_R   0.421572 0.492642 0.699717 0.764295
C5    C     C_R   0.141274 0.949677 0.727320 -0.141332
C6    C     C_R   0.140555 0.078473 0.726915 -0.134580
C7    C     C_R   0.255665 0.139098 0.658127 -0.177941
C8    C     C_R   0.372693 0.071060 0.586027 0.101464
C9    C     C_R   0.373052 0.939718 0.586086 0.102616
C10   C     C_R   0.493211 0.872025 0.516453 -0.108126
C11   C     C_R   0.615305 0.933475 0.456238 -0.199618
C12   C     C_R   0.432178 0.471189 0.979128 0.078824
C13   C     C_R   0.615964 0.061097 0.458012 -0.217023
C14   C     C_R   0.493412 0.130090 0.517308 -0.096716
C15   C     C_R   0.919498 0.344167 0.351950 -0.192566
C16   C     C_R   0.497387 0.263200 0.506264 0.762979
C17   C     C_R   0.025876 0.276314 0.272810 0.263523
C18   C     C_R   0.168270 0.273875 0.276973 -0.288430
C19   C     C_R   0.205427 0.340411 0.355756 -0.183984
C20   C     C_R   0.105052 0.421598 0.428945 0.210644
C21   C     C_R   0.955979 0.422308 0.428174 0.153297
C22   C     C_R   0.896883 0.573636 0.568353 -0.046468
C23   C     C_R   0.471674 0.446844 0.869187 0.085913
C24   C     C_R   0.044794 0.573745 0.568206 -0.063777
C25   C     C_R   0.578564 0.497974 0.299869 0.789172
C26   C     C_R   0.791463 0.400919 0.022111 -0.193916
C27   C     C_R   0.622446 0.481235 0.185498 -0.061485
C28   C     C_R   0.229958 0.519617 0.870999 -0.203653
C29   C     C_R   0.185474 0.527770 0.979588 -0.151315
C30   C     C_R   0.285288 0.506337 0.033461 -0.180762
C31   C     C_3   0.873017 0.134794 0.203120 -0.719309
C32   C     C_R   0.541182 0.459048 0.030174 0.071276
C33   C     C_R   0.681909 0.410305 0.973307 0.161262
C34   C     C_R   0.711110 0.370033 0.868772 -0.254698
C35   C     C_R   0.606988 0.386277 0.817807 -0.201180
C36   C     C_R   0.515693 0.496791 0.135633 -0.248675
C37   C     C_R   0.761942 0.436702 0.127706 -0.199035
Cu1   Cu    Cu3+1 0.359340 0.500010 0.500010 0.922337
Cu2   Cu    Cu3+1 0.640660 0.499990 0.499990 0.926886
H1    H     H_    0.846438 0.426111 0.164698 0.180645
H2    H     H_    0.315377 0.325572 0.354105 0.215076
H3    H     H_    0.815528 0.326774 0.825788 0.142864
H4    H     H_    0.075994 0.634177 0.624161 0.124971
H5    H     H_    0.899281 0.364212 0.978938 0.143560
H6    H     H_    0.412943 0.538972 0.181236 0.157261
H7    H     H_    0.152010 0.544673 0.831283 0.150439
H8    H     H_    0.242992 0.515325 0.117639 0.135902
H9    H     H_    0.073865 0.555012 0.022383 0.146667
H10   H     H_    0.633468 0.347761 0.738392 0.181285
H11   H     H_    0.709776 0.882326 0.405620 0.158490
H12   H     H_    0.255904 0.781431 0.666135 0.141433
H13   H     H_    0.084553 0.186752 0.124260 0.257699
H14   H     H_    0.865564 0.094604 0.127189 0.231812
H15   H     H_    0.768076 0.184534 0.242516 0.222455
H16   H     H_    0.890578 0.057681 0.250054 0.228662
H17   H     H_    0.053225 0.903065 0.782434 0.130168
H18   H     H_    0.051921 0.131834 0.781697 0.128661
H19   H     H_    0.253320 0.239242 0.664883 0.157276
H20   H     H_    0.711745 0.106511 0.410869 0.158256
H21   H     H_    0.817860 0.634154 0.624331 0.141159
H22   H     H_    0.810709 0.334663 0.350153 0.204707
H23   H     H_    0.251929 0.219369 0.218659 0.154481
N1    N     N_R   0.852480 0.498790 0.499000 -0.192150
N2    N     N_R   0.148360 0.498710 0.498970 -0.192322
N3    N     N_2   0.994204 0.218991 0.184024 -0.436974
O1    O     O_R   0.381190 0.680360 0.500010 -0.575318
O2    O     O_R   0.618760 0.680340 0.500000 -0.571640
O3    O     O_R   0.323240 0.499990 0.650990 -0.594554
O4    O     O_R   0.560820 0.499960 0.650980 -0.581582
O5    O     O_R   0.381240 0.319660 0.500000 -0.602298
O6    O     O_R   0.618810 0.319640 0.499990 -0.598202
O7    O     O_R   0.439180 0.500040 0.349020 -0.593409
O8    O     O_R   0.676760 0.500010 0.349010 -0.597494

loop_
_geom_bond_atom_site_label_1
_geom_bond_atom_site_label_2
_ccdc_geom_bond_type
Cu1   O5    S    
C5    H17   S    
C19   C20   A    
C34   H3    S    
C26   H5    S    
C7    C8    A    
C12   C23   A    
C28   H7    S    
C32   C36   A    
C28   C29   A    
C34   C35   A    
C37   H1    S    
C22   H21   S    
C5    C6    A    
C15   C17   A    
C18   C19   A    
C22   N1    A    
Cu1   O1    S    
C8    C9    A    
C35   H10   S    
C9    C10   A    
C7    H19   S    
C25   O8    A    
C24   N2    A    
C13   C14   A    
C12   C32   A    
C6    H18   S    
C16   O6    A    
C4    O4    A    
C33   C34   A    
Cu1   N2    S    
C15   H22   S    
Cu1   O7    S    
C29   H9    S    
C30   H8    S    
C16   O5    A    
C4    O3    A    
C3    H12   S    
C18   H23   S    
C1    O1    A    
C20   N2    A    
C2    C4    S    
C29   C30   A    
C3    C9    A    
C26   C33   A    
C17   C18   A    
Cu2   O4    S    
C36   H6    S    
C25   O7    A    
C31   H14   S    
Cu1   O3    S    
C23   C35   A    
C14   C16   S    
C31   N3    S    
C8    C14   A    
C12   C30   A    
Cu2   O2    S    
C1    C10   S    
C3    C5    A    
C26   C37   A    
C6    C7    A    
C13   H20   S    
C27   C36   A    
C25   C27   S    
Cu2   N1    S    
C17   N3    S    
C32   C33   A    
C11   H11   S    
C11   C13   A    
Cu1   Cu2   S    
C27   C37   A    
C1    O2    A    
C22   C24   A    
Cu2   O8    S    
C31   H15   S    
C21   N1    A    
C10   C11   A    
C15   C21   A    
C20   C21   A    
C2    C23   A    
C24   H4    S    
Cu2   O6    S    
C2    C28   A    
C31   H16   S    
H13   N3    S    
C19   H2    S    
