data_str_m3_o40_o40_f0_fof.sym.8
_audit_creation_date              2012-12-10T16:37:27-0500
_audit_creation_method            fapswitch 2.2
_symmetry_space_group_name_H-M    P1
_symmetry_Int_Tables_number       1
_space_group_crystal_system       triclinic
_cell_length_a                    16.908421
_cell_length_b                    16.735514
_cell_length_c                    16.733292
_cell_angle_alpha                 65.644691
_cell_angle_beta                  65.571499
_cell_angle_gamma                 65.699743
_cell_volume                      3758.08700559

loop_
_atom_site_label
_atom_site_type_symbol
_atom_type_description
_atom_site_fract_x
_atom_site_fract_y
_atom_site_fract_z
_atom_type_partial_charge
C1    C     C_R   0.406922 0.040158 0.659940 0.121280
C2    C     C_R   0.451034 0.684603 0.950004 0.116375
C3    C     C_R   0.947839 0.603871 0.330377 0.126569
C4    C     C_R   0.906647 0.480161 0.698369 0.124523
C5    C     C_R   0.960364 0.180185 0.438578 0.930693
C6    C     C_R   0.041190 0.820331 0.560212 0.883780
C7    C     C_R   0.178603 0.432438 0.973789 0.931899
C8    C     C_R   0.820642 0.560811 0.040077 0.880028
C9    C     C_R   0.438449 0.959641 0.179718 0.920824
C10   C     C_R   0.562110 0.037098 0.820232 0.876071
C11   C     C_R   0.568111 0.822153 0.024268 0.907383
C12   C     C_R   0.604723 0.892596 0.358220 0.137431
C13   C     C_R   0.439884 0.179218 0.958168 0.901549
C14   C     C_R   0.022582 0.569175 0.822759 0.930226
C15   C     C_R   0.959590 0.438864 0.179796 0.898262
C16   C     C_R   0.823473 0.020619 0.569332 0.923356
C17   C     C_R   0.179260 0.960532 0.438294 0.909941
C18   C     C_R   0.450360 0.059844 0.702060 -0.240939
C19   C     C_R   0.555834 0.900919 0.303468 -0.241148
C20   C     C_R   0.073886 0.699628 0.444275 -0.239429
C21   C     C_R   0.928393 0.296022 0.557331 -0.247909
C22   C     C_R   0.709175 0.441826 0.066123 -0.242191
C23   C     C_R   0.054974 0.656695 0.400353 0.128006
C24   C     C_R   0.277872 0.513842 0.021693 -0.236943
C25   C     C_R   0.291363 0.925065 0.557876 -0.233473
C26   C     C_R   0.740624 0.944574 0.500170 -0.241973
C27   C     C_R   0.559260 0.293939 0.918066 -0.228642
C28   C     C_R   0.501068 0.730205 0.955198 -0.233679
C29   C     C_R   0.927035 0.558835 0.290793 -0.245195
C30   C     C_R   0.929048 0.522466 0.739582 -0.232298
C31   C     C_R   0.553401 0.978642 0.558646 -0.073833
C32   C     C_R   0.464896 0.945590 0.468839 -0.077387
C33   C     C_R   0.986891 0.561857 0.549026 -0.076543
C34   C     C_R   0.937734 0.343633 0.603384 0.119287
C35   C     C_R   0.950713 0.471068 0.464095 -0.076051
C36   C     C_R   0.558322 0.540301 0.001591 -0.078167
C37   C     C_R   0.466017 0.450489 0.975880 -0.077363
C38   C     C_R   0.605293 0.947851 0.478642 0.054671
C39   C     C_R   0.417695 0.961818 0.555505 0.061892
C40   C     C_R   0.946694 0.489543 0.603205 0.060826
C41   C     C_R   0.970062 0.556347 0.413742 0.061453
C42   C     C_R   0.474478 0.588283 0.982587 0.064697
C43   C     C_R   0.558457 0.408020 0.973864 0.059324
C44   C     C_R   0.560061 0.931341 0.432922 0.055113
C45   C     C_R   0.670804 0.396241 0.043906 0.116416
C46   C     C_R   0.458549 0.990863 0.593880 0.055585
C47   C     C_R   0.421424 0.537311 0.990412 0.065488
C48   C     C_R   0.598254 0.446760 0.004523 0.054365
C49   C     C_R   0.943674 0.434530 0.558730 0.059563
C50   C     C_R   0.003187 0.593172 0.452813 0.058271
C51   C     C_R   0.545160 0.037173 0.676682 0.037098
C52   C     C_R   0.460909 0.927645 0.331999 0.029459
C53   C     C_R   0.048830 0.675863 0.540259 0.041127
C54   C     C_R   0.933227 0.331912 0.463414 0.030483
C55   C     C_R   0.678605 0.537969 0.048551 0.034997
C56   C     C_R   0.325906 0.565036 0.021242 0.115271
C57   C     C_R   0.322319 0.440555 0.982070 0.017756
C58   C     C_R   0.326668 0.935016 0.462888 0.026742
C59   C     C_R   0.690188 0.987467 0.570270 0.008712
C60   C     C_R   0.463875 0.325549 0.937952 0.035941
C61   C     C_R   0.568164 0.682199 0.001746 0.008861
C62   C     C_R   0.933972 0.464504 0.328354 0.026189
C63   C     C_R   0.989110 0.576535 0.687610 0.004369
C64   C     C_R   0.590802 0.054606 0.720692 -0.169008
C65   C     C_R   0.409816 0.930425 0.280708 -0.177958
C66   C     C_R   0.063822 0.720402 0.587223 -0.176477
C67   C     C_R   0.335382 0.938366 0.604113 0.128200
C68   C     C_R   0.931656 0.281468 0.412224 -0.172975
C69   C     C_R   0.721901 0.587616 0.061460 -0.170511
C70   C     C_R   0.276510 0.399146 0.960746 -0.146202
C71   C     C_R   0.278497 0.932804 0.411028 -0.167284
C72   C     C_R   0.729040 0.023231 0.605752 -0.132417
C73   C     C_R   0.413123 0.279286 0.931921 -0.181970
C74   C     C_R   0.604126 0.725258 0.031889 -0.136086
C75   C     C_R   0.930808 0.412566 0.280463 -0.163135
C76   C     C_R   0.027513 0.607256 0.727279 -0.137683
C77   C     C_R   0.675383 0.066505 0.673650 0.017774
C78   C     C_R   0.699094 0.941177 0.445576 0.124035
C79   C     C_R   0.325040 0.915628 0.326396 0.029130
C80   C     C_R   0.073009 0.673524 0.673820 0.019401
C81   C     C_R   0.913389 0.328291 0.328243 0.020471
C82   C     C_R   0.674085 0.673756 0.072329 0.023881
C83   C     C_R   0.326481 0.325954 0.923535 0.022297
C84   C     C_R   0.595995 0.001779 0.601241 0.066003
C85   C     C_R   0.417239 0.936781 0.421032 0.070574
C86   C     C_R   0.009546 0.603712 0.591927 0.067590
C87   C     C_R   0.938658 0.422558 0.418965 0.071393
C88   C     C_R   0.601027 0.586474 0.018561 0.063962
C89   C     C_R   0.606531 0.333177 0.936667 0.130537
C90   C     C_R   0.417651 0.406474 0.963604 0.069730
H1    H     H_    0.408553 0.099463 0.750231 0.158918
H2    H     H_    0.486590 0.802789 0.920757 0.185361
H3    H     H_    0.901614 0.600534 0.232299 0.165180
H4    H     H_    0.895843 0.515151 0.811981 0.176296
H5    H     H_    0.298626 0.152962 0.652539 0.179676
H6    H     H_    0.279326 0.063773 0.746371 0.181571
H7    H     H_    0.730943 0.845725 0.279523 0.178680
H8    H     H_    0.687032 0.763480 0.365468 0.173142
H9    H     H_    0.168870 0.644472 0.293661 0.174922
H10   H     H_    0.083305 0.739557 0.270258 0.183729
H11   H     H_    0.011975 0.239451 0.683674 0.182962
H12   H     H_    0.592671 0.873115 0.245720 0.157869
H13   H     H_    0.898848 0.266182 0.734666 0.175799
H14   H     H_    0.683277 0.276175 0.144704 0.178515
H15   H     H_    0.768285 0.274926 0.045669 0.181560
H16   H     H_    0.244113 0.610229 0.131786 0.182058
H17   H     H_    0.228085 0.684565 0.030727 0.183594
H18   H     H_    0.308432 0.844049 0.727266 0.176652
H19   H     H_    0.234558 0.949647 0.721952 0.185709
H20   H     H_    0.811412 0.893261 0.349928 0.191918
H21   H     H_    0.767548 0.008353 0.321193 0.179510
H22   H     H_    0.724371 0.316327 0.835189 0.179361
H23   H     H_    0.113343 0.747760 0.402697 0.151845
H24   H     H_    0.725697 0.233345 0.935711 0.186490
H25   H     H_    0.416060 0.767542 0.834367 0.186823
H26   H     H_    0.337028 0.787235 0.932102 0.188051
H27   H     H_    0.865992 0.731685 0.293943 0.174818
H28   H     H_    0.972217 0.713624 0.222441 0.181121
H29   H     H_    0.775141 0.489635 0.770628 0.188474
H30   H     H_    0.849297 0.391091 0.811249 0.201146
H31   H     H_    0.727371 0.170505 0.635530 0.163183
H32   H     H_    0.654399 0.157682 0.738825 0.166448
H33   H     H_    0.338345 0.840971 0.249090 0.175448
H34   H     H_    0.914479 0.231515 0.598972 0.177279
H35   H     H_    0.250621 0.839132 0.339695 0.159466
H36   H     H_    0.159565 0.740926 0.656609 0.167381
H37   H     H_    0.173451 0.636522 0.728937 0.171766
H38   H     H_    0.839211 0.340980 0.251758 0.162458
H39   H     H_    0.837505 0.252692 0.342915 0.172336
H40   H     H_    0.639678 0.730525 0.172170 0.157599
H41   H     H_    0.742425 0.658202 0.157491 0.167398
H42   H     H_    0.265488 0.355063 0.829406 0.171072
H43   H     H_    0.339218 0.252758 0.843629 0.168888
H44   H     H_    0.760593 0.400270 0.101186 0.161301
H45   H     H_    0.206299 0.532364 0.056366 0.186914
H46   H     H_    0.232732 0.900377 0.599479 0.165342
H47   H     H_    0.813504 0.919200 0.479867 0.191220
H48   H     H_    0.598584 0.240016 0.885178 0.154640
N1    N     N_3   0.310941 0.081806 0.675571 -0.449375
N2    N     N_3   0.383853 0.735605 0.901980 -0.455847
N3    N     N_3   0.934132 0.700755 0.291661 -0.456425
N4    N     N_3   0.834398 0.438674 0.751083 -0.453280
N5    N     N_3   0.707723 0.120087 0.695988 -0.406920
N6    N     N_3   0.285914 0.884316 0.286716 -0.391645
N7    N     N_3   0.123252 0.696435 0.709093 -0.402522
N8    N     N_3   0.882071 0.288233 0.289445 -0.395518
N9    N     N_3   0.698301 0.710196 0.120885 -0.406841
N10   N     N_3   0.288232 0.297474 0.880465 -0.398179
N11   N     N_3   0.693434 0.828471 0.348756 -0.452513
N12   N     N_3   0.098729 0.669196 0.303992 -0.458246
N13   N     N_3   0.952662 0.294058 0.691585 -0.452323
N14   N     N_3   0.697869 0.298062 0.073263 -0.447040
N15   N     N_3   0.277606 0.637876 0.063153 -0.456405
N16   N     N_3   0.303436 0.913902 0.702436 -0.462420
N17   N     N_3   0.750695 0.946692 0.351651 -0.448001
N18   N     N_3   0.703736 0.304199 0.906260 -0.463208
O1    O     O_R   0.982940 0.138950 0.510160 -0.639040
O2    O     O_R   0.982940 0.510160 0.138950 -0.649109
O3    O     O_R   0.861050 0.017060 0.489840 -0.660681
O4    O     O_R   0.138950 0.982940 0.510160 -0.639196
O5    O     O_R   0.867700 0.025880 0.612340 -0.602172
O6    O     O_R   0.132300 0.974120 0.387660 -0.598489
O7    O     O_R   0.025880 0.612340 0.867700 -0.593234
O8    O     O_R   0.974120 0.387660 0.132300 -0.601841
O9    O     O_R   0.612340 0.867700 0.025880 -0.601060
O10   O     O_R   0.387660 0.132300 0.974120 -0.599978
O11   O     O_R   0.387660 0.974120 0.132300 -0.590631
O12   O     O_R   0.017060 0.861050 0.489840 -0.644532
O13   O     O_R   0.612340 0.025880 0.867700 -0.608362
O14   O     O_R   0.132300 0.387660 0.974120 -0.587522
O15   O     O_R   0.867700 0.612340 0.025880 -0.610141
O16   O     O_R   0.974120 0.132300 0.387660 -0.588243
O17   O     O_R   0.025880 0.867700 0.612340 -0.608818
O18   O     O_R   0.138950 0.510160 0.982940 -0.648835
O19   O     O_R   0.861050 0.489840 0.017060 -0.651238
O20   O     O_R   0.510160 0.982940 0.138950 -0.623018
O21   O     O_R   0.489840 0.017060 0.861050 -0.647790
O22   O     O_R   0.489840 0.861050 0.017060 -0.652323
O23   O     O_R   0.510160 0.138950 0.982940 -0.626517
O24   O     O_R   0.017060 0.489840 0.861050 -0.640709
Zn1   Zn    Zn3+2 0.004880 0.004880 0.583590 0.942180
Zn2   Zn    Zn3+2 0.995120 0.995120 0.416410 0.943098
Zn3   Zn    Zn3+2 0.004880 0.583590 0.004880 0.938261
Zn4   Zn    Zn3+2 0.995120 0.416410 0.995120 0.951633
Zn5   Zn    Zn3+2 0.583590 0.004880 0.004880 0.956212
Zn6   Zn    Zn3+2 0.416410 0.995120 0.995120 0.944651

loop_
_geom_bond_atom_site_label_1
_geom_bond_atom_site_label_2
_ccdc_geom_bond_type
C15   C75   S    
C65   C79   A    
C64   C77   A    
H31   N5    S    
C36   C42   A    
C3    N3    S    
H28   N3    S    
H38   N8    S    
C16   C72   S    
H6    N1    S    
C71   C79   A    
C82   N9    S    
C8    O19   A    
C4    C30   A    
O20   Zn5   S    
C54   C87   A    
C36   C88   A    
C10   O13   A    
C1    C18   A    
C26   C78   A    
C37   C90   A    
C22   H44   S    
C67   N16   S    
C18   H1    S    
O15   Zn3   S    
C52   C85   A    
O6    Zn2   S    
C27   C60   A    
C4    N4    S    
C20   H23   S    
C19   H12   S    
C78   N17   S    
C54   C68   A    
C63   C76   A    
H35   N6    S    
C40   C49   A    
C7    O18   A    
C60   C73   A    
C55   C88   A    
C9    O20   A    
C32   C39   A    
C14   O7    A    
C3    C29   A    
C17   O4    A    
C69   C82   A    
C25   H46   S    
C35   C87   A    
C19   C52   A    
C4    C40   A    
C5    O1    A    
C24   C57   A    
C31   C46   A    
C25   C67   A    
H33   N6    S    
C35   C49   A    
H41   N9    S    
C53   C86   A    
H20   N17   S    
C57   C70   A    
C37   C47   A    
C43   C48   A    
C1    N1    S    
C8    O15   A    
H13   N13   S    
C59   C72   A    
C28   C61   A    
C26   H47   S    
O17   Zn1   S    
C30   C63   A    
C16   O3    A    
O1    Zn1   S    
H32   N5    S    
C74   C82   A    
C5    C68   S    
C35   C41   A    
H24   N18   S    
H36   N7    S    
C18   C51   A    
C36   C48   A    
C32   C44   A    
H9    N12   S    
C6    O12   A    
C27   H48   S    
C57   C90   A    
O7    Zn3   S    
C33   C40   A    
C15   O8    A    
C9    O11   A    
H30   N4    S    
C59   C84   A    
C15   O2    A    
H43   N10   S    
C75   C81   A    
C23   C50   A    
C21   C34   A    
C38   C78   A    
H10   N12   S    
C33   C50   A    
C13   O23   A    
O11   Zn6   S    
H11   N13   S    
O9    Zn5   S    
C31   C84   A    
H42   N10   S    
C41   C50   A    
C37   C43   A    
H27   N3    S    
C33   C86   A    
C77   N5    S    
C38   C44   A    
C72   C77   A    
O8    Zn4   S    
C61   C88   A    
C79   N6    S    
C20   C23   A    
H16   N15   S    
C8    C69   S    
C28   H2    S    
C11   O22   A    
C43   C89   A    
C70   C83   A    
H39   N8    S    
H17   N15   S    
H37   N7    S    
C39   C46   A    
C56   N15   S    
C24   H45   S    
C80   N7    S    
C23   N12   S    
C13   C73   S    
C17   C71   S    
O12   Zn2   S    
C63   C86   A    
C61   C74   A    
C62   C75   A    
C25   C58   A    
C68   C81   A    
C58   C85   A    
O4    Zn1   S    
O2    Zn3   S    
C45   C48   A    
H15   N14   S    
C29   C62   A    
C3    C41   A    
C34   C49   A    
O14   Zn4   S    
H40   N9    S    
O10   Zn6   S    
C10   O21   A    
C39   C67   A    
C12   N11   S    
C10   C64   S    
C51   C64   A    
C76   C80   A    
C20   C53   A    
C89   N18   S    
C11   C74   S    
O18   Zn3   S    
C34   N13   S    
C22   C55   A    
O23   Zn5   S    
C6    O17   A    
C60   C90   A    
C16   O5    A    
C24   C56   A    
C66   C80   A    
C62   C87   A    
H5    N1    S    
C31   C38   A    
C45   N14   S    
C2    N2    S    
C55   C69   A    
C21   H34   S    
O13   Zn5   S    
C30   H4    S    
H19   N16   S    
C53   C66   A    
C29   H3    S    
H14   N14   S    
C13   O10   A    
C21   C54   A    
C2    C42   A    
C32   C85   A    
C12   C19   A    
C5    O16   A    
C27   C89   A    
C42   C47   A    
O3    Zn2   S    
O5    Zn1   S    
C7    C70   S    
C1    C46   A    
C9    C65   S    
C17   O6    A    
O21   Zn6   S    
C83   N10   S    
O22   Zn6   S    
O16   Zn2   S    
C6    C66   S    
C22   C45   A    
H18   N16   S    
H25   N2    S    
C12   C44   A    
C81   N8    S    
H22   N18   S    
C7    O14   A    
C11   O9    A    
H29   N4    S    
H7    N11   S    
C58   C71   A    
O19   Zn4   S    
C26   C59   A    
C2    C28   A    
H21   N17   S    
C51   C84   A    
C73   C83   A    
C14   O24   A    
C52   C65   A    
O24   Zn4   S    
C14   C76   S    
C47   C56   A    
H26   N2    S    
H8    N11   S    
