data_str_m2_o10_o16_f0_pcu.sym.63
_audit_creation_date              2012-10-26T19:58:21-0400
_audit_creation_method            fapswitch 2.2
_symmetry_space_group_name_H-M    P1
_symmetry_Int_Tables_number       1
_space_group_crystal_system       triclinic
_cell_length_a                    7.535578
_cell_length_b                    8.700105
_cell_length_c                    13.384568
_cell_angle_alpha                 94.657592
_cell_angle_beta                  79.620804
_cell_angle_gamma                 102.771153
_cell_volume                      841.001369858

loop_
_atom_site_label
_atom_site_type_symbol
_atom_type_description
_atom_site_fract_x
_atom_site_fract_y
_atom_site_fract_z
_atom_type_partial_charge
C1    C     C_R   0.544431 0.799473 0.501481 0.575915
C2    C     C_R   0.353842 0.398993 0.793079 -0.001857
C3    C     C_2   0.561190 0.966393 0.507284 -0.126422
C4    C     C_R   0.402110 0.462138 0.689492 0.563088
C5    C     C_2   0.439490 0.034006 0.475067 0.058949
C6    C     C_R   0.457651 0.200669 0.491798 0.561277
C7    C     C_R   0.597710 0.517140 0.306803 0.542199
C8    C     C_R   0.887490 0.547256 0.047329 -0.139113
C9    C     C_R   0.650188 0.530581 0.196030 0.017222
C10   C     C_R   0.190095 0.290740 0.825209 0.041740
C11   C     C_R   0.134461 0.265919 0.929280 -0.122992
C12   C     C_R   0.428649 0.426116 0.963524 0.010341
C13   C     C_R   0.247168 0.342652 0.998906 -0.154891
C14   C     C_3   0.975561 0.311657 0.421800 -0.113621
C15   C     C_3   0.340301 0.580639 0.172058 -0.369266
C16   C     C_3   0.717862 0.295510 0.738405 -0.332228
C17   C     C_R   0.487580 0.425077 0.857706 0.031615
C18   C     C_R   0.562266 0.484659 0.027916 0.046652
C19   C     C_R   0.752440 0.506937 0.985223 0.027285
C20   C     C_R   0.805584 0.473020 0.882273 -0.109702
C21   C     C_R   0.672647 0.415249 0.821378 0.018078
C22   C     C_R   0.515072 0.520336 0.132791 -0.011220
C23   C     C_R   0.836409 0.549795 0.152121 -0.149945
Cu1   Cu    Cu3+1 0.321300 0.483160 0.488710 0.987187
Cu2   Cu    Cu3+1 0.678700 0.516840 0.511290 0.966037
H1    H     H_    0.942764 0.567461 0.198944 0.138483
H2    H     H_    0.877082 0.324631 0.373464 0.142503
H3    H     H_    0.370934 0.686133 0.223466 0.180898
H4    H     H_    0.285661 0.620911 0.109497 0.119003
H5    H     H_    0.232371 0.488741 0.213477 0.141391
H6    H     H_    0.602243 0.243878 0.697261 0.158760
H7    H     H_    0.842063 0.346728 0.683893 0.181539
H8    H     H_    0.741021 0.194176 0.775280 0.152962
H9    H     H_    0.016722 0.635125 0.568399 0.257682
H10   H     H_    0.949039 0.475786 0.851548 0.135356
H11   H     H_    0.032402 0.566061 0.014798 0.123324
H12   H     H_    0.200556 0.317669 0.078110 0.123727
H13   H     H_    0.008694 0.182064 0.955789 0.150779
H14   H     H_    0.670490 0.034948 0.545318 0.106078
H15   H     H_    0.088409 0.270649 0.368895 0.127919
H16   H     H_    0.918975 0.220147 0.478505 0.141544
I1    I     I_    0.224861 0.921751 0.390146 -0.375382
I2    I     I_    0.085611 0.112808 0.720454 -0.432865
N1    N     N_2   0.947230 0.542220 0.528320 -0.231864
N2    N     N_2   0.052770 0.457780 0.471680 -0.164255
O1    O     O_R   0.383920 0.714220 0.492660 -0.472885
O2    O     O_R   0.685730 0.742660 0.511730 -0.473443
O3    O     O_R   0.275440 0.478800 0.636790 -0.490072
O4    O     O_R   0.577250 0.507240 0.655860 -0.502162
O5    O     O_R   0.314270 0.257340 0.488270 -0.470865
O6    O     O_R   0.616080 0.285780 0.507340 -0.562518
O7    O     O_R   0.422750 0.492760 0.344140 -0.509381
O8    O     O_R   0.724560 0.521200 0.363210 -0.512586

loop_
_geom_bond_atom_site_label_1
_geom_bond_atom_site_label_2
_ccdc_geom_bond_type
C12   C17   A    
Cu1   O7    S    
C11   H13   S    
C2    C4    S    
C5    I1    S    
Cu2   O6    S    
Cu1   Cu2   S    
C8    H11   S    
C16   C21   S    
C14   H2    S    
C16   H7    S    
Cu2   O2    S    
C13   H12   S    
C19   C20   A    
C4    O4    A    
Cu1   O1    S    
C20   C21   A    
C3    H14   S    
C6    O5    A    
C2    C17   A    
C11   C13   A    
C15   H3    S    
C14   H16   S    
Cu1   N2    S    
Cu2   N1    S    
Cu2   O8    S    
C7    O7    A    
C15   H4    S    
C14   N2    S    
Cu1   O5    S    
C5    C6    S    
C16   H8    S    
Cu2   O4    S    
C1    O1    A    
C23   H1    S    
C8    C19   A    
C10   C11   A    
C7    O8    A    
C14   H15   S    
Cu1   O3    S    
C8    C23   A    
H9    N1    S    
C12   C13   A    
C15   H5    S    
C18   C19   A    
C4    O3    A    
C6    O6    A    
C12   C18   A    
C7    C9    S    
C9    C22   A    
C1    O2    A    
C9    C23   A    
C3    C5    D    
C10   I2    S    
C18   C22   A    
C20   H10   S    
C16   H6    S    
C15   C22   S    
C17   C21   A    
N1    N2    D    
C1    C3    S    
C2    C10   A    
