data_str_m2_o1_o17_f0_pcu.sym.153
_audit_creation_date              2012-12-10T17:57:50-0500
_audit_creation_method            fapswitch 2.2
_symmetry_space_group_name_H-M    P1
_symmetry_Int_Tables_number       1
_space_group_crystal_system       triclinic
_cell_length_a                    10.912376
_cell_length_b                    9.713235
_cell_length_c                    15.187187
_cell_angle_alpha                 89.913381
_cell_angle_beta                  102.264362
_cell_angle_gamma                 90.119764
_cell_volume                      1573.0154286

loop_
_atom_site_label
_atom_site_type_symbol
_atom_type_description
_atom_site_fract_x
_atom_site_fract_y
_atom_site_fract_z
_atom_type_partial_charge
C1    C     C_R   0.263545 0.499755 0.504627 0.874214
C2    C     C_R   0.735312 0.500729 0.493673 0.950114
C3    C     C_R   0.282685 0.627334 0.009576 0.346874
C4    C     C_R   0.683322 0.376851 0.982205 0.337295
C5    C     C_R   0.058979 0.375115 0.493521 0.349195
C6    C     C_R   0.935164 0.628446 0.494445 0.359218
C7    C     C_R   0.928761 0.379641 0.474707 0.357284
C8    C     C_R   0.065365 0.626100 0.509841 0.323771
C9    C     C_R   0.867271 0.503376 0.486093 -0.358478
C10   C     C_R   0.128935 0.499639 0.506125 -0.363057
C11   C     C_R   0.416574 0.073296 0.432833 0.320729
C12   C     C_R   0.587224 0.924161 0.563886 0.345867
C13   C     C_R   0.588423 0.074932 0.563352 0.346460
C14   C     C_R   0.414277 0.923471 0.436296 0.335479
C15   C     C_R   0.491831 0.500657 0.327518 0.860289
C16   C     C_R   0.496248 0.500053 0.670763 0.903239
C17   C     C_R   0.557650 0.406626 0.827943 0.419096
C18   C     C_R   0.375603 0.533850 0.163956 0.381593
C19   C     C_R   0.489000 0.501607 0.767114 -0.265448
C20   C     C_R   0.487001 0.503758 0.228884 -0.180268
C21   C     C_R   0.412155 0.596633 0.800301 0.362561
C22   C     C_R   0.597575 0.478592 0.198934 0.373450
C23   C     C_R   0.395437 0.581163 0.889618 -0.078235
C24   C     C_R   0.592174 0.457966 0.106612 -0.068687
C25   C     C_R   0.489744 0.512390 0.951971 -0.075149
C26   C     C_R   0.488948 0.513767 0.044253 -0.075744
C27   C     C_R   0.580934 0.435148 0.920524 -0.108551
C28   C     C_R   0.382523 0.564227 0.073809 -0.102920
C29   C     C_R   0.287911 0.628715 0.917543 0.360077
C30   C     C_R   0.685914 0.383743 0.075108 0.353592
Cu1   Cu    Cu3+1 0.500000 0.640660 0.500000 1.168834
Cu2   Cu    Cu3+1 0.500000 0.359340 0.500000 1.155092
N1    N     N_R   0.500000 0.852070 0.500000 -0.304880
N2    N     N_R   0.500000 0.147930 0.500000 -0.302542
O1    O     O_R   0.319640 0.618740 0.499990 -0.505630
O2    O     O_R   0.680360 0.381260 0.500010 -0.512758
O3    O     O_R   0.680360 0.618740 0.500010 -0.498680
O4    O     O_R   0.319640 0.381260 0.499990 -0.537444
O5    O     O_R   0.499970 0.618800 0.370260 -0.515306
O6    O     O_R   0.500030 0.381200 0.629740 -0.504209
O7    O     O_R   0.500030 0.618800 0.629740 -0.498797
O8    O     O_R   0.499970 0.381200 0.370260 -0.546690
Cl1   Cl    Cl    0.553865 0.232102 0.797340 -0.381065
Cl2   Cl    Cl    0.229464 0.480579 0.183422 -0.426598
Cl3   Cl    Cl    0.348030 0.740688 0.735148 -0.379051
Cl4   Cl    Cl    0.743181 0.500331 0.274454 -0.484107
Cl5   Cl    Cl    0.147083 0.657448 0.835954 -0.396057
Cl6   Cl    Cl    0.789376 0.272265 0.148386 -0.291855
S1    S     S_3+6 0.154555 0.718759 0.038655 0.165131
O9    O     O_2   0.039421 0.629404 0.017903 -0.170894
O10   O     O_2   0.179062 0.759898 0.135677 -0.158380
O11   O     O_3   0.127342 0.863314 0.976367 -0.421462
H1    H     H_    0.047399 0.899873 0.987647 0.414285
S2    S     S_3+6 0.816446 0.311330 0.945178 0.152801
O12   O     O_2   0.934538 0.343582 0.013244 -0.154409
O13   O     O_2   0.804159 0.157848 0.934296 -0.152343
O14   O     O_3   0.827745 0.383494 0.846615 -0.510239
H2    H     H_    0.910065 0.353007 0.836200 0.395521
Cl7   Cl    Cl    0.127707 0.208753 0.508156 -0.323556
Cl8   Cl    Cl    0.861126 0.791741 0.473416 -0.327315
Cl9   Cl    Cl    0.845678 0.234914 0.420453 -0.294525
Cl10  Cl    Cl    0.143596 0.784947 0.540883 -0.309482
S3    S     S_3+6 0.325633 0.160198 0.330312 0.190362
O15   O     O_2   0.415014 0.196795 0.271098 -0.250724
O16   O     O_2   0.223805 0.083738 0.268002 -0.070089
O17   O     O_3   0.243151 0.295201 0.352652 -0.435136
H3    H     H_    0.284636 0.378325 0.337513 0.362386
S4    S     S_3+6 0.696213 0.834388 0.655285 0.165578
O18   O     O_2   0.826701 0.889410 0.662984 -0.136380
O19   O     O_2   0.652225 0.865928 0.740443 -0.196989
O20   O     O_3   0.720272 0.664147 0.657795 -0.522101
H4    H     H_    0.773842 0.644577 0.717817 0.381281
S5    S     S_3+6 0.721954 0.161944 0.637295 0.165596
O21   O     O_2   0.748900 0.102285 0.730403 -0.116529
O22   O     O_2   0.834501 0.135151 0.597691 -0.201809
O23   O     O_3   0.720865 0.331144 0.657675 -0.492823
H5    H     H_    0.809995 0.360191 0.670639 0.353351
S6    S     S_3+6 0.301705 0.833765 0.350908 0.162685
O24   O     O_2   0.174834 0.892040 0.353713 -0.164897
O25   O     O_2   0.340141 0.867950 0.264152 -0.192083
O26   O     O_3   0.277080 0.663869 0.344765 -0.524175
H6    H     H_    0.185179 0.650939 0.325328 0.395250

loop_
_geom_bond_atom_site_label_1
_geom_bond_atom_site_label_2
_ccdc_geom_bond_type
S3    O16   D    
S5    O21   D    
C2    O3    A    
C14   N1    A    
O26   H6    S    
C3    S1    S    
C12   S4    S    
C29   Cl5   S    
Cu2   O2    S    
C22   C24   A    
C30   Cl6   S    
C3    C28   A    
C19   C21   A    
C24   C26   A    
C11   S3    S    
C16   C19   S    
C11   C14   A    
S6    O25   D    
C3    C29   A    
C7    Cl9   S    
S4    O18   D    
S1    O10   D    
Cu1   N1    S    
Cu2   O4    S    
C23   C25   A    
O17   H3    S    
S3    O17   S    
S5    O22   D    
C6    C9    A    
C21   Cl3   S    
C15   C20   S    
S2    O13   D    
C5    Cl7   S    
C17   C27   A    
C6    Cl8   S    
C18   C28   A    
O23   H5    S    
C5    C7    A    
S6    O24   D    
C6    C8    A    
C25   C26   A    
Cu1   O3    S    
Cu2   N2    S    
C17   Cl1   S    
C18   Cl2   S    
Cu1   Cu2   S    
S1    O11   S    
C15   O5    A    
C1    O4    A    
C16   O6    A    
S4    O19   D    
C22   Cl4   S    
C20   C22   A    
Cu2   O6    S    
C21   C23   A    
S5    O23   S    
Cu1   O1    S    
C23   C29   A    
C4    C27   A    
O11   H1    S    
C1    O1    A    
C2    O2    A    
C7    C9    A    
S2    O12   D    
Cu1   O7    S    
C4    S2    S    
C11   N2    A    
C1    C10   S    
C15   O8    A    
C13   S5    S    
C25   C27   A    
C26   C28   A    
C5    C10   A    
S6    O26   S    
O14   H2    S    
S4    O20   S    
C17   C19   A    
Cu1   O5    S    
C18   C20   A    
C14   S6    S    
C24   C30   A    
S3    O15   D    
C13   N2    A    
O20   H4    S    
C12   C13   A    
C8    C10   A    
S1    O9    D    
Cu2   O8    S    
C12   N1    A    
C2    C9    S    
C16   O7    A    
C4    C30   A    
C8    Cl10  S    
S2    O14   S    
