data_str_m2_o14_o25_f0_pcu.sym.70
_audit_creation_date              2012-10-26T21:08:10-0400
_audit_creation_method            fapswitch 2.2
_symmetry_space_group_name_H-M    P1
_symmetry_Int_Tables_number       1
_space_group_crystal_system       triclinic
_cell_length_a                    15.872735
_cell_length_b                    10.871185
_cell_length_c                    9.619647
_cell_angle_alpha                 88.750514
_cell_angle_beta                  91.343848
_cell_angle_gamma                 93.909646
_cell_volume                      1655.26416115

loop_
_atom_site_label
_atom_site_type_symbol
_atom_type_description
_atom_site_fract_x
_atom_site_fract_y
_atom_site_fract_z
_atom_type_partial_charge
C1    C     C_R   0.500695 0.261822 0.502956 0.538879
C2    C     C_R   0.437173 0.033408 0.878482 -0.113316
C3    C     C_R   0.404967 0.913652 0.856641 -0.114033
C4    C     C_R   0.340023 0.499652 0.498442 0.535447
C5    C     C_R   0.414123 0.860745 0.728148 -0.082475
C6    C     C_R   0.457268 0.926933 0.619586 0.052270
C7    C     C_R   0.476629 0.054940 0.633202 0.041048
C8    C     C_R   0.499275 0.126342 0.510748 -0.009151
C9    C     C_R   0.513473 0.066227 0.386918 -0.166884
C10   C     C_R   0.507862 0.939187 0.382282 -0.177005
C11   C     C_R   0.482563 0.868622 0.498658 -0.002905
C12   C     C_3   0.083286 0.499360 0.493821 0.031626
C13   C     C_R   0.597565 0.681139 0.149550 -0.157074
C14   C     C_R   0.623395 0.791742 0.087100 -0.233027
C15   C     C_R   0.619703 0.803353 0.943211 0.260301
C16   C     C_R   0.492907 0.736150 0.498802 0.549047
C17   C     C_R   0.600495 0.695129 0.866255 0.322137
C18   C     C_R   0.549123 0.592898 0.927107 0.116342
C19   C     C_R   0.548695 0.589843 0.076466 0.103704
C20   C     C_R   0.452717 0.415213 0.073803 -0.005305
C21   C     C_R   0.452499 0.415495 0.926240 -0.025696
C22   C     C_R   0.659879 0.497155 0.501170 0.553105
C23   C     C_3   0.977785 0.604048 0.560422 -0.156511
C24   C     C_3   0.970979 0.401417 0.570006 0.322909
C25   C     C_3   0.021954 0.395105 0.435921 -0.173220
C26   C     C_1   0.250396 0.499968 0.494539 -0.027110
C27   C     C_1   0.749570 0.494459 0.502959 -0.038971
C28   C     C_3   0.032104 0.504409 0.626924 0.276636
C29   C     C_3   0.698300 0.996015 0.934065 0.001036
C30   C     C_3   0.656997 0.097529 0.011001 -0.257359
C31   C     C_3   0.721124 0.171530 0.101994 -0.478748
C32   C     C_3   0.718191 0.732456 0.721700 0.039116
C33   C     C_3   0.725464 0.821158 0.595976 -0.237635
C34   C     C_3   0.917051 0.498832 0.501991 -0.005803
C35   C     C_3   0.816023 0.840932 0.548347 -0.517569
C36   C     C_3   0.994263 0.216009 0.684745 0.030506
C37   C     C_3   0.975874 0.100627 0.598259 -0.284828
C38   C     C_3   0.029346 0.996216 0.647986 -0.497498
C39   C     C_3   0.001470 0.770382 0.290958 0.010888
C40   C     C_3   0.000707 0.759753 0.132715 -0.259768
C41   C     C_3   0.933423 0.835899 0.063518 -0.500615
C42   C     C_3   0.081631 0.610738 0.824950 0.006041
C43   C     C_3   0.155603 0.689894 0.761846 -0.274419
C44   C     C_3   0.179046 0.803449 0.848515 -0.495122
C45   C     C_3   0.029173 0.597067 0.426181 0.257771
C46   C     C_3   0.967489 0.494424 0.366540 -0.143596
C47   C     C_1   0.174895 0.500022 0.492463 -0.014909
C48   C     C_1   0.825200 0.495121 0.503508 -0.038624
C49   C     C_R   0.472428 0.103558 0.768815 -0.085538
Cu1   Cu    Cu3+1 0.499990 0.499990 0.640660 0.973536
Cu2   Cu    Cu3+1 0.500010 0.500010 0.359340 0.927713
H1    H     H_    0.041567 0.311257 0.385316 0.101045
H2    H     H_    0.959600 0.689997 0.607900 0.079216
H3    H     H_    0.531305 0.117642 0.293212 0.132566
H4    H     H_    0.500096 0.192088 0.797727 0.136962
H5    H     H_    0.434270 0.072763 0.980587 0.094669
H6    H     H_    0.736880 0.040938 0.849893 0.148278
H7    H     H_    0.744177 0.947743 0.001566 0.106189
H8    H     H_    0.628797 0.161006 0.933783 0.165231
H9    H     H_    0.605425 0.056941 0.077078 0.160173
H10   H     H_    0.748195 0.110718 0.183342 0.141933
H11   H     H_    0.689454 0.245582 0.153828 0.162800
H12   H     H_    0.374627 0.860599 0.940273 0.111948
H13   H     H_    0.772835 0.214516 0.037647 0.158095
H14   H     H_    0.754804 0.651382 0.704643 0.138393
H15   H     H_    0.749145 0.776242 0.814686 0.109258
H16   H     H_    0.685808 0.783464 0.507911 0.166873
H17   H     H_    0.701861 0.911222 0.623056 0.194874
H18   H     H_    0.859021 0.863407 0.638162 0.142693
H19   H     H_    0.821040 0.917126 0.469602 0.139580
H20   H     H_    0.834704 0.756015 0.499603 0.143936
H21   H     H_    0.986938 0.190545 0.796527 0.157250
H22   H     H_    0.061397 0.251601 0.672435 0.145842
H23   H     H_    0.386239 0.768120 0.714688 0.131473
H24   H     H_    0.908022 0.070414 0.607000 0.178493
H25   H     H_    0.988644 0.122168 0.487117 0.150293
H26   H     H_    0.097632 0.025918 0.643985 0.158152
H27   H     H_    0.016751 0.915507 0.580067 0.153309
H28   H     H_    0.012895 0.967941 0.756126 0.137029
H29   H     H_    0.016879 0.868301 0.317989 0.143694
H30   H     H_    0.936834 0.745248 0.329712 0.116559
H31   H     H_    0.063680 0.792396 0.093314 0.168089
H32   H     H_    0.987899 0.661702 0.104321 0.157347
H33   H     H_    0.869658 0.803260 0.099841 0.141882
H34   H     H_    0.524214 0.896168 0.287309 0.137732
H35   H     H_    0.934645 0.825954 0.948947 0.129665
H36   H     H_    0.945723 0.934956 0.088078 0.143541
H37   H     H_    0.097233 0.592799 0.936392 0.163722
H38   H     H_    0.022871 0.660930 0.823349 0.117608
H39   H     H_    0.211660 0.634394 0.756535 0.182868
H40   H     H_    0.138173 0.720950 0.654922 0.178159
H41   H     H_    0.122815 0.856275 0.864120 0.143970
H42   H     H_    0.227058 0.864179 0.793620 0.154909
H43   H     H_    0.205566 0.775702 0.951466 0.154113
H44   H     H_    0.413669 0.345621 0.128770 0.114897
H45   H     H_    0.614234 0.674638 0.256670 0.198413
H46   H     H_    0.648252 0.865756 0.152643 0.110150
H47   H     H_    0.412623 0.347043 0.871545 0.109289
H48   H     H_    0.939268 0.491734 0.259931 0.114422
N1    N     N_R   0.500800 0.501210 0.147910 -0.230942
N2    N     N_R   0.500830 0.501290 0.852040 -0.237379
O1    O     O_R   0.499990 0.319640 0.618810 -0.524492
O2    O     O_3   0.631930 0.690846 0.734447 -0.502907
O3    O     O_3   0.934227 0.302540 0.650029 -0.558316
O4    O     O_3   0.065200 0.699490 0.350576 -0.567587
O5    O     O_3   0.069269 0.494688 0.761559 -0.574264
O6    O     O_R   0.500000 0.319660 0.381240 -0.507760
O7    O     O_R   0.379070 0.499980 0.618770 -0.512962
O8    O     O_R   0.379080 0.500000 0.381190 -0.489051
O9    O     O_R   0.500000 0.680340 0.618760 -0.447621
O10   O     O_R   0.500010 0.680360 0.381190 -0.529189
O11   O     O_R   0.620920 0.500000 0.618810 -0.437963
O12   O     O_R   0.620930 0.500020 0.381230 -0.525293
O13   O     O_3   0.635668 0.915081 0.870652 -0.557198

loop_
_geom_bond_atom_site_label_1
_geom_bond_atom_site_label_2
_ccdc_geom_bond_type
C27   C48   T    
C4    O8    A    
C10   H34   S    
C23   C45   S    
C1    C8    S    
C31   H10   S    
C40   H32   S    
C46   H48   S    
C16   O9    A    
C7    C8    A    
C45   C46   S    
C41   H35   S    
C4    O7    A    
C37   C38   S    
C12   C28   S    
C36   C37   S    
C30   C31   S    
C38   H28   S    
C33   H17   S    
Cu1   O9    S    
C39   O4    S    
C18   C19   A    
C5    H23   S    
C44   H42   S    
C29   O13   S    
C22   O12   A    
C35   H19   S    
C28   O5    S    
C8    C9    A    
C30   H9    S    
C34   C46   S    
C9    C10   A    
C44   H41   S    
C21   N2    A    
C37   H24   S    
C35   H20   S    
Cu2   O8    S    
C13   C14   A    
Cu1   O7    S    
C31   H11   S    
C12   C47   S    
C45   O4    S    
C23   H2    S    
C41   H36   S    
C32   O2    S    
C43   H39   S    
C13   C19   A    
C13   H45   S    
C40   H31   S    
C24   C25   S    
C7    C49   A    
C36   H22   S    
C6    C11   A    
C38   H27   S    
Cu1   Cu2   S    
C49   H4    S    
C41   H33   S    
C24   C34   S    
C24   O3    S    
C18   N2    A    
C43   C44   S    
C29   C30   S    
C2    C49   A    
C11   C16   S    
C20   N1    A    
C23   C34   S    
C30   H8    S    
Cu1   O11   S    
C17   C18   A    
C15   O13   S    
Cu2   O12   S    
C23   C28   S    
C29   H7    S    
C42   O5    S    
C39   H30   S    
C26   C47   T    
C1    O6    A    
C40   C41   S    
C37   H25   S    
C29   H6    S    
Cu1   O1    S    
C22   O11   A    
C22   C27   S    
C42   H37   S    
C42   C43   S    
C39   C40   S    
C33   H16   S    
C14   H46   S    
C32   H15   S    
Cu2   N1    S    
C15   C17   A    
Cu2   O10   S    
C31   H13   S    
C20   H44   S    
C24   C28   S    
C12   C45   S    
C3    C5    A    
C4    C26   S    
C19   N1    A    
C6    C7    A    
C38   H26   S    
C3    H12   S    
C12   C25   S    
C36   O3    S    
C42   H38   S    
C32   C33   S    
C2    C3    A    
C17   O2    S    
C25   H1    S    
C2    H5    S    
C39   H29   S    
C21   H47   S    
C5    C6    A    
C1    O1    A    
C33   C35   S    
C43   H40   S    
C44   H43   S    
C10   C11   A    
C34   C48   S    
C20   C21   A    
C35   H18   S    
Cu1   N2    S    
Cu2   O6    S    
C14   C15   A    
C9    H3    S    
C25   C46   S    
C36   H21   S    
C16   O10   A    
C32   H14   S    
