data_str_m9_o2_o25_f0_sra.sym.59
_audit_creation_date              2012-12-11T16:33:27-0500
_audit_creation_method            fapswitch 2.2
_symmetry_space_group_name_H-M    P1
_symmetry_Int_Tables_number       1
_space_group_crystal_system       triclinic
_cell_length_a                    6.946385
_cell_length_b                    18.140044
_cell_length_c                    20.304
_cell_angle_alpha                 68.55681
_cell_angle_beta                  90.289381
_cell_angle_gamma                 90.934467
_cell_volume                      2381.04770744

loop_
_atom_site_label
_atom_site_type_symbol
_atom_type_description
_atom_site_fract_x
_atom_site_fract_y
_atom_site_fract_z
_atom_type_partial_charge
O1    O     O_R   0.488960 0.443750 0.941980 -0.539718
O2    O     O_R   0.823890 0.406510 0.087590 -0.537587
O3    O     O_R   0.999680 0.556250 0.058020 -0.536631
C1    C     C_R   0.654490 0.384783 0.115723 0.783252
O4    O     O_R   0.818360 0.434410 0.944340 -0.537874
O5    O     O_R   0.994110 0.584350 0.913750 -0.535896
C2    C     C_R   0.648915 0.419994 0.924133 0.715815
O6    O     O_R   0.494530 0.415650 0.086250 -0.533860
O7    O     O_3   0.662590 0.549160 0.990130 -0.367941
V1    V     V_3+5 0.935320 0.490880 0.001830 1.430568
O8    O     O_R   0.324180 0.593490 0.912410 -0.541600
C3    C     C_R   0.156140 0.616819 0.885104 0.692161
O9    O     O_R   0.329720 0.565590 0.055660 -0.535274
C4    C     C_R   0.162035 0.580482 0.075437 0.714542
V2    V     V_3+5 0.435990 0.509120 0.998170 1.423265
O10   O     O_3   0.158850 0.450840 0.009870 -0.367851
C5    C     C_3   0.082512 0.704046 0.313503 -0.219302
C6    C     C_3   0.261091 0.697598 0.271155 0.339771
H1    H     H_    0.045016 0.663454 0.367912 0.127459
H2    H     H_    0.451512 0.813642 0.251128 0.156875
C7    C     C_1   0.155947 0.627209 0.120002 -0.216934
C8    C     C_1   0.110618 0.877261 0.376030 -0.211861
C9    C     C_3   0.957078 0.719658 0.245811 -0.249862
C10   C     C_3   0.138956 0.712053 0.204547 0.058162
C11   C     C_3   0.003396 0.809152 0.223510 0.363082
C12   C     C_3   0.126204 0.794108 0.290092 0.038751
C13   C     C_3   0.181639 0.801800 0.181914 0.126867
C14   C     C_3   0.308053 0.786938 0.248818 -0.219010
C15   C     C_1   0.149003 0.665604 0.157923 -0.030567
C16   C     C_1   0.117305 0.839814 0.337314 -0.024014
H3    H     H_    0.813507 0.692896 0.243695 0.157153
H4    H     H_    0.440143 0.542543 0.698823 0.129613
C17   C     C_R   0.006981 0.769195 0.874457 -0.133078
C18   C     C_R   0.933959 0.841457 0.871368 -0.120251
C19   C     C_R   0.921677 0.904219 0.806894 -0.117570
C20   C     C_R   0.981556 0.895102 0.744958 -0.146896
C21   C     C_R   0.054388 0.822108 0.746109 0.052051
C22   C     C_R   0.068320 0.757948 0.812442 0.076051
C23   C     C_R   0.113715 0.812747 0.682723 -0.193822
C24   C     C_R   0.185834 0.738114 0.686062 0.039752
C25   C     C_R   0.216063 0.676841 0.753450 0.026305
C26   C     C_R   0.148859 0.685214 0.816202 -0.170352
C27   C     C_R   0.225213 0.721091 0.624131 0.291164
C28   C     C_R   0.324340 0.652398 0.629652 -0.177401
C29   C     C_R   0.368097 0.596352 0.695288 -0.175578
C30   C     C_R   0.308512 0.606722 0.756427 -0.150124
H5    H     H_    0.017143 0.722778 0.926140 0.098827
H6    H     H_    0.888217 0.848979 0.919395 0.108952
H7    H     H_    0.866043 0.960445 0.804835 0.113482
H8    H     H_    0.970121 0.946110 0.696399 0.105109
H9    H     H_    0.357765 0.640167 0.582628 0.111645
H10   H     H_    0.336448 0.558808 0.805872 0.127629
H11   H     H_    0.692253 0.385288 0.421067 0.126279
C31   C     C_R   0.608056 0.097920 0.255974 -0.138397
C32   C     C_R   0.607313 0.083241 0.193283 -0.130069
C33   C     C_R   0.619588 0.145749 0.128668 -0.115533
C34   C     C_R   0.631671 0.223349 0.126346 -0.132359
C35   C     C_R   0.632253 0.240276 0.189260 0.055256
C36   C     C_R   0.621314 0.176329 0.255544 0.067859
C37   C     C_R   0.640596 0.319466 0.186241 -0.178635
C38   C     C_R   0.637873 0.335813 0.250095 -0.013447
C39   C     C_R   0.644766 0.271134 0.317640 0.017226
C40   C     C_R   0.626355 0.190719 0.319819 -0.160102
C41   C     C_R   0.630334 0.415584 0.248663 0.262293
C42   C     C_R   0.650899 0.430398 0.310954 -0.207751
C43   C     C_R   0.675475 0.369800 0.374569 -0.157855
C44   C     C_R   0.669799 0.290944 0.379790 0.151086
H12   H     H_    0.598962 0.046736 0.304629 0.106302
H13   H     H_    0.597460 0.022964 0.194935 0.123640
H14   H     H_    0.619179 0.134120 0.080020 0.111967
H15   H     H_    0.639652 0.269782 0.074524 0.084948
H16   H     H_    0.643781 0.489941 0.310815 0.144746
O11   O     O_R   0.770540 0.084530 0.414050 -0.539192
O12   O     O_R   0.445710 0.065660 0.555720 -0.541088
O13   O     O_R   0.270420 0.915650 0.586190 -0.535014
C45   C     C_R   0.614110 0.075342 0.579885 0.721918
O14   O     O_R   0.441140 0.093540 0.412470 -0.538651
O15   O     O_R   0.265820 0.943740 0.441930 -0.534174
C46   C     C_R   0.611812 0.120081 0.387521 0.710965
O16   O     O_R   0.775150 0.056440 0.558310 -0.540986
O17   O     O_3   0.602370 0.950960 0.510050 -0.368282
V3    V     V_3+5 0.329450 0.009140 0.498150 1.425857
O18   O     O_R   0.935790 0.934280 0.444060 -0.536032
C47   C     C_R   0.103522 0.922089 0.422209 0.765966
O19   O     O_R   0.940370 0.906390 0.587310 -0.538646
C48   C     C_R   0.108320 0.882359 0.614372 0.782074
V4    V     V_3+5 0.828810 0.990710 0.501460 1.414291
O20   O     O_3   0.105780 0.049100 0.489960 -0.373357
C49   C     C_3   0.746275 0.309394 0.726129 -0.172135
C50   C     C_3   0.565254 0.290461 0.689524 -0.169618
H17   H     H_    0.512011 0.327495 0.636209 0.120457
H18   H     H_    0.841336 0.362415 0.703317 0.121178
H19   H     H_    0.301431 0.287744 0.764777 0.120614
C51   C     C_1   0.623268 0.120084 0.626180 -0.186394
C52   C     C_1   0.638920 0.373249 0.879553 -0.193285
C53   C     C_3   0.811044 0.222016 0.748020 -0.180741
C54   C     C_3   0.629810 0.203679 0.711965 0.127370
C55   C     C_3   0.695308 0.200830 0.817593 0.201787
C56   C     C_3   0.631389 0.287195 0.795794 0.127953
C57   C     C_3   0.516018 0.182093 0.781354 0.195338
C58   C     C_3   0.450110 0.268823 0.759749 -0.180350
C59   C     C_1   0.627544 0.157659 0.664872 -0.046935
C60   C     C_1   0.634136 0.334350 0.841961 -0.045229
H20   H     H_    0.959465 0.202631 0.743378 0.121893
N1    N     N_2   0.401570 0.635550 0.296713 -0.531628
H21   H     H_    0.346247 0.580619 0.301912 0.254595
C61   C     C_3   0.509459 0.634925 0.357987 -0.586587
H22   H     H_    0.620849 0.588591 0.370900 0.190366
H23   H     H_    0.412122 0.621847 0.404267 0.193957
H24   H     H_    0.583415 0.692934 0.347107 0.216881
N2    N     N_2   0.141944 0.765582 0.557665 -0.536799
H25   H     H_    0.225385 0.767455 0.515177 0.243351
C62   C     C_3   0.945047 0.741522 0.551023 -0.539269
H26   H     H_    0.886056 0.778431 0.498738 0.198048
H27   H     H_    0.852950 0.748870 0.592732 0.208461
H28   H     H_    0.939020 0.678600 0.555439 0.181793
N3    N     N_2   0.577139 0.480100 0.186587 -0.516988
H29   H     H_    0.430004 0.485230 0.180981 0.255383
C63   C     C_3   0.677244 0.555210 0.171377 -0.498704
H30   H     H_    0.669922 0.590184 0.113820 0.218933
H31   H     H_    0.830660 0.545597 0.187164 0.194031
H32   H     H_    0.608215 0.589848 0.199684 0.188650
C64   C     C_3   0.690767 0.232064 0.453397 -0.764764
H33   H     H_    0.716990 0.259904 0.493210 0.189020
H34   H     H_    0.553015 0.199072 0.468229 0.201006
H35   H     H_    0.816616 0.194334 0.456483 0.223245
C65   C     C_3   0.384464 0.109858 0.812709 -0.805958
H36   H     H_    0.319600 0.109853 0.862550 0.213571
H37   H     H_    0.268102 0.111422 0.774589 0.208373
H38   H     H_    0.468747 0.055136 0.824023 0.214230
C66   C     C_3   0.770051 0.149734 0.890248 -0.812921
H39   H     H_    0.805016 0.090073 0.890690 0.210477
H40   H     H_    0.901838 0.177593 0.902605 0.212557
H41   H     H_    0.658532 0.143947 0.930866 0.210587
C67   C     C_3   0.235835 0.855914 0.107151 -0.802270
H42   H     H_    0.250415 0.917929 0.104531 0.209302
H43   H     H_    0.373784 0.836773 0.091892 0.210576
H44   H     H_    0.123973 0.852096 0.069358 0.211993
N4    N     N_2   0.863974 0.871909 0.200063 -0.521448
H45   H     H_    0.920525 0.926597 0.195059 0.255994
C68   C     C_3   0.744945 0.873826 0.140976 -0.580608
H46   H     H_    0.624151 0.914853 0.135752 0.200246
H47   H     H_    0.684330 0.814039 0.149443 0.211205
H48   H     H_    0.829104 0.895798 0.091140 0.198653

loop_
_geom_bond_atom_site_label_1
_geom_bond_atom_site_label_2
_ccdc_geom_bond_type
C67   H44   S    
C56   C60   S    
V4    O20   S    
C57   C65   S    
H4    C29   S    
O18   V4    S    
C19   C20   A    
C10   C13   S    
C1    O6    A    
C66   H41   S    
O17   V3    S    
C50   H17   S    
C67   H42   S    
C40   C46   S    
O19   C48   A    
N1    C61   S    
C21   C22   A    
O12   C45   A    
C39   C44   A    
C49   C56   S    
C6    C10   S    
C5    C12   S    
C4    C7    S    
C20   C21   A    
C11   N4    S    
C22   C26   A    
O16   V4    S    
N3    C63   S    
O5    C3    A    
C64   H34   S    
C31   H12   S    
C35   C37   A    
V2    O10   S    
C30   H10   S    
C33   C34   A    
C18   C19   A    
C25   C26   A    
C10   C15   S    
O11   V4    S    
C3    C26   S    
C45   C51   S    
O8    V2    S    
C24   C27   A    
N2    H25   S    
C53   C55   S    
C55   C66   S    
C19   H7    S    
C25   C30   A    
O1    V2    S    
O7    V1    S    
C50   C54   S    
C54   C59   S    
C62   H28   S    
O19   V4    S    
C43   C44   A    
O9    C4    A    
C61   H23   S    
C27   N2    S    
O12   V3    S    
C52   C60   T    
C17   C18   A    
C31   C36   A    
C63   H31   S    
C64   H33   S    
C6    C14   S    
C63   H30   S    
C68   H48   S    
H19   C58   S    
C23   C24   A    
O4    C2    A    
C64   H35   S    
H2    C14   S    
C35   C36   A    
C29   C30   A    
C7    C15   T    
C41   N3    S    
C37   C38   A    
C68   H47   S    
C8    C47   S    
C38   C41   A    
O2    C1    A    
C27   C28   A    
C65   H37   S    
C50   C58   S    
C39   C40   A    
O15   V3    S    
O13   C48   A    
O18   C47   A    
C61   H22   S    
C53   C54   S    
C1    C37   S    
C32   C33   A    
C5    C6    S    
O11   C46   A    
O14   C46   A    
N2    C62   S    
C5    C9    S    
C34   H15   S    
C49   H18   S    
H11   C43   S    
O17   V4    S    
O3    C4    A    
C28   H9    S    
C24   C25   A    
C56   C58   S    
C12   C16   S    
O6    V2    S    
C33   H14   S    
O9    V2    S    
C17   H5    S    
C61   H24   S    
C18   H6    S    
C42   C43   A    
C65   H36   S    
O2    V1    S    
C54   C57   S    
C20   H8    S    
C28   C29   A    
C62   H26   S    
C63   H32   S    
C67   H43   S    
C31   C32   A    
C8    C16   T    
O1    C2    A    
C12   C14   S    
C45   O16   A    
C66   H40   S    
C44   C64   S    
O5    V1    S    
N4    H45   S    
O13   V3    S    
C11   C13   S    
C42   H16   S    
C2    C52   S    
N1    H21   S    
C36   C40   A    
C17   C22   A    
C13   C67   S    
C41   C42   A    
C32   H13   S    
C49   C53   S    
C53   H20   S    
C11   C12   S    
C65   H38   S    
O4    V1    S    
C21   C23   A    
O3    V1    S    
V1    O10   S    
C68   H46   S    
N4    C68   S    
C34   C35   A    
O14   V3    S    
V3    O20   S    
C57   C58   S    
C5    H1    S    
C9    C11   S    
O7    V2    S    
C38   C39   A    
C55   C57   S    
C6    N1    S    
C9    C10   S    
O15   C47   A    
C51   C59   T    
C55   C56   S    
C13   C14   S    
C23   C48   S    
C49   C50   S    
N3    H29   S    
C66   H39   S    
O8    C3    A    
C9    H3    S    
C62   H27   S    
