data_str_m4_o19_o22_f0_acs.sym.82
_audit_creation_date              2012-12-11T14:38:30-0500
_audit_creation_method            fapswitch 2.2
_symmetry_space_group_name_H-M    P1
_symmetry_Int_Tables_number       1
_space_group_crystal_system       triclinic
_cell_length_a                    19.563243
_cell_length_b                    11.284296
_cell_length_c                    19.677951
_cell_angle_alpha                 89.878178
_cell_angle_beta                  96.409181
_cell_angle_gamma                 89.812125
_cell_volume                      4316.86686142

loop_
_atom_site_label
_atom_site_type_symbol
_atom_type_description
_atom_site_fract_x
_atom_site_fract_y
_atom_site_fract_z
_atom_type_partial_charge
C1    C     C_R   0.723085 0.958215 0.361677 0.601551
C2    C     C_3   0.169947 0.477103 0.469535 0.270100
C3    C     C_2   0.987003 0.908273 0.061543 0.604343
C4    C     C_2   0.630992 0.461885 0.564195 0.583761
C5    C     C_2   0.369035 0.460948 0.435788 0.583977
C6    C     C_2   0.131015 0.961069 0.564157 0.583605
C7    C     C_2   0.869039 0.960783 0.435809 0.583878
C8    C     C_3   0.330071 0.976701 0.529985 0.270364
C9    C     C_3   0.669939 0.977097 0.469544 0.270116
C10   C     C_3   0.761633 0.301795 0.553223 -0.316072
C11   C     C_3   0.238687 0.301512 0.447271 -0.315853
C12   C     C_3   0.261779 0.801850 0.553219 -0.316296
C13   C     C_3   0.738687 0.801539 0.447280 -0.315881
C14   C     C_3   0.765128 0.433111 0.565063 -0.013435
C15   C     C_3   0.234962 0.432775 0.434843 -0.014485
C16   C     C_3   0.265178 0.933175 0.565049 -0.013331
C17   C     C_R   0.277079 0.958664 0.638163 0.597976
C18   C     C_3   0.734957 0.932794 0.434849 -0.014520
C19   C     C_3   0.749680 0.399120 0.433186 0.003332
C20   C     C_3   0.250191 0.399445 0.566830 0.006490
C21   C     C_3   0.249712 0.899205 0.433173 0.003300
C22   C     C_3   0.750200 0.899498 0.566840 0.006410
C23   C     C_3   0.816424 0.469938 0.451207 0.278216
C24   C     C_3   0.183373 0.470798 0.548386 0.276658
C25   C     C_3   0.316474 0.969979 0.451181 0.278246
C26   C     C_3   0.683359 0.970780 0.548393 0.276646
C27   C     C_3   0.759635 0.283849 0.476177 -0.318966
C28   C     C_R   0.223090 0.458202 0.361673 0.601604
C29   C     C_3   0.240389 0.284032 0.524343 -0.317387
C30   C     C_3   0.259656 0.783923 0.476162 -0.319133
C31   C     C_3   0.740464 0.784084 0.524361 -0.317501
C32   C     C_3   0.513903 0.304584 0.956608 -0.056391
C33   C     C_3   0.528584 0.307210 0.034091 -0.050252
C34   C     C_3   0.013896 0.804589 0.956610 -0.056389
C35   C     C_3   0.028569 0.807216 0.034094 -0.050250
C36   C     C_3   0.425276 0.143650 0.968426 -0.250945
C37   C     C_3   0.566298 0.091898 0.031622 -0.261243
C38   C     C_3   0.925277 0.643636 0.968426 -0.250938
C39   C     C_R   0.777050 0.458610 0.638179 0.597958
C40   C     C_3   0.066306 0.591913 0.031621 -0.261242
C41   C     C_3   0.547097 0.085139 0.953547 -0.248864
C42   C     C_3   0.442990 0.137027 0.046419 -0.241320
C43   C     C_3   0.047102 0.585148 0.953547 -0.248861
C44   C     C_3   0.942993 0.637004 0.046419 -0.241316
C45   C     C_R   0.535888 0.180224 0.338251 0.586488
C46   C     C_R   0.464145 0.180192 0.661778 0.590403
C47   C     C_R   0.035884 0.680220 0.338249 0.586428
C48   C     C_R   0.964138 0.680190 0.661773 0.590316
C49   C     C_3   0.489993 0.177035 0.932349 0.021910
C50   C     C_3   0.686663 0.467028 0.453538 -0.239789
C51   C     C_3   0.517356 0.179412 0.064856 0.003679
C52   C     C_3   0.989993 0.677035 0.932349 0.021913
C53   C     C_3   0.017355 0.679411 0.064856 0.003681
C54   C     C_1   0.759158 0.416614 0.901787 0.006279
C55   C     C_1   0.237581 0.429131 0.095246 0.002518
C56   C     C_1   0.259157 0.916611 0.901786 0.006260
C57   C     C_1   0.737579 0.929135 0.095244 0.002491
C58   C     C_1   0.737578 0.366082 0.027587 -0.011673
C59   C     C_1   0.251185 0.406659 0.965117 -0.013573
C60   C     C_1   0.237574 0.866073 0.027585 -0.011669
C61   C     C_3   0.313146 0.466801 0.546292 -0.239401
C62   C     C_1   0.751182 0.906665 0.965116 -0.013549
C63   C     C_1   0.747943 0.391594 0.959141 0.014205
C64   C     C_1   0.245288 0.417383 0.035702 -0.020057
C65   C     C_1   0.247940 0.891587 0.959140 0.014204
C66   C     C_1   0.745285 0.917388 0.035700 -0.020069
C67   C     C_1   0.730351 0.343952 0.086367 -0.008425
C68   C     C_1   0.256013 0.391408 0.905226 0.010078
C69   C     C_1   0.230348 0.843943 0.086365 -0.008435
C70   C     C_1   0.756012 0.891411 0.905225 0.010092
C71   C     C_R   0.739751 0.362564 0.360924 0.593052
C72   C     C_3   0.186733 0.967229 0.453532 -0.239981
C73   C     C_R   0.260128 0.362808 0.639165 0.582602
C74   C     C_R   0.239761 0.862600 0.360913 0.593081
C75   C     C_R   0.760126 0.862830 0.639172 0.582549
C76   C     C_R   0.722101 0.955193 0.163145 0.540385
C77   C     C_R   0.277716 0.953982 0.836520 0.531036
C78   C     C_R   0.222101 0.455192 0.163145 0.540377
C79   C     C_R   0.777717 0.453983 0.836520 0.530981
C80   C     C_R   0.536056 0.180701 0.139505 0.520589
C81   C     C_R   0.467557 0.179568 0.858675 0.577407
C82   C     C_R   0.036056 0.680701 0.139505 0.520578
C83   C     C_3   0.813129 0.966931 0.546302 -0.239477
C84   C     C_R   0.967557 0.679568 0.858675 0.577409
C85   C     C_R   0.723127 0.313081 0.156061 0.532546
C86   C     C_R   0.263964 0.357126 0.836429 0.545557
C87   C     C_R   0.223125 0.813075 0.156061 0.532537
C88   C     C_R   0.763964 0.857127 0.836429 0.545535
C89   C     C_1   0.486498 0.171112 0.594852 0.125016
C90   C     C_1   0.513785 0.171047 0.405293 0.127238
C91   C     C_1   0.986471 0.671090 0.594840 0.125146
C92   C     C_1   0.013765 0.671021 0.405283 0.127087
C93   C     C_1   0.504136 0.165012 0.464765 0.086751
C94   C     C_3   0.830043 0.476560 0.530013 0.270352
C95   C     C_1   0.496373 0.165064 0.535455 0.085408
C96   C     C_1   0.004102 0.664957 0.464751 0.087097
C97   C     C_1   0.996334 0.665011 0.535440 0.086112
C98   C     C_3   0.696105 0.488529 0.530774 -0.126845
C99   C     C_3   0.303785 0.488015 0.468976 -0.127267
C100  C     C_3   0.196084 0.988431 0.530806 -0.126755
C101  C     C_3   0.803793 0.988024 0.468969 -0.127227
C102  C     C_2   0.572715 0.356416 0.921528 0.556469
C103  C     C_2   0.487035 0.408291 0.061542 0.604362
C104  C     C_2   0.072711 0.856428 0.921537 0.556471
Cr1   Cr    Cr6+3 0.765780 0.160710 0.267420 1.091939
Cr2   Cr    Cr6+3 0.383970 0.323720 0.751490 1.073665
Cr3   Cr    Cr6+3 0.116030 0.823720 0.248510 1.096139
Cr4   Cr    Cr6+3 0.883970 0.823720 0.751490 1.073626
Cr5   Cr    Cr6+3 0.234220 0.160710 0.732580 1.102010
Cr6   Cr    Cr6+3 0.265780 0.660710 0.267420 1.092024
Cr7   Cr    Cr6+3 0.734220 0.660710 0.732580 1.102212
Cr8   Cr    Cr6+3 0.612200 0.009560 0.248850 1.060159
Cr9   Cr    Cr6+3 0.387800 0.009560 0.751150 1.059510
Cr10  Cr    Cr6+3 0.112200 0.509560 0.248850 1.060126
Cr11  Cr    Cr6+3 0.887800 0.509560 0.751150 1.059492
Cr12  Cr    Cr6+3 0.616030 0.323720 0.248510 1.096152
F1    F     F_    0.354819 0.084867 0.551916 -0.683907
F2    F     F_    0.645433 0.085513 0.447019 -0.683570
F3    F     F_    0.854811 0.584699 0.551970 -0.683888
F4    F     F_    0.145461 0.585528 0.447003 -0.683661
F5    F     F_    0.312325 0.079209 0.420580 -0.655354
F6    F     F_    0.687307 0.080239 0.578378 -0.658215
F7    F     F_    0.812221 0.579206 0.420660 -0.655406
F8    F     F_    0.187363 0.580262 0.578361 -0.658086
H1    H     H_    0.703987 0.580486 0.537409 0.148246
H2    H     H_    0.126291 0.416045 0.454035 0.117774
H3    H     H_    0.373763 0.915188 0.545646 0.118020
H4    H     H_    0.626290 0.916026 0.454040 0.117833
H5    H     H_    0.860673 0.423874 0.431583 0.125099
H6    H     H_    0.139129 0.425279 0.568132 0.124007
H7    H     H_    0.360714 0.923833 0.431589 0.125119
H8    H     H_    0.639127 0.925205 0.568129 0.124111
H9    H     H_    0.469829 0.366075 0.942216 0.159352
H10   H     H_    0.584007 0.328821 0.047767 0.126284
H11   H     H_    0.969822 0.866077 0.942215 0.159360
H12   H     H_    0.295606 0.579974 0.461787 0.149283
H13   H     H_    0.083989 0.828849 0.047774 0.126313
H14   H     H_    0.383731 0.210518 0.956000 0.145303
H15   H     H_    0.620624 0.121546 0.042726 0.103261
H16   H     H_    0.883729 0.710499 0.956003 0.145323
H17   H     H_    0.120629 0.621577 0.042724 0.103260
H18   H     H_    0.406094 0.190613 0.072550 0.182584
H19   H     H_    0.593415 0.100142 0.926949 0.178303
H20   H     H_    0.906092 0.690574 0.072553 0.182572
H21   H     H_    0.093417 0.600151 0.926946 0.178305
H22   H     H_    0.528247 0.994545 0.939459 0.147032
H23   H     H_    0.203714 0.080447 0.537634 0.147959
H24   H     H_    0.437997 0.043864 0.063901 0.135667
H25   H     H_    0.028255 0.494550 0.939462 0.147023
H26   H     H_    0.938010 0.543837 0.063897 0.135668
H27   H     H_    0.563267 0.001181 0.053373 0.168931
H28   H     H_    0.404286 0.056506 0.949857 0.141039
H29   H     H_    0.063284 0.501193 0.053373 0.168926
H30   H     H_    0.904292 0.556490 0.949854 0.141040
H31   H     H_    0.638901 0.416191 0.438136 0.155560
H32   H     H_    0.360995 0.415714 0.561971 0.155986
H33   H     H_    0.138904 0.916661 0.437982 0.155607
H34   H     H_    0.795674 0.079981 0.461707 0.149194
H35   H     H_    0.861009 0.915957 0.562030 0.155917
H36   H     H_    0.680689 0.552438 0.425371 0.163616
H37   H     H_    0.318906 0.552323 0.574081 0.162405
H38   H     H_    0.180914 0.052752 0.425474 0.163628
H39   H     H_    0.818824 0.052490 0.574052 0.162377
H40   H     H_    0.807116 0.255368 0.580209 0.145516
H41   H     H_    0.193403 0.255247 0.420305 0.147182
H42   H     H_    0.307342 0.755517 0.580125 0.145384
H43   H     H_    0.693388 0.755246 0.420356 0.147273
H44   H     H_    0.716454 0.267440 0.574569 0.251116
H45   H     H_    0.811719 0.251466 0.468100 0.121589
H46   H     H_    0.284102 0.266776 0.426412 0.252434
H47   H     H_    0.216696 0.767355 0.574676 0.251340
H48   H     H_    0.784080 0.766809 0.426371 0.252467
H49   H     H_    0.719645 0.222138 0.458591 0.250902
H50   H     H_    0.280140 0.221670 0.542538 0.250199
H51   H     H_    0.219606 0.722280 0.458629 0.250782
H52   H     H_    0.780308 0.721851 0.542528 0.250116
H53   H     H_    0.634605 0.342177 0.846327 0.345475
H54   H     H_    0.394272 0.478616 0.073447 0.345618
H55   H     H_    0.134603 0.842202 0.846337 0.345496
H56   H     H_    0.188243 0.252422 0.532383 0.121590
H57   H     H_    0.894227 0.978527 0.073453 0.345642
H58   H     H_    0.615568 0.298558 0.522688 0.328993
H59   H     H_    0.384741 0.297755 0.477969 0.328455
H60   H     H_    0.115917 0.797985 0.522211 0.329484
H61   H     H_    0.884673 0.797680 0.478129 0.328396
H62   H     H_    0.311703 0.751456 0.468011 0.121944
H63   H     H_    0.688347 0.752384 0.532451 0.122117
H64   H     H_    0.873707 0.414980 0.545654 0.117923
O1    O     O_R   0.783100 0.287550 0.345460 -0.514996
O2    O     O_R   0.454350 0.284910 0.836260 -0.505738
O3    O     O_R   0.045650 0.784910 0.163740 -0.496562
O4    O     O_R   0.954350 0.784910 0.836260 -0.505727
O5    O     O_R   0.677950 0.374280 0.185410 -0.470048
O6    O     O_R   0.322050 0.374280 0.814590 -0.500660
O7    O     O_R   0.177950 0.874280 0.185410 -0.470062
O8    O     O_R   0.822050 0.874280 0.814590 -0.500673
O9    O     O_3   0.664670 0.164660 0.254930 -0.305956
O10   O     O_3   0.335330 0.164660 0.745070 -0.285033
O11   O     O_3   0.164670 0.664660 0.254930 -0.305928
O12   O     O_R   0.216900 0.287550 0.654540 -0.519136
O13   O     O_3   0.835330 0.664660 0.745070 -0.285012
O14   O     O_R   0.760020 0.037400 0.337700 -0.470505
O15   O     O_R   0.239980 0.037400 0.662300 -0.472518
O16   O     O_R   0.260020 0.537400 0.337700 -0.470448
O17   O     O_R   0.739980 0.537400 0.662300 -0.472431
O18   O     O_R   0.666600 0.921990 0.332020 -0.505194
O19   O     O_R   0.333400 0.921990 0.667980 -0.509612
O20   O     O_R   0.166600 0.421990 0.332020 -0.505217
O21   O     O_R   0.833400 0.421990 0.667980 -0.509543
O22   O     O_R   0.557260 0.082670 0.312540 -0.476521
O23   O     O_R   0.283100 0.787550 0.345460 -0.514895
O24   O     O_R   0.442740 0.082670 0.687460 -0.478757
O25   O     O_R   0.057260 0.582670 0.312540 -0.476545
O26   O     O_R   0.942740 0.582670 0.687460 -0.478712
O27   O     O_R   0.548410 0.285740 0.316480 -0.488194
O28   O     O_R   0.451590 0.285740 0.683520 -0.486277
O29   O     O_R   0.048410 0.785740 0.316480 -0.488169
O30   O     O_R   0.951590 0.785740 0.683520 -0.486324
O31   O     O_R   0.680500 0.375040 0.327000 -0.491528
O32   O     O_R   0.319500 0.375040 0.673000 -0.497701
O33   O     O_R   0.180500 0.875040 0.327000 -0.491558
O34   O     O_R   0.716900 0.787550 0.654540 -0.518836
O35   O     O_R   0.819500 0.875040 0.673000 -0.497773
O36   O     O_R   0.780350 0.286720 0.192720 -0.495475
O37   O     O_R   0.219650 0.286720 0.807280 -0.498486
O38   O     O_R   0.280350 0.786720 0.192720 -0.495470
O39   O     O_R   0.719650 0.786720 0.807280 -0.498475
O40   O     O_R   0.757470 0.036630 0.196110 -0.510076
O41   O     O_R   0.242530 0.036630 0.803890 -0.487335
O42   O     O_R   0.257470 0.536630 0.196110 -0.510089
O43   O     O_R   0.742530 0.536630 0.803890 -0.487379
O44   O     O_R   0.663840 0.921160 0.179280 -0.501608
O45   O     O_R   0.554710 0.081900 0.170950 -0.513987
O46   O     O_R   0.336160 0.921160 0.820720 -0.511892
O47   O     O_R   0.163840 0.421160 0.179280 -0.501619
O48   O     O_R   0.836160 0.421160 0.820720 -0.511920
O49   O     O_2   0.591324 0.457988 0.934692 -0.497421
O50   O     O_R   0.602256 0.292686 0.871282 -0.705365
O51   O     O_2   0.517146 0.493614 0.088803 -0.463807
O52   O     O_R   0.415166 0.405839 0.053662 -0.732411
O53   O     O_2   0.091320 0.957997 0.934705 -0.497434
O54   O     O_R   0.102255 0.792706 0.871292 -0.705347
O55   O     O_2   0.017097 0.993598 0.088817 -0.463807
O56   O     O_R   0.445290 0.081900 0.829050 -0.514615
O57   O     O_R   0.915135 0.905795 0.053648 -0.732463
O58   O     O_2   0.606140 0.539294 0.597235 -0.448944
O59   O     O_R   0.597049 0.353452 0.556768 -0.659840
O60   O     O_2   0.393807 0.538119 0.402531 -0.447200
O61   O     O_R   0.403172 0.352336 0.443655 -0.660737
O62   O     O_2   0.106036 0.037977 0.597451 -0.448813
O63   O     O_R   0.097261 0.852501 0.556401 -0.659871
O64   O     O_2   0.893839 0.037826 0.402482 -0.447203
O65   O     O_R   0.903142 0.852153 0.443783 -0.660792
O66   O     O_R   0.054710 0.581900 0.170950 -0.513991
O67   O     O_R   0.945290 0.581900 0.829050 -0.514618
O68   O     O_R   0.545650 0.284910 0.163740 -0.496557

loop_
_geom_bond_atom_site_label_1
_geom_bond_atom_site_label_2
_ccdc_geom_bond_type
C10   C27   S    
Cr2   O32   S    
C8    C25   S    
C4    C98   S    
C82   O3    A    
C76   O40   A    
C68   C86   S    
C47   C92   S    
C88   O8    A    
C19   C71   S    
Cr6   O23   S    
C103  O51   D    
C24   F8    S    
C57   C66   T    
C70   C88   S    
C27   H49   S    
H54   O52   S    
Cr1   O14   S    
Cr2   O6    S    
C46   C89   S    
C48   O30   A    
C47   O29   A    
C74   O33   A    
C62   C70   T    
C59   C64   S    
C6    O63   S    
C90   C93   T    
C61   H37   S    
Cr9   O19   S    
C81   O56   A    
C94   H64   S    
C79   O48   A    
C41   H19   S    
C7    C101  S    
H61   O65   S    
C32   H9    S    
C37   C51   S    
H57   O57   S    
C43   C52   S    
C13   H43   S    
C88   O39   A    
C35   C53   S    
C54   C63   T    
C100  H23   S    
C56   C65   T    
C73   O12   A    
C47   O25   A    
C92   C96   T    
C71   O31   A    
C23   H5    S    
Cr6   O16   S    
C34   C35   S    
C35   H13   S    
Cr1   O40   S    
C49   C81   S    
C20   C61   S    
C52   C84   S    
C83   C101  S    
C51   C80   S    
C83   H39   S    
Cr6   O42   S    
C14   C39   S    
Cr3   O29   S    
Cr5   O41   S    
C44   C53   S    
C41   C49   S    
C13   H48   S    
C41   H22   S    
C12   C16   S    
C75   O34   A    
C3    O57   S    
C78   O47   A    
C48   C91   S    
C44   H26   S    
C30   H51   S    
C42   H18   S    
C82   O66   A    
Cr9   O10   S    
C84   O4    A    
Cr4   O8    S    
C19   C27   S    
C29   H50   S    
C2    C24   S    
C69   C87   S    
C42   C51   S    
Cr2   O10   S    
Cr4   O30   S    
Cr9   O56   S    
Cr1   O9    S    
C103  O52   S    
C75   O35   A    
C8    C16   S    
C40   H17   S    
C7    O65   S    
Cr3   O33   S    
C9    F2    S    
Cr10  O25   S    
Cr7   O13   S    
Cr5   O10   S    
C61   C99   S    
C11   C15   S    
C22   C75   S    
C37   H27   S    
Cr12  O27   S    
C1    O14   A    
C33   H10   S    
Cr3   O7    S    
Cr11  O48   S    
C8    F1    S    
C14   C98   S    
C12   H47   S    
C20   C29   S    
C98   H1    S    
Cr9   O46   S    
Cr10  O66   S    
C12   H42   S    
C48   O26   A    
C67   C85   S    
C9    H4    S    
C102  O50   S    
C22   C31   S    
C62   C66   S    
C21   C72   S    
C28   O16   A    
H60   O63   S    
C20   C24   S    
Cr5   O15   S    
C5    O61   S    
C10   C14   S    
C50   C98   S    
Cr4   O35   S    
Cr11  O21   S    
C16   C17   S    
C36   H28   S    
C9    C26   S    
C50   H36   S    
C20   C73   S    
C32   C49   S    
C12   C30   S    
C21   C74   S    
C29   H56   S    
C71   O1    A    
C72   H33   S    
C73   O32   A    
C53   C82   S    
C76   O44   A    
Cr7   O34   S    
C6    C100  S    
C89   C95   T    
C19   C23   S    
H59   O61   S    
C4    O59   S    
C38   C44   S    
Cr4   O13   S    
C1    O18   A    
C6    O62   D    
Cr1   O1    S    
C59   C68   T    
C13   C18   S    
C94   F3    S    
C9    C18   S    
C8    H3    S    
C3    C35   S    
Cr7   O43   S    
C44   H20   S    
C87   O38   A    
C79   O43   A    
C55   C64   T    
C40   C43   S    
C84   O67   A    
C1    C18   S    
C83   H35   S    
C3    O55   D    
Cr7   O17   S    
C91   C97   T    
Cr12  O31   S    
C2    C15   S    
C4    O58   D    
C104  O53   D    
C72   H38   S    
Cr12  O5    S    
C2    H2    S    
C60   C69   T    
C60   C65   S    
C46   O28   A    
Cr10  O11   S    
C50   H31   S    
Cr6   O38   S    
C28   O20   A    
C32   C102  S    
C40   H29   S    
C78   O42   A    
C38   H30   S    
C5    O60   D    
Cr3   O3    S    
C31   H52   S    
C25   H7    S    
C61   H32   S    
C30   H62   S    
Cr8   O9    S    
C26   H8    S    
C96   C97   S    
C57   C76   S    
C27   H45   S    
C54   C79   S    
Cr12  O68   S    
C37   H15   S    
C58   C63   S    
C55   C78   S    
C21   C25   S    
C102  O49   D    
C10   H40   S    
C80   O68   A    
C39   O21   A    
C17   O15   A    
Cr6   O11   S    
C33   C103  S    
C77   O41   A    
C80   O45   A    
C13   C31   S    
C16   C100  S    
Cr9   O24   S    
C15   C99   S    
C43   H25   S    
C36   C42   S    
C101  H34   S    
C23   F7    S    
Cr10  O47   S    
C5    C99   S    
C38   H16   S    
C33   C51   S    
Cr1   O36   S    
Cr2   O28   S    
C21   C30   S    
C7    O64   D    
C34   C52   S    
C45   O22   A    
Cr8   O44   S    
C23   C94   S    
C74   O23   A    
C17   O19   A    
Cr7   O39   S    
C43   H21   S    
C87   O7    A    
H58   O59   S    
C22   C83   S    
C11   C29   S    
Cr3   O11   S    
Cr12  O9    S    
C19   C50   S    
C85   O5    A    
C15   C28   S    
C93   C95   S    
C25   F5    S    
C34   H11   S    
C46   O24   A    
C39   O17   A    
C38   C52   S    
C26   F6    S    
C77   O46   A    
C45   O27   A    
Cr10  O20   S    
C99   H12   S    
Cr11  O13   S    
C104  O54   S    
C37   C41   S    
C32   C33   S    
C85   O36   A    
C34   C104  S    
C81   O2    A    
H55   O54   S    
C42   H24   S    
C56   C77   S    
Cr8   O18   S    
C14   C94   S    
C24   H6    S    
C58   C67   T    
Cr11  O67   S    
Cr11  O26   S    
C11   H46   S    
C10   H44   S    
C40   C53   S    
C22   C26   S    
C31   H63   S    
C11   H41   S    
C86   O37   A    
Cr2   O2    S    
Cr4   O4    S    
Cr5   O12   S    
C72   C100  S    
C2    F4    S    
C86   O6    A    
C36   H14   S    
C18   C101  S    
C45   C90   S    
C36   C49   S    
Cr8   O45   S    
Cr8   O22   S    
H53   O50   S    
Cr5   O37   S    
