data_str_m9_o2_o23_f0_sra.sym.74
_audit_creation_date              2012-12-11T16:31:33-0500
_audit_creation_method            fapswitch 2.2
_symmetry_space_group_name_H-M    P1
_symmetry_Int_Tables_number       1
_space_group_crystal_system       triclinic
_cell_length_a                    6.968971
_cell_length_b                    18.397723
_cell_length_c                    20.079729
_cell_angle_alpha                 68.335303
_cell_angle_beta                  90.365799
_cell_angle_gamma                 90.477858
_cell_volume                      2392.52676962

loop_
_atom_site_label
_atom_site_type_symbol
_atom_type_description
_atom_site_fract_x
_atom_site_fract_y
_atom_site_fract_z
_atom_type_partial_charge
O1    O     O_R   0.488990 0.443920 0.942160 -0.535727
O2    O     O_R   0.823840 0.406530 0.087600 -0.543513
O3    O     O_R   0.999650 0.556080 0.057840 -0.536193
C1    C     C_R   0.655425 0.385481 0.116406 0.783878
O4    O     O_R   0.818390 0.434590 0.944530 -0.544278
O5    O     O_R   0.994160 0.584350 0.913750 -0.536573
C2    C     C_R   0.649605 0.420984 0.923805 0.715423
O6    O     O_R   0.494480 0.415650 0.086250 -0.527951
O7    O     O_3   0.662600 0.549100 0.990070 -0.363728
V1    V     V_3+5 0.935320 0.490890 0.001840 1.419607
O8    O     O_R   0.324240 0.593470 0.912400 -0.539829
C3    C     C_R   0.155189 0.615717 0.884550 0.690566
O9    O     O_R   0.329690 0.565410 0.055470 -0.531866
C4    C     C_R   0.161733 0.579587 0.075648 0.711847
V2    V     V_3+5 0.435990 0.509110 0.998160 1.440083
O10   O     O_3   0.158840 0.450900 0.009930 -0.370381
C5    C     C_3   0.937971 0.709663 0.234569 -0.469884
C6    C     C_3   0.265144 0.664803 0.278744 -0.014235
C7    C     C_3   0.272852 0.716183 0.327062 0.096314
H1    H     H_    0.884215 0.648790 0.261863 0.149722
H2    H     H_    0.189419 0.608701 0.308725 0.161917
H3    H     H_    0.416821 0.742496 0.324670 0.085053
C8    C     C_1   0.113392 0.873214 0.380135 -0.185512
C9    C     C_3   0.146102 0.706842 0.208596 0.137533
C10   C     C_3   0.928626 0.756050 0.285850 0.083344
C11   C     C_3   0.131392 0.787538 0.295664 0.079767
C12   C     C_3   0.210275 0.841003 0.219852 0.066097
C13   C     C_3   0.228772 0.791968 0.170514 0.194481
C14   C     C_1   0.121795 0.834429 0.342681 -0.026910
C15   C     C_1   0.151187 0.661616 0.160445 0.024972
C16   C     C_1   0.155521 0.624666 0.121382 -0.231735
H4    H     H_    0.385804 0.785436 0.165760 0.043218
H5    H     H_    0.837422 0.734958 0.189434 0.152635
H6    H     H_    0.831712 0.806795 0.260880 0.115854
H7    H     H_    0.357999 0.859352 0.229295 0.074154
H8    H     H_    0.891328 0.533437 0.696696 0.106802
C17   C     C_R   0.283257 0.769561 0.873463 -0.136876
C18   C     C_R   0.352644 0.842082 0.869564 -0.117737
C19   C     C_R   0.347165 0.905349 0.805033 -0.151933
C20   C     C_R   0.268536 0.897279 0.744159 -0.155590
C21   C     C_R   0.200109 0.823871 0.745954 0.079425
C22   C     C_R   0.209967 0.758449 0.811903 0.069597
C23   C     C_R   0.120943 0.815119 0.683885 -0.173502
C24   C     C_R   0.056844 0.740266 0.687539 0.019035
C25   C     C_R   0.068143 0.674821 0.753385 0.068660
C26   C     C_R   0.144204 0.683966 0.815666 -0.174483
C27   C     C_R   0.986810 0.728614 0.625808 -0.141895
C28   C     C_R   0.925953 0.654947 0.628649 0.251108
C29   C     C_R   0.936397 0.591102 0.693543 -0.164406
C30   C     C_R   0.007234 0.600659 0.754853 -0.183850
H9    H     H_    0.287903 0.722660 0.925382 0.105042
H10   H     H_    0.410700 0.849255 0.916927 0.110480
H11   H     H_    0.403664 0.960988 0.802433 0.141849
H12   H     H_    0.262675 0.949265 0.696017 0.109210
H13   H     H_    0.980765 0.776125 0.574245 0.120862
H14   H     H_    0.015720 0.548824 0.803088 0.122127
H15   H     H_    0.423788 0.463279 0.318349 0.125512
C31   C     C_R   0.739896 0.230106 0.124259 -0.135333
C32   C     C_R   0.778125 0.155514 0.125313 -0.121568
C33   C     C_R   0.766316 0.091250 0.189055 -0.131858
C34   C     C_R   0.717461 0.101088 0.252291 -0.144504
C35   C     C_R   0.677676 0.176197 0.252953 0.075603
C36   C     C_R   0.689167 0.242231 0.187675 0.055740
C37   C     C_R   0.620006 0.185473 0.316763 -0.168017
C38   C     C_R   0.568399 0.260469 0.315204 0.024808
C39   C     C_R   0.584411 0.327977 0.250479 0.033358
C40   C     C_R   0.645272 0.318194 0.186156 -0.194136
C41   C     C_R   0.501413 0.269150 0.378240 -0.129397
C42   C     C_R   0.444919 0.341143 0.378091 -0.171748
C43   C     C_R   0.463068 0.407162 0.316599 -0.185422
C44   C     C_R   0.537906 0.402551 0.253632 0.274816
H16   H     H_    0.747880 0.277665 0.072811 0.096846
H17   H     H_    0.815284 0.147483 0.076215 0.104458
H18   H     H_    0.792735 0.033334 0.189364 0.109206
H19   H     H_    0.707767 0.048898 0.300226 0.103297
H20   H     H_    0.489831 0.220332 0.428691 0.120301
H21   H     H_    0.389459 0.345847 0.426509 0.137016
O11   O     O_R   0.770890 0.084490 0.414040 -0.535634
O12   O     O_R   0.445980 0.065450 0.555510 -0.543489
O13   O     O_R   0.270670 0.915620 0.586180 -0.536411
C45   C     C_R   0.614778 0.080526 0.575228 0.718057
O14   O     O_R   0.441480 0.093500 0.412450 -0.539478
O15   O     O_R   0.266140 0.943870 0.442100 -0.535253
C46   C     C_R   0.610157 0.116280 0.385039 0.692379
O16   O     O_R   0.775410 0.056240 0.558120 -0.533912
O17   O     O_3   0.602660 0.950990 0.510100 -0.367029
V3    V     V_3+5 0.329740 0.009100 0.498130 1.419433
O18   O     O_R   0.936120 0.934420 0.444240 -0.539630
C47   C     C_R   0.104573 0.920033 0.424364 0.722849
O19   O     O_R   0.940610 0.906370 0.587310 -0.539356
C48   C     C_R   0.109676 0.883740 0.615085 0.689562
V4    V     V_3+5 0.829110 0.990690 0.501470 1.425374
O20   O     O_3   0.106080 0.049010 0.489880 -0.367816
C49   C     C_3   0.658186 0.298496 0.663006 0.072365
C50   C     C_3   0.433987 0.198618 0.751567 0.208594
C51   C     C_3   0.452684 0.242336 0.805374 -0.330147
H22   H     H_    0.510267 0.383723 0.699023 0.163267
H23   H     H_    0.315147 0.226688 0.713918 0.055375
H24   H     H_    0.324407 0.279829 0.799783 0.105384
H25   H     H_    0.457945 0.201492 0.862012 0.167311
C52   C     C_1   0.642362 0.376222 0.877776 -0.198384
C53   C     C_3   0.625804 0.208990 0.707847 0.150353
C54   C     C_3   0.642113 0.347291 0.711914 -0.405112
C55   C     C_3   0.637356 0.292794 0.791715 0.180377
C56   C     C_3   0.811949 0.237186 0.806762 -0.416498
C57   C     C_3   0.797141 0.181774 0.763025 0.151992
C58   C     C_1   0.640624 0.338970 0.838926 -0.048427
C59   C     C_1   0.623569 0.164840 0.658417 -0.024099
C60   C     C_1   0.621806 0.127284 0.619682 -0.206369
H26   H     H_    0.933937 0.188492 0.732796 0.082929
H27   H     H_    0.946009 0.272693 0.791422 0.123402
H28   H     H_    0.807788 0.304999 0.642019 0.119386
H29   H     H_    0.766634 0.388202 0.701762 0.136088
H30   H     H_    0.823339 0.203803 0.865415 0.143841
N1    N     N_3   0.846857 0.708061 0.355620 -0.637922
H31   H     H_    0.700898 0.702570 0.348663 0.209272
H32   H     H_    0.898992 0.650981 0.372840 0.265864
N2    N     N_3   0.857692 0.645887 0.564518 -0.663502
H33   H     H_    0.822445 0.587374 0.574804 0.217201
H34   H     H_    0.730411 0.677553 0.549300 0.230319
N3    N     N_2   0.570206 0.474238 0.195469 -0.521272
H35   H     H_    0.457411 0.512448 0.187514 0.266382
C61   C     C_3   0.750119 0.511619 0.200394 -0.504870
H36   H     H_    0.762761 0.567853 0.154152 0.209245
H37   H     H_    0.872317 0.473505 0.199700 0.192331
H38   H     H_    0.756128 0.524299 0.250371 0.178144
N4    N     N_3   0.457367 0.644430 0.262008 -0.702948
H39   H     H_    0.519448 0.604392 0.308352 0.227601
H40   H     H_    0.545196 0.693848 0.245675 0.215965
N5    N     N_2   0.526848 0.327861 0.602134 -0.503195
H41   H     H_    0.384368 0.328543 0.615291 0.252230
C62   C     C_3   0.586949 0.399176 0.545021 -0.561939
H42   H     H_    0.477955 0.416131 0.501555 0.186636
H43   H     H_    0.725700 0.390144 0.522360 0.206840
H44   H     H_    0.601896 0.447674 0.565150 0.191372
N6    N     N_2   0.383439 0.115761 0.785975 -0.468845
H45   H     H_    0.341695 0.091739 0.749140 0.240428
C63   C     C_3   0.261609 0.090279 0.848809 -0.564804
H46   H     H_    0.190908 0.033887 0.855097 0.193606
H47   H     H_    0.150302 0.134416 0.844584 0.193068
H48   H     H_    0.349785 0.079482 0.897680 0.206818
N7    N     N_2   0.776760 0.099856 0.811612 -0.461706
H49   H     H_    0.823631 0.087135 0.863464 0.250771
C64   C     C_3   0.830469 0.039551 0.784918 -0.520283
H50   H     H_    0.862406 0.984316 0.830543 0.179671
H51   H     H_    0.959774 0.056873 0.750393 0.181524
H52   H     H_    0.709737 0.026615 0.754939 0.209297
N8    N     N_2   0.232382 0.669136 0.402403 -0.483092
H53   H     H_    0.202487 0.701177 0.433652 0.296354
C65   C     C_3   0.360901 0.605394 0.439753 -0.589958
H54   H     H_    0.312335 0.576186 0.496040 0.207138
H55   H     H_    0.508769 0.627570 0.440790 0.202137
H56   H     H_    0.358940 0.560467 0.415224 0.194078
N9    N     N_2   0.165543 0.832674 0.096179 -0.486198
H57   H     H_    0.246550 0.820209 0.058908 0.237779
C66   C     C_3   0.964637 0.843763 0.076388 -0.480755
H58   H     H_    0.951638 0.892172 0.023450 0.181453
H59   H     H_    0.880099 0.860063 0.115201 0.215212
H60   H     H_    0.904497 0.790174 0.070909 0.169208
N10   N     N_2   0.096789 0.911755 0.186095 -0.487094
H61   H     H_    0.997076 0.924196 0.217915 0.244134
C67   C     C_3   0.201983 0.980674 0.141698 -0.511893
H62   H     H_    0.099379 0.026523 0.110261 0.186422
H63   H     H_    0.296620 0.966988 0.103650 0.217010
H64   H     H_    0.290472 0.003654 0.175891 0.182437

loop_
_geom_bond_atom_site_label_1
_geom_bond_atom_site_label_2
_ccdc_geom_bond_type
C52   C58   T    
O15   V3    S    
C6    H2    S    
C21   C22   A    
C42   H21   S    
C50   C51   S    
C4    C16   S    
C1    O6    A    
O12   V3    S    
C50   H23   S    
C61   H36   S    
C19   H11   S    
C25   C26   A    
C34   H19   S    
C11   C12   S    
C49   N5    S    
C6    C9    S    
C8    C14   T    
C27   H13   S    
C66   H58   S    
C54   H29   S    
N8    C65   S    
O13   V3    S    
C10   N1    S    
O5    C3    A    
C15   C16   T    
C17   H9    S    
C61   H37   S    
C18   H10   S    
V2    O10   S    
C51   H24   S    
C51   H25   S    
C5    H1    S    
C59   C60   T    
C6    C7    S    
C22   C26   A    
C49   H28   S    
C17   C22   A    
C7    C11   S    
N2    H33   S    
C37   C46   S    
C35   C37   A    
O8    V2    S    
C66   H59   S    
O18   V4    S    
C41   C42   A    
N1    H32   S    
C65   H56   S    
C8    C47   S    
C53   C59   S    
C43   C44   A    
O1    V2    S    
H15   C43   S    
O7    V1    S    
C32   H17   S    
N9    C66   S    
C24   C27   A    
C10   H6    S    
C39   C40   A    
C56   H27   S    
C32   C33   A    
O9    C4    A    
C13   N9    S    
C21   C23   A    
C23   C48   S    
C42   C43   A    
C5    H5    S    
C64   H52   S    
C55   C56   S    
C10   C11   S    
O16   V4    S    
C57   N7    S    
C67   H63   S    
O15   C47   A    
C36   C40   A    
C5    C9    S    
C27   C28   A    
C56   H30   S    
C13   H4    S    
C7    H3    S    
N8    H53   S    
C3    C26   S    
C19   C20   A    
O12   C45   A    
O17   V3    S    
C62   H42   S    
C61   H38   S    
C28   N2    S    
O11   V4    S    
C12   N10   S    
C30   H14   S    
C33   C34   A    
N10   C67   S    
N5    C62   S    
C23   C24   A    
N4    H40   S    
C17   C18   A    
C6    N4    S    
C67   H64   S    
O19   V4    S    
C39   C44   A    
C38   C41   A    
C35   C36   A    
O14   V3    S    
N9    H57   S    
V4    O20   S    
N3    H35   S    
H22   C54   S    
O3    C4    A    
C63   H47   S    
C64   H51   S    
C20   C21   A    
C45   C60   S    
C49   C54   S    
C38   C39   A    
O6    V2    S    
O14   C46   A    
O9    V2    S    
C65   H55   S    
C9    C15   S    
N4    H39   S    
O2    V1    S    
C12   C13   S    
C24   C25   A    
N6    C63   S    
O4    C2    A    
C67   H62   S    
C57   H26   S    
C31   C36   A    
C28   C29   A    
O1    C2    A    
C44   N3    S    
C66   H60   S    
C9    C13   S    
N6    H45   S    
C63   H48   S    
O5    V1    S    
C1    C40   S    
O8    C3    A    
C50   C53   S    
C41   H20   S    
C56   C57   S    
C20   H12   S    
C7    N8    S    
C64   H50   S    
C12   H7    S    
C37   C38   A    
O13   C48   A    
C51   C55   S    
N5    H41   S    
C31   C32   A    
C5    C10   S    
O4    V1    S    
O3    V1    S    
V1    O10   S    
N10   H61   S    
C31   H16   S    
O19   C48   A    
C18   C19   A    
C25   C30   A    
C62   H44   S    
O2    C1    A    
V3    O20   S    
C33   H18   S    
C50   N6    S    
C53   C57   S    
N7    C64   S    
O7    V2    S    
C34   C35   A    
N2    H34   S    
N3    C61   S    
C63   H46   S    
O11   C46   A    
O18   C47   A    
C49   C53   S    
C11   C14   S    
C62   H43   S    
C29   C30   A    
C2    C52   S    
C54   C55   S    
N7    H49   S    
C65   H54   S    
O17   V4    S    
C55   C58   S    
C45   O16   A    
H8    C29   S    
N1    H31   S    
