data_str_m9_o17_o19_f0_sra.sym.18
_audit_creation_date              2012-12-11T15:19:31-0500
_audit_creation_method            fapswitch 2.2
_symmetry_space_group_name_H-M    P1
_symmetry_Int_Tables_number       1
_space_group_crystal_system       triclinic
_cell_length_a                    19.868642
_cell_length_b                    6.886861
_cell_length_c                    18.272747
_cell_angle_alpha                 89.999964
_cell_angle_beta                  104.172272
_cell_angle_gamma                 90.0
_cell_volume                      2424.20757141

loop_
_atom_site_label
_atom_site_type_symbol
_atom_type_description
_atom_site_fract_x
_atom_site_fract_y
_atom_site_fract_z
_atom_type_partial_charge
O1    O     O_R   0.312200 0.620210 0.189560 -0.539106
O2    O     O_R   0.687800 0.379790 0.810440 -0.535657
O3    O     O_R   0.187800 0.120210 0.310440 -0.539105
O4    O     O_R   0.812200 0.879790 0.689560 -0.535657
O5    O     O_R   0.171590 0.286140 0.165000 -0.546748
O6    O     O_R   0.828410 0.713860 0.835000 -0.539815
O7    O     O_R   0.328410 0.786140 0.335000 -0.546748
O8    O     O_R   0.671590 0.213860 0.665000 -0.539816
C1    C     C_R   0.145539 0.459547 0.144033 0.736090
C2    C     C_R   0.853661 0.540397 0.856959 0.729422
C3    C     C_R   0.354460 0.959546 0.355967 0.736091
C4    C     C_R   0.646339 0.040397 0.643041 0.729422
O9    O     O_R   0.310670 0.290220 0.180540 -0.529797
O10   O     O_R   0.689330 0.709780 0.819460 -0.541618
O11   O     O_R   0.189330 0.790220 0.319460 -0.529796
O12   O     O_R   0.810670 0.209780 0.680540 -0.541618
O13   O     O_R   0.327870 0.124170 0.326080 -0.526210
O14   O     O_R   0.672130 0.875830 0.673920 -0.525919
O15   O     O_R   0.172130 0.624170 0.173920 -0.526209
O16   O     O_R   0.827870 0.375830 0.826080 -0.525918
C5    C     C_R   0.331986 0.459171 0.165423 0.809718
C6    C     C_R   0.668339 0.540510 0.835263 0.826733
C7    C     C_R   0.168014 0.959170 0.334577 0.809717
C8    C     C_R   0.831661 0.040510 0.664736 0.826734
O17   O     O_3   0.255480 0.455050 0.297740 -0.362994
O18   O     O_3   0.744520 0.544950 0.702260 -0.360982
O19   O     O_3   0.244520 0.955050 0.202260 -0.362994
O20   O     O_3   0.755480 0.044950 0.797740 -0.360982
V1    V     V_3+5 0.248980 0.178550 0.241140 1.551079
V2    V     V_3+5 0.751020 0.821450 0.758860 1.538858
V3    V     V_3+5 0.251020 0.678550 0.258860 1.551079
V4    V     V_3+5 0.748980 0.321450 0.741140 1.538858
C9    C     C_R   0.947531 0.099606 0.639091 0.341027
C10   C     C_R   0.049530 0.911084 0.354484 0.394128
C11   C     C_R   0.552469 0.599606 0.860909 0.341027
C12   C     C_R   0.450470 0.411084 0.145516 0.394128
C13   C     C_R   0.879654 0.028618 0.613829 -0.253403
C14   C     C_R   0.118896 0.967883 0.383779 -0.267568
C15   C     C_R   0.620346 0.528618 0.886171 -0.253404
C16   C     C_R   0.381104 0.467883 0.116221 -0.267568
C17   C     C_R   0.859067 0.936190 0.543068 0.346616
C18   C     C_R   0.141210 0.032493 0.458622 0.355104
C19   C     C_R   0.640933 0.436190 0.956932 0.346617
C20   C     C_R   0.358790 0.532493 0.041377 0.355103
C21   C     C_R   0.905296 0.928898 0.494076 -0.093610
C22   C     C_R   0.095539 0.023594 0.507736 -0.101800
C23   C     C_R   0.594703 0.428898 0.005924 -0.093611
C24   C     C_R   0.404461 0.523595 0.992264 -0.101801
C25   C     C_R   0.975943 0.985762 0.523206 -0.103605
C26   C     C_R   0.024671 0.971698 0.477540 -0.109016
C27   C     C_R   0.524057 0.485762 0.976794 -0.103605
C28   C     C_R   0.475329 0.471698 0.022460 -0.109016
C29   C     C_R   0.998069 0.058069 0.598052 -0.127526
C30   C     C_R   0.002778 0.903062 0.402144 -0.090326
C31   C     C_R   0.501931 0.558069 0.901948 -0.127526
C32   C     C_R   0.497222 0.403062 0.097856 -0.090325
C33   C     C_R   0.884914 0.859829 0.418409 0.402389
C34   C     C_R   0.118495 0.056201 0.586578 0.410006
C35   C     C_R   0.615086 0.359828 0.081591 0.402389
C36   C     C_R   0.381505 0.556201 0.913422 0.410006
C37   C     C_R   0.934362 0.831206 0.376187 0.335528
C38   C     C_R   0.070264 0.078307 0.630801 0.323405
C39   C     C_R   0.565638 0.331206 0.123813 0.335528
C40   C     C_R   0.429736 0.578307 0.869199 0.323405
C41   C     C_1   0.584498 0.027772 0.579953 -0.143605
C42   C     C_1   0.417318 0.972785 0.417719 -0.138106
C43   C     C_1   0.915502 0.527772 0.920047 -0.143606
C44   C     C_1   0.082682 0.472785 0.082281 -0.138106
C45   C     C_1   0.532123 0.011497 0.528531 0.032030
C46   C     C_1   0.470007 0.989736 0.468682 0.034728
C47   C     C_1   0.967877 0.511497 0.971469 0.032031
C48   C     C_1   0.029993 0.489736 0.031318 0.034728
O21   O     O_3   0.965232 0.193432 0.708009 -0.546982
C49   C     C_3   0.966025 0.395978 0.695766 0.121815
H1    H     H_    0.911822 0.451373 0.678679 0.127814
H2    H     H_    0.993370 0.435503 0.651271 0.124797
C50   C     C_3   0.004176 0.493556 0.769326 -0.282328
H3    H     H_    0.984415 0.435376 0.816546 0.195609
H4    H     H_    0.060445 0.459882 0.781096 0.278269
C51   C     C_3   0.995027 0.712873 0.765455 -0.713444
H5    H     H_    0.014109 0.770455 0.717644 0.261244
H6    H     H_    0.025261 0.779772 0.818672 0.273639
H7    H     H_    0.939555 0.751607 0.757649 0.206787
O22   O     O_3   0.027142 0.870618 0.277940 -0.543847
C52   C     C_3   0.018191 0.045100 0.235074 0.047104
H8    H     H_    0.039199 0.020014 0.184820 0.136201
H9    H     H_    0.046733 0.172756 0.265361 0.098620
C53   C     C_3   0.941062 0.096126 0.208347 -0.235604
H10   H     H_    0.912163 0.970494 0.177692 0.258231
H11   H     H_    0.920113 0.129371 0.258024 0.235390
C54   C     C_3   0.929677 0.271485 0.155705 -0.676015
H12   H     H_    0.959485 0.398610 0.183955 0.251214
H13   H     H_    0.873674 0.309600 0.139884 0.305751
H14   H     H_    0.946359 0.236881 0.103473 0.207240
O23   O     O_3   0.534768 0.693432 0.791991 -0.546982
C55   C     C_3   0.533975 0.895978 0.804234 0.121814
H15   H     H_    0.588178 0.951373 0.821321 0.127814
H16   H     H_    0.506630 0.935503 0.848729 0.124797
C56   C     C_3   0.495824 0.993556 0.730674 -0.282328
H17   H     H_    0.515584 0.935376 0.683454 0.195610
H18   H     H_    0.439555 0.959882 0.718904 0.278269
C57   C     C_3   0.504973 0.212874 0.734545 -0.713444
H19   H     H_    0.485891 0.270456 0.782356 0.261244
H20   H     H_    0.474739 0.279772 0.681328 0.273639
H21   H     H_    0.560445 0.251607 0.742351 0.206787
O24   O     O_3   0.472858 0.370618 0.222060 -0.543847
C58   C     C_3   0.481809 0.545099 0.264926 0.047104
H22   H     H_    0.460801 0.520013 0.315180 0.136201
H23   H     H_    0.453267 0.672756 0.234639 0.098620
C59   C     C_3   0.558938 0.596125 0.291653 -0.235603
H24   H     H_    0.587837 0.470493 0.322308 0.258231
H25   H     H_    0.579888 0.629370 0.241976 0.235390
C60   C     C_3   0.570323 0.771484 0.344295 -0.676016
H26   H     H_    0.540515 0.898610 0.316045 0.251214
H27   H     H_    0.626326 0.809598 0.360116 0.305750
H28   H     H_    0.553640 0.736880 0.396527 0.207240
Cl1   Cl    Cl    0.777216 0.817662 0.522751 -0.576504
Cl2   Cl    Cl    0.223219 0.150004 0.483766 -0.533866
Cl3   Cl    Cl    0.722784 0.317662 0.977249 -0.576504
Cl4   Cl    Cl    0.276780 0.650004 0.016234 -0.533866
Cl5   Cl    Cl    0.797020 0.831451 0.368073 -0.405498
Cl6   Cl    Cl    0.207289 0.035504 0.635299 -0.345332
Cl7   Cl    Cl    0.702980 0.331451 0.131927 -0.405498
Cl8   Cl    Cl    0.292710 0.535504 0.864701 -0.345332
Cl9   Cl    Cl    0.909780 0.683113 0.294372 -0.524508
Cl10  Cl    Cl    0.103771 0.104891 0.729765 -0.475247
Cl11  Cl    Cl    0.590220 0.183113 0.205628 -0.524508
Cl12  Cl    Cl    0.396229 0.604892 0.770235 -0.475246

loop_
_geom_bond_atom_site_label_1
_geom_bond_atom_site_label_2
_ccdc_geom_bond_type
C34   C38   A    
O1    C5    A    
O19   V1    S    
O13   V1    S    
O21   C49   S    
O3    C7    A    
O23   C55   S    
O15   V3    S    
O4    V2    S    
C2    C43   S    
O7    C3    A    
C21   C33   A    
C26   C30   A    
C49   H2    S    
O9    V1    S    
C14   C18   A    
C52   H8    S    
O4    C8    A    
C25   C29   A    
C52   C53   S    
O24   C58   S    
C20   Cl4   S    
C55   C56   S    
O1    V3    S    
C57   H21   S    
O2    V4    S    
C18   C22   A    
C33   C37   A    
C36   Cl8   S    
C59   H24   S    
C12   C16   A    
C1    O15   A    
C2    O16   A    
C40   Cl12  S    
C49   C50   S    
C55   H16   S    
O2    C6    A    
C58   H22   S    
O14   V2    S    
C16   C20   A    
C43   C47   T    
C3    C42   S    
C44   C48   T    
C60   H28   S    
O11   C7    A    
O12   C8    A    
C22   C34   A    
O17   V1    S    
C58   H23   S    
C45   C46   S    
C10   O22   S    
O10   V2    S    
C51   H7    S    
C35   Cl7   S    
C24   C36   A    
O5    V1    S    
C52   H9    S    
C31   C40   A    
C9    C29   A    
C34   Cl6   S    
C23   C35   A    
O7    V3    S    
C49   H1    S    
C11   C31   A    
C27   C28   A    
O8    V4    S    
O20   V4    S    
O22   C52   S    
C51   H6    S    
C54   H12   S    
C38   Cl10  S    
O18   V4    S    
C18   Cl2   S    
C15   C19   A    
C50   H3    S    
C12   O24   S    
C9    C13   A    
C11   C15   A    
O5    C1    A    
C12   C32   A    
C54   H13   S    
C29   C38   A    
C56   H17   S    
C53   C54   S    
C21   C25   A    
O8    C4    A    
C55   H15   S    
C8    C13   S    
C50   H4    S    
O9    C5    A    
C57   H20   S    
C59   C60   S    
C9    O21   S    
C56   H18   S    
C53   H11   S    
C10   C30   A    
O19   V3    S    
C58   C59   S    
C60   H26   S    
O16   V4    S    
C50   C51   S    
C3    O13   A    
O6    V2    S    
C10   C14   A    
O17   V3    S    
C51   H5    S    
O6    C2    A    
C23   C27   A    
O11   V3    S    
C30   C37   A    
C11   O23   S    
O12   V4    S    
C7    C14   S    
C4    C41   S    
C22   C26   A    
C35   C39   A    
C36   C40   A    
O10   C6    A    
O20   V2    S    
C1    C44   S    
C47   C48   S    
C54   H14   S    
O3    V1    S    
C42   C46   T    
C5    C16   S    
C41   C45   T    
C6    C15   S    
C32   C39   A    
C27   C31   A    
C13   C17   A    
C57   H19   S    
C59   H25   S    
C33   Cl5   S    
C28   C32   A    
C24   C28   A    
C56   C57   S    
C53   H10   S    
C25   C26   A    
C4    O14   A    
C17   C21   A    
C37   Cl9   S    
C17   Cl1   S    
C19   C23   A    
C39   Cl11  S    
C20   C24   A    
C19   Cl3   S    
C60   H27   S    
O18   V2    S    
