data_str_m9_o18_o28_f0_sra.sym.47
_audit_creation_date              2012-12-11T15:34:55-0500
_audit_creation_method            fapswitch 2.2
_symmetry_space_group_name_H-M    P1
_symmetry_Int_Tables_number       1
_space_group_crystal_system       triclinic
_cell_length_a                    30.427008
_cell_length_b                    7.278923
_cell_length_c                    26.016822
_cell_angle_alpha                 90.001753
_cell_angle_beta                  111.982843
_cell_angle_gamma                 89.999607
_cell_volume                      5343.17009634

loop_
_atom_site_label
_atom_site_type_symbol
_atom_type_description
_atom_site_fract_x
_atom_site_fract_y
_atom_site_fract_z
_atom_type_partial_charge
O1    O     O_R   0.295360 0.592990 0.320420 -0.531598
O2    O     O_R   0.704640 0.407010 0.679580 -0.532290
O3    O     O_R   0.204640 0.092990 0.179580 -0.531596
O4    O     O_R   0.795360 0.907010 0.820420 -0.532287
O5    O     O_R   0.294060 0.265620 0.213230 -0.539813
O6    O     O_R   0.705940 0.734380 0.786770 -0.540234
O7    O     O_R   0.205940 0.765620 0.286770 -0.539811
O8    O     O_R   0.794060 0.234380 0.713230 -0.540235
C1    C     C_R   0.304020 0.432115 0.199504 0.707283
C2    C     C_R   0.695601 0.567581 0.800246 0.709547
C3    C     C_R   0.195981 0.932119 0.300498 0.707287
C4    C     C_R   0.804398 0.067577 0.699752 0.709544
O9    O     O_R   0.300850 0.263360 0.322080 -0.536138
O10   O     O_R   0.699150 0.736640 0.677920 -0.533858
O11   O     O_R   0.199150 0.763360 0.177920 -0.536140
O12   O     O_R   0.800850 0.236640 0.822080 -0.533859
O13   O     O_R   0.211480 0.091820 0.289210 -0.536197
O14   O     O_R   0.788520 0.908180 0.710790 -0.539366
O15   O     O_R   0.288520 0.591820 0.210790 -0.536194
O16   O     O_R   0.711480 0.408180 0.789210 -0.539362
C5    C     C_R   0.313144 0.431334 0.343131 0.699127
C6    C     C_R   0.686788 0.568642 0.656899 0.700740
C7    C     C_R   0.186855 0.931329 0.156868 0.699128
C8    C     C_R   0.813212 0.068646 0.843101 0.700746
O17   O     O_3   0.220670 0.426670 0.239090 -0.375227
O18   O     O_3   0.779330 0.573330 0.760910 -0.376275
O19   O     O_3   0.279330 0.926670 0.260910 -0.375227
O20   O     O_3   0.720670 0.073330 0.739090 -0.376274
V1    V     V_3+5 0.255440 0.152290 0.252020 1.413169
V2    V     V_3+5 0.744560 0.847710 0.747980 1.406565
V3    V     V_3+5 0.244560 0.652290 0.247980 1.413171
V4    V     V_3+5 0.755440 0.347710 0.752020 1.406562
C9    C     C_R   0.849978 0.064686 0.899478 -0.089987
C10   C     C_R   0.150194 0.935279 0.100452 -0.089876
C11   C     C_R   0.650023 0.564669 0.600521 -0.089981
C12   C     C_R   0.349805 0.435297 0.399548 -0.089870
C13   C     C_R   0.872940 0.138068 0.997374 0.300339
C14   C     C_R   0.127424 0.862665 0.002520 0.302578
C15   C     C_R   0.627062 0.638015 0.502626 0.300340
C16   C     C_R   0.372573 0.362726 0.497480 0.302579
C17   C     C_R   0.838313 0.124347 0.943596 -0.192065
C18   C     C_R   0.161974 0.876129 0.056376 -0.190202
C19   C     C_R   0.661690 0.624295 0.556403 -0.192070
C20   C     C_R   0.338023 0.376187 0.443625 -0.190206
C21   C     C_R   0.896878 0.016568 0.908490 -0.217741
C22   C     C_R   0.103287 0.983084 0.091376 -0.218928
C23   C     C_R   0.603121 0.516579 0.591510 -0.217743
C24   C     C_R   0.396713 0.483071 0.408623 -0.218932
C25   C     C_R   0.933486 0.030520 0.962008 0.047340
C26   C     C_R   0.066744 0.969287 0.037829 0.048071
C27   C     C_R   0.566514 0.530515 0.537992 0.047338
C28   C     C_R   0.433255 0.469293 0.462171 0.048070
C29   C     C_R   0.920728 0.093332 0.006397 0.066365
C30   C     C_R   0.079565 0.906802 0.993450 0.064301
C31   C     C_R   0.579273 0.593297 0.493603 0.066372
C32   C     C_R   0.420433 0.406840 0.506550 0.064306
C33   C     C_R   0.982383 0.988018 0.972674 0.079038
C34   C     C_R   0.017850 0.011702 0.027151 0.079397
C35   C     C_R   0.517616 0.488025 0.527326 0.079040
C36   C     C_R   0.482150 0.511695 0.472849 0.079400
C37   C     C_R   0.003269 0.077454 0.069195 -0.188234
C38   C     C_R   0.996982 0.922295 0.930640 -0.187081
C39   C     C_R   0.496733 0.577423 0.430805 -0.188241
C40   C     C_R   0.503016 0.422328 0.569360 -0.187085
C41   C     C_R   0.956150 0.116154 0.059098 -0.180489
C42   C     C_R   0.044132 0.883766 0.940748 -0.181255
C43   C     C_R   0.543852 0.616109 0.440902 -0.180490
C44   C     C_R   0.455866 0.383815 0.559252 -0.181254
H1    H     H_    0.947947 0.167926 0.093480 0.154662
H2    H     H_    0.052339 0.831936 0.906379 0.153580
H3    H     H_    0.552056 0.667859 0.406520 0.154670
H4    H     H_    0.447658 0.332009 0.593621 0.153589
H5    H     H_    0.096521 0.024253 0.127469 0.108206
H6    H     H_    0.903600 0.974961 0.872401 0.108280
H7    H     H_    0.403481 0.524207 0.372529 0.108204
H8    H     H_    0.596399 0.475000 0.627600 0.108278
H9    H     H_    0.198585 0.841405 0.064697 0.111055
H10   H     H_    0.801740 0.159338 0.935401 0.116314
H11   H     H_    0.301411 0.341484 0.435305 0.111052
H12   H     H_    0.698263 0.659267 0.564597 0.116313
H13   H     H_    0.027543 0.102725 0.110910 0.128586
H14   H     H_    0.972691 0.897062 0.888926 0.128357
H15   H     H_    0.472459 0.602686 0.389090 0.128589
H16   H     H_    0.527307 0.397104 0.611074 0.128361
C45   C     C_R   0.091434 0.909567 0.478779 0.599766
C46   C     C_R   0.908943 0.043428 0.521412 0.622856
C47   C     C_R   0.408583 0.409458 0.021240 0.599740
C48   C     C_R   0.591065 0.543426 0.978599 0.622841
N1    N     N_R   0.073551 0.958017 0.423804 -0.543629
N2    N     N_R   0.927350 0.003124 0.577010 -0.546930
N3    N     N_R   0.426462 0.457971 0.076211 -0.543616
N4    N     N_R   0.572659 0.503092 0.923001 -0.547017
C49   C     C_R   0.026968 0.008608 0.397957 0.551392
C50   C     C_R   0.973405 0.944746 0.602294 0.525171
C51   C     C_R   0.473041 0.508617 0.102055 0.551410
C52   C     C_R   0.526608 0.444653 0.897723 0.525105
C53   C     C_R   0.996688 0.015434 0.427725 -0.027111
C54   C     C_R   0.003177 0.930793 0.572003 -0.026867
C55   C     C_R   0.503321 0.515438 0.072288 -0.027113
C56   C     C_R   0.496839 0.430679 0.928017 -0.026923
C57   C     C_R   0.014745 0.968598 0.484366 -0.014304
C58   C     C_R   0.985106 0.977117 0.515335 -0.015221
C59   C     C_R   0.485268 0.468539 0.015651 -0.014280
C60   C     C_R   0.514907 0.477058 0.984682 -0.015266
C61   C     C_R   0.062426 0.914106 0.510167 -0.033536
C62   C     C_R   0.937523 0.032767 0.489613 -0.038718
C63   C     C_R   0.437591 0.413987 0.989853 -0.033527
C64   C     C_R   0.562486 0.532765 0.010398 -0.038763
C65   C     C_R   0.949002 0.069192 0.402374 -0.144503
C66   C     C_R   0.050682 0.874433 0.597159 -0.146063
C67   C     C_R   0.551003 0.569257 0.097634 -0.144518
C68   C     C_R   0.449340 0.374251 0.902866 -0.146022
C69   C     C_R   0.919782 0.077667 0.432926 -0.143988
C70   C     C_R   0.079941 0.866256 0.566633 -0.146717
C71   C     C_R   0.580223 0.577726 0.067082 -0.143956
C72   C     C_R   0.420080 0.366071 0.933393 -0.146738
O21   O     O_2   0.137092 0.856658 0.502987 -0.529665
O22   O     O_2   0.863085 0.093475 0.496890 -0.519834
O23   O     O_2   0.362928 0.356501 0.997036 -0.529684
O24   O     O_2   0.636921 0.593503 0.003119 -0.519764
O25   O     O_2   0.010128 0.054494 0.343780 -0.529196
O26   O     O_2   0.990672 0.903905 0.656838 -0.532181
O27   O     O_2   0.489876 0.554562 0.156228 -0.529202
O28   O     O_2   0.509341 0.403780 0.843181 -0.532134
H17   H     H_    0.934129 0.105777 0.358878 0.168618
H18   H     H_    0.065527 0.837561 0.640634 0.168507
H19   H     H_    0.565872 0.605893 0.141127 0.168616
H20   H     H_    0.434497 0.337330 0.859395 0.168515
H21   H     H_    0.883319 0.120664 0.412019 0.168809
H22   H     H_    0.116401 0.823210 0.587528 0.168296
H23   H     H_    0.616682 0.620772 0.087985 0.168812
H24   H     H_    0.383624 0.322974 0.912501 0.168297
C73   C     C_R   0.885513 0.870070 0.632881 -0.172406
C74   C     C_R   0.097862 0.819314 0.352179 -0.176317
C75   C     C_R   0.614460 0.370091 0.867080 -0.172316
C76   C     C_R   0.402146 0.319292 0.147834 -0.176336
H25   H     H_    0.898732 0.737420 0.627826 0.141297
H26   H     H_    0.069869 0.718669 0.344122 0.142114
H27   H     H_    0.601221 0.237439 0.872103 0.141345
H28   H     H_    0.430140 0.218647 0.155893 0.142109
C77   C     C_R   0.855613 0.884644 0.662238 -0.213329
C78   C     C_R   0.127910 0.810578 0.322618 -0.212689
C79   C     C_R   0.644356 0.384671 0.837719 -0.213366
C80   C     C_R   0.372095 0.310566 0.177390 -0.212691
H29   H     H_    0.846812 0.760449 0.679219 0.144761
H30   H     H_    0.122396 0.703409 0.291949 0.141396
H31   H     H_    0.653134 0.260490 0.820706 0.144767
H32   H     H_    0.377607 0.203405 0.208059 0.141396
C81   C     C_R   0.837305 0.055954 0.669389 -0.079707
C82   C     C_R   0.164212 0.940496 0.331941 -0.071587
C83   C     C_R   0.662691 0.555964 0.830605 -0.079688
C84   C     C_R   0.335792 0.440483 0.168064 -0.071588
C85   C     C_R   0.850445 0.212989 0.646788 -0.267180
C86   C     C_R   0.170287 0.077881 0.372006 -0.268469
C87   C     C_R   0.649579 0.712986 0.853243 -0.267225
C88   C     C_R   0.329720 0.577858 0.128000 -0.268463
H33   H     H_    0.836984 0.346810 0.651795 0.130508
H34   H     H_    0.198385 0.178279 0.380055 0.125129
H35   H     H_    0.663064 0.846790 0.848265 0.130482
H36   H     H_    0.301622 0.678256 0.119947 0.125133
C89   C     C_R   0.880978 0.198601 0.617314 0.331020
C90   C     C_R   0.140691 0.085789 0.402538 0.328153
C91   C     C_R   0.619048 0.698610 0.882722 0.331039
C92   C     C_R   0.359319 0.585754 0.097471 0.328144
C93   C     C_R   0.898045 0.024561 0.609516 0.365417
C94   C     C_R   0.104104 0.955167 0.392565 0.363114
C95   C     C_R   0.601958 0.524566 0.890488 0.365359
C96   C     C_R   0.395906 0.455134 0.107448 0.363137
N5    N     N_2   0.893316 0.358148 0.594129 -0.507269
H37   H     H_    0.868807 0.462785 0.585822 0.251908
C97   C     C_3   0.941641 0.420473 0.622239 -0.510984
H38   H     H_    0.948709 0.537795 0.599172 0.204476
H39   H     H_    0.967379 0.310778 0.624033 0.216031
H40   H     H_    0.947319 0.465038 0.665113 0.198718
N6    N     N_2   0.148295 0.223364 0.443802 -0.500469
H41   H     H_    0.183414 0.260204 0.463225 0.256806
C98   C     C_3   0.117885 0.382075 0.425283 -0.518887
H42   H     H_    0.124908 0.479603 0.460272 0.226523
H43   H     H_    0.080011 0.341405 0.410416 0.214491
H44   H     H_    0.125086 0.452275 0.391349 0.189259
N7    N     N_2   0.606759 0.858165 0.905960 -0.507126
H45   H     H_    0.631254 0.962840 0.914195 0.251859
C99   C     C_3   0.558411 0.920459 0.877974 -0.510704
H46   H     H_    0.551424 0.037958 0.901049 0.204328
H47   H     H_    0.532691 0.810845 0.876336 0.215868
H48   H     H_    0.552613 0.964768 0.835041 0.198720
N8    N     N_2   0.351718 0.723314 0.056206 -0.500490
H49   H     H_    0.316598 0.760122 0.036772 0.256813
C100  C     C_3   0.382118 0.882053 0.074732 -0.518894
H50   H     H_    0.375099 0.979568 0.039743 0.226549
H51   H     H_    0.419993 0.841413 0.089612 0.214501
H52   H     H_    0.374902 0.952254 0.108658 0.189266
N9    N     N_2   0.860569 0.194779 0.042965 -0.532508
H53   H     H_    0.868570 0.100411 0.074736 0.256927
C101  C     C_3   0.817263 0.296823 0.032769 -0.505797
H54   H     H_    0.817774 0.355066 0.072426 0.208897
H55   H     H_    0.786050 0.204599 0.015744 0.192403
H56   H     H_    0.814354 0.412517 0.003806 0.205340
N10   N     N_2   0.139935 0.806768 0.956940 -0.528873
H57   H     H_    0.131146 0.900077 0.924824 0.256819
C102  C     C_3   0.183968 0.709735 0.967182 -0.516575
H58   H     H_    0.183867 0.652677 0.927565 0.210275
H59   H     H_    0.187728 0.593512 0.996221 0.204793
H60   H     H_    0.214516 0.805177 0.984135 0.185476
N11   N     N_2   0.639434 0.694709 0.457036 -0.532513
H61   H     H_    0.631438 0.600324 0.425268 0.256929
C103  C     C_3   0.682736 0.796775 0.467233 -0.505818
H62   H     H_    0.682224 0.855014 0.427576 0.208901
H63   H     H_    0.713953 0.704570 0.484259 0.192402
H64   H     H_    0.685641 0.912472 0.496195 0.205342
N12   N     N_2   0.360061 0.306852 0.543060 -0.528880
H65   H     H_    0.368848 0.400177 0.575173 0.256822
C104  C     C_3   0.316029 0.209809 0.532817 -0.516569
H66   H     H_    0.316131 0.152762 0.572434 0.210283
H67   H     H_    0.312272 0.093580 0.503780 0.204794
H68   H     H_    0.285481 0.305241 0.515863 0.185474

loop_
_geom_bond_atom_site_label_1
_geom_bond_atom_site_label_2
_ccdc_geom_bond_type
O17   V3    S    
C55   C59   A    
C97   H38   S    
C25   C29   A    
C1    C84   S    
C73   H25   S    
C57   C58   A    
C54   C66   A    
C47   N3    A    
O19   V1    S    
O13   V1    S    
C102  H58   S    
C78   H30   S    
O3    C7    A    
C10   C18   A    
C56   C60   A    
C80   H32   S    
C92   N8    S    
C11   C23   A    
C102  H59   S    
C77   C81   A    
C33   C38   A    
N6    C98   S    
C5    C12   S    
C71   H23   S    
N11   H61   S    
O1    C5    A    
C6    C11   S    
C97   H39   S    
C16   N12   S    
C35   C40   A    
C26   C30   A    
C69   H21   S    
C52   C56   A    
C36   C39   A    
C40   C44   A    
C64   C71   A    
O9    V1    S    
C49   O25   S    
C23   H8    S    
C14   C18   A    
C99   H47   S    
C53   C57   A    
C59   C63   A    
C48   C64   A    
C51   C55   A    
C44   H4    S    
C91   N7    S    
C50   C54   A    
N7    H45   S    
C60   C64   A    
O1    V3    S    
C9    C21   A    
O2    V4    S    
N5    H37   S    
O3    V1    S    
C81   C85   A    
C40   H16   S    
C28   C36   A    
C90   C94   A    
C76   H28   S    
C1    O15   A    
C15   C31   A    
C48   N4    A    
C68   H20   S    
C2    O16   A    
C16   C32   A    
C54   C58   A    
C72   H24   S    
O2    C6    A    
C103  H64   S    
C74   C94   A    
C58   C62   A    
C10   C22   A    
C21   C25   A    
C48   O24   S    
C11   C19   A    
C66   C70   A    
C43   H3    S    
N9    H53   S    
C77   H29   S    
C101  H56   S    
C13   C29   A    
C7    C10   S    
C34   C37   A    
O11   C7    A    
C38   H14   S    
O15   V3    S    
C35   C36   A    
O12   C8    A    
C13   C17   A    
C70   H22   S    
C24   H7    S    
C46   C62   A    
O10   V2    S    
C45   C61   A    
N2    C50   A    
O5    V1    S    
C104  H67   S    
N4    C52   A    
C57   C61   A    
N1    C94   S    
C97   H40   S    
C39   C43   A    
O7    V3    S    
C38   C42   A    
C62   C69   A    
C87   H35   S    
C103  H62   S    
C26   C34   A    
C84   C88   A    
C61   C70   A    
C88   H36   S    
C46   N2    A    
N7    C99   S    
C17   H10   S    
C45   N1    A    
O18   V4    S    
C15   C19   A    
C90   N6    S    
C76   C96   A    
C87   C91   A    
C19   H12   S    
C32   C44   A    
N1    C49   A    
C39   H15   S    
C21   H6    S    
O8    V4    S    
C100  H52   S    
O7    C3    A    
C99   H46   S    
C47   O23   S    
C73   C93   A    
C2    C83   S    
C74   C78   A    
C53   C65   A    
N3    C96   S    
C3    C82   S    
C31   C43   A    
N12   H65   S    
C14   C30   A    
C24   C28   A    
C91   C95   A    
O8    C4    A    
C98   H44   S    
C55   C67   A    
N9    C101  S    
O9    C5    A    
C46   O22   S    
C45   O21   S    
C66   H18   S    
O14   V2    S    
C50   O26   S    
C92   C96   A    
C65   H17   S    
N12   C104  S    
C56   C68   A    
C83   C87   A    
N2    C93   S    
C67   H19   S    
C102  H60   S    
C99   H48   S    
C27   C35   A    
C49   C53   A    
C79   H31   S    
C68   C72   A    
C29   C41   A    
N10   C102  S    
O16   V4    S    
C104  H68   S    
C51   O27   S    
C41   H1    S    
C3    O13   A    
O6    V2    S    
C4    C81   S    
C86   C90   A    
C20   H11   S    
C52   O28   S    
O5    C1    A    
C74   H26   S    
C25   C33   A    
C23   C27   A    
O11   V3    S    
C30   C42   A    
C65   C69   A    
O12   V4    S    
C22   C26   A    
C73   C77   A    
C8    C9    S    
C75   H27   S    
C9    C17   A    
O10   C6    A    
O20   V2    S    
C89   N5    S    
N8    H49   S    
C80   C84   A    
N6    H41   S    
C37   H13   S    
N4    C95   S    
C78   C82   A    
C33   C34   A    
C42   H2    S    
O4    C8    A    
C104  H66   S    
C15   N11   S    
C79   C83   A    
C75   C79   A    
C98   H43   S    
C12   C24   A    
C27   C31   A    
C22   H5    S    
C85   H33   S    
C100  H50   S    
O4    V2    S    
C63   C72   A    
N8    C100  S    
C12   C20   A    
O6    C2    A    
N10   H57   S    
N3    C51   A    
C101  H54   S    
C37   C41   A    
C16   C20   A    
C47   C63   A    
C88   C92   A    
C18   H9    S    
C76   C80   A    
C98   H42   S    
C82   C86   A    
C4    O14   A    
C59   C60   A    
C103  H63   S    
C86   H34   S    
C75   C95   A    
C14   N10   S    
C67   C71   A    
C100  H51   S    
N11   C103  S    
C85   C89   A    
C89   C93   A    
C28   C32   A    
C13   N9    S    
C101  H55   S    
N5    C97   S    
