data_str_m3_o5_o29_f0_pcu.sym.65
_audit_creation_date              2013-03-05T16:48:43-0500
_audit_creation_method            fapswitch 2.2
_symmetry_space_group_name_H-M    P1
_symmetry_Int_Tables_number       1
_space_group_crystal_system       triclinic
_cell_length_a                    27.675735
_cell_length_b                    8.929004
_cell_length_c                    8.097317
_cell_angle_alpha                 89.963458
_cell_angle_beta                  90.385071
_cell_angle_gamma                 89.623423
_cell_volume                      2000.8937749

loop_
_atom_site_label
_atom_site_type_symbol
_atom_site_description
_atom_site_fract_x
_atom_site_fract_y
_atom_site_fract_z
_atom_type_partial_charge
O1    O     O_R   0.500000 0.285350 0.636850 -0.617442
O2    O     O_R   0.500000 0.714650 0.363150 -0.617676
O3    O     O_R   0.500000 0.714650 0.636850 -0.617900
O4    O     O_R   0.500000 0.285350 0.363150 -0.617799
C1    C     C_R   0.500170 0.217954 0.500046 0.944702
C2    C     C_R   0.499860 0.782046 0.499955 0.944054
O5    O     O_R   0.428760 0.500000 0.636860 -0.611746
O6    O     O_R   0.571240 0.500000 0.363140 -0.612033
O7    O     O_R   0.571240 0.500000 0.636860 -0.630150
O8    O     O_R   0.428760 0.500000 0.363140 -0.630556
C3    C     C_R   0.406070 0.501164 0.499388 0.909481
C4    C     C_R   0.593923 0.498962 0.500604 0.910118
Zn1   Zn    Zn3+2 0.500000 0.500000 0.682780 0.987281
Zn2   Zn    Zn3+2 0.500000 0.500000 0.317220 0.987130
C5    C     C_R   0.178262 0.427108 0.635369 0.514844
C6    C     C_R   0.821857 0.563769 0.362477 0.515024
C7    C     C_R   0.178232 0.507218 0.354233 0.517552
C8    C     C_R   0.821897 0.483693 0.643625 0.517411
O9    O     O_2   0.203334 0.387564 0.772384 -0.537244
O10   O     O_2   0.796786 0.604086 0.225736 -0.537108
O11   O     O_2   0.203294 0.542562 0.217265 -0.533803
O12   O     O_2   0.796858 0.449183 0.780899 -0.533902
N1    N     N_R   0.202238 0.467456 0.495631 -0.347085
N2    N     N_R   0.797883 0.524490 0.502594 -0.347088
C9    C     C_R   0.275958 0.614899 0.494885 -0.160157
C10   C     C_R   0.723540 0.380167 0.504609 -0.159413
C11   C     C_R   0.281191 0.343582 0.505334 -0.103523
C12   C     C_R   0.719440 0.651653 0.493554 -0.103283
C13   C     C_R   0.326178 0.624639 0.492803 0.139903
C14   C     C_R   0.673290 0.372521 0.507070 0.140131
C15   C     C_R   0.331478 0.350696 0.504747 0.132162
C16   C     C_R   0.669122 0.646567 0.494568 0.131188
C17   C     C_R   0.253640 0.475090 0.499248 0.236364
C18   C     C_R   0.746444 0.519027 0.499748 0.236000
C19   C     C_R   0.102029 0.474509 0.494923 -0.048527
C20   C     C_R   0.898072 0.513909 0.502042 -0.048523
C21   C     C_R   0.127711 0.429334 0.637446 -0.026254
C22   C     C_R   0.872397 0.559752 0.359758 -0.026201
C23   C     C_R   0.127723 0.512130 0.351422 -0.028849
C24   C     C_R   0.872388 0.476968 0.645787 -0.028850
C25   C     C_R   0.102628 0.389294 0.779188 -0.145972
C26   C     C_R   0.897471 0.598822 0.217665 -0.145672
C27   C     C_R   0.102714 0.555410 0.209142 -0.145733
C28   C     C_R   0.897389 0.432711 0.787723 -0.145990
C29   C     C_R   0.353921 0.492079 0.497385 -0.116008
C30   C     C_R   0.646105 0.506151 0.502526 -0.116939
H1    H     H_    0.263421 0.235871 0.508589 0.155632
H2    H     H_    0.737655 0.758621 0.489683 0.155828
H3    H     H_    0.254081 0.715960 0.491642 0.148660
H4    H     H_    0.744981 0.278209 0.507706 0.148835
H5    H     H_    0.121592 0.352498 0.889648 0.195752
H6    H     H_    0.878515 0.635895 0.107301 0.195998
H7    H     H_    0.121730 0.584054 0.097031 0.196058
H8    H     H_    0.878382 0.404341 0.899936 0.195877
C31   C     C_R   0.974445 0.456649 0.644935 0.045534
C32   C     C_R   0.025632 0.530296 0.351505 0.045541
C33   C     C_R   0.974498 0.541763 0.353847 0.045243
C34   C     C_R   0.025578 0.445184 0.642589 0.045212
C35   C     C_R   0.949244 0.504200 0.500312 0.075095
C36   C     C_R   0.050837 0.483132 0.496264 0.075092
C37   C     C_R   0.947343 0.422857 0.787809 -0.230348
C38   C     C_R   0.052738 0.564154 0.208663 -0.230459
C39   C     C_R   0.947451 0.590694 0.214550 -0.231095
C40   C     C_R   0.052630 0.396325 0.781906 -0.230942
H9    H     H_    0.963308 0.388186 0.903140 0.145890
H10   H     H_    0.036767 0.598258 0.093140 0.145945
H11   H     H_    0.963483 0.624322 0.099929 0.147302
H12   H     H_    0.036593 0.362147 0.896320 0.147239
C41   C     C_1   0.500077 0.065186 0.500058 -0.200332
C42   C     C_1   0.499962 0.934814 0.499942 -0.200190
N3    N     N_1   0.500000 0.500000 0.073640 -0.035196
N4    N     N_1   0.500000 0.500000 0.926360 -0.035176
N5    N     N_2   0.358858 0.215098 0.509355 -0.316068
H13   H     H_    0.390939 0.217950 0.445540 0.219724
C43   C     C_3   0.364292 0.151043 0.672505 -0.756912
H14   H     H_    0.385616 0.045535 0.664984 0.238061
H15   H     H_    0.328348 0.125080 0.725256 0.254919
H16   H     H_    0.383729 0.229923 0.755277 0.256781
N6    N     N_2   0.642264 0.783138 0.489155 -0.315338
H17   H     H_    0.610295 0.781885 0.553731 0.219289
C44   C     C_3   0.636663 0.845587 0.325302 -0.756897
H18   H     H_    0.615432 0.951323 0.331806 0.237040
H19   H     H_    0.617029 0.766104 0.243792 0.256724
H20   H     H_    0.672565 0.870623 0.271675 0.255372
N7    N     N_2   0.348622 0.767586 0.491435 -0.322463
H21   H     H_    0.330121 0.846800 0.559297 0.238904
C45   C     C_3   0.360141 0.822359 0.328329 -0.732656
H22   H     H_    0.326443 0.843430 0.256298 0.249300
H23   H     H_    0.383105 0.740618 0.261206 0.260624
H24   H     H_    0.380402 0.928825 0.339239 0.240626
N8    N     N_2   0.650209 0.230596 0.508138 -0.322429
H25   H     H_    0.668200 0.150964 0.439286 0.238767
C46   C     C_3   0.638764 0.175472 0.671150 -0.730166
H26   H     H_    0.672524 0.148945 0.740727 0.248471
H27   H     H_    0.617016 0.071864 0.659800 0.238923
H28   H     H_    0.617270 0.259276 0.740962 0.260488

loop_
_geom_bond_atom_site_label_1
_geom_bond_atom_site_label_2
_geom_bond_distance
_ccdc_geom_bond_type
O5    Zn1   2.003918 S    
C45   H22   1.111571 S    
C46   H26   1.111887 S    
C31   C35   1.422165 A    
Zn2   N3    1.972344 S    
C19   C23   1.407997 A    
C20   C35   1.418485 A    
C44   H18   1.110218 S    
N7    H21   1.031465 S    
C11   C17   1.396534 A    
O5    C3    1.274378 A    
C7    N1    1.365471 A    
O1    C1    1.261010 A    
C40   H12   1.074883 S    
C19   C21   1.408673 A    
C22   C26   1.393019 A    
C10   H4    1.083618 S    
C15   N5    1.424438 S    
C34   C36   1.421639 A    
C32   C33   1.418465 A    
C7    C23   1.398294 A    
O7    Zn1   2.008826 S    
C5    C21   1.399253 A    
C8    C24   1.398276 A    
C27   H7    1.083682 S    
N1    C17   1.424765 S    
C1    C41   1.364088 S    
C8    N2    1.365491 A    
C13   N7    1.423226 S    
O3    Zn1   1.952127 S    
C6    O10   1.350139 S    
O3    C2    1.260929 A    
C5    N1    1.364965 A    
C12   C18   1.396865 A    
C6    N2    1.364982 A    
C34   C40   1.416731 A    
N5    C43   1.445762 S    
O2    C2    1.261013 A    
C44   H19   1.111489 S    
C10   C18   1.396885 A    
C33   C39   1.416741 A    
C9    H3    1.083570 S    
N7    C45   1.446373 S    
N5    H13   1.030729 S    
C9    C13   1.393370 A    
C39   H11   1.074876 S    
C38   H10   1.074918 S    
C11   C15   1.393619 A    
C12   C16   1.393702 A    
C4    C30   1.445991 S    
O8    Zn2   2.008829 S    
N8    H25   1.031451 S    
N6    C44   1.445829 S    
C14   N8    1.422934 S    
C23   C27   1.393160 A    
C43   H16   1.111486 S    
N2    C18   1.424797 S    
C32   C36   1.422120 A    
C13   C29   1.406944 A    
C19   C36   1.418476 A    
C5    O9    1.350180 S    
C43   H14   1.110301 S    
C28   H8    1.083677 S    
N8    C46   1.446275 S    
C20   C24   1.408032 A    
O6    C4    1.274239 A    
C9    C17   1.396979 A    
C43   H15   1.111014 S    
C10   C14   1.393093 A    
C46   H28   1.110218 S    
C45   H23   1.109544 S    
C32   C38   1.416396 A    
C3    C29   1.446074 S    
O1    Zn1   1.952594 S    
C44   H20   1.111015 S    
C11   H1    1.083476 S    
C2    C42   1.364088 S    
C12   H2    1.083452 S    
O6    Zn2   2.003915 S    
C8    O12   1.350343 S    
C16   C30   1.411683 A    
C14   C30   1.406720 A    
O4    C1    1.260931 A    
Zn1   N4    1.972344 S    
C28   C37   1.384740 A    
C20   C22   1.408697 A    
N3    N4    1.192572 T    
O4    Zn2   1.952128 S    
C16   N6    1.424451 S    
C31   C34   1.418448 A    
C31   C37   1.416405 A    
C21   C25   1.392998 A    
C41   C42   1.164115 T    
O2    Zn2   1.952593 S    
O7    C4    1.273078 A    
C7    O11   1.350378 S    
C33   C35   1.421688 A    
O8    C3    1.273113 A    
N6    H17   1.030870 S    
C37   H9    1.074920 S    
C24   C28   1.393176 A    
C46   H27   1.110523 S    
C15   C29   1.411996 A    
C45   H24   1.110144 S    
C6    C22   1.399263 A    
C25   C40   1.385080 A    
C26   C39   1.385054 A    
C25   H5    1.083725 S    
C27   C38   1.384794 A    
C26   H6    1.083727 S    
