data_str_m9_o16_o27_f0_sra.sym.39
_audit_creation_date              2012-12-11T15:16:40-0500
_audit_creation_method            fapswitch 2.2
_symmetry_space_group_name_H-M    P1
_symmetry_Int_Tables_number       1
_space_group_crystal_system       triclinic
_cell_length_a                    25.123653
_cell_length_b                    7.231371
_cell_length_c                    21.904569
_cell_angle_alpha                 90.065425
_cell_angle_beta                  110.25058
_cell_angle_gamma                 90.058302
_cell_volume                      3733.59462368

loop_
_atom_site_label
_atom_site_type_symbol
_atom_type_description
_atom_site_fract_x
_atom_site_fract_y
_atom_site_fract_z
_atom_type_partial_charge
O1    O     O_R   0.554350 0.505270 0.581390 -0.531645
O2    O     O_R   0.445650 0.005270 0.418610 -0.532107
O3    O     O_R   0.553380 0.177580 0.454800 -0.540645
O4    O     O_R   0.446620 0.677580 0.545200 -0.540730
C1    C     C_R   0.565718 0.344539 0.438109 0.674998
C2    C     C_R   0.434278 0.844534 0.561892 0.676586
O5    O     O_R   0.560970 0.175640 0.583140 -0.532219
O6    O     O_R   0.439030 0.675640 0.416860 -0.532947
O7    O     O_R   0.453290 0.004120 0.547860 -0.538881
O8    O     O_R   0.546710 0.504120 0.452140 -0.538817
C3    C     C_R   0.576023 0.344064 0.607620 0.685459
C4    C     C_R   0.423944 0.843639 0.392366 0.684782
O9    O     O_3   0.464660 0.338800 0.488280 -0.373257
O10   O     O_3   0.535340 0.838800 0.511720 -0.372563
V1    V     V_3+5 0.506560 0.064420 0.502170 1.410791
V2    V     V_3+5 0.493440 0.564420 0.497830 1.409607
C5    C     C_R   0.149422 0.997608 0.288421 -0.156115
C6    C     C_R   0.851540 0.479223 0.710972 -0.155832
H1    H     H_    0.064039 0.024633 0.222177 0.110061
H2    H     H_    0.936928 0.506879 0.777289 0.109571
H3    H     H_    0.235504 0.004390 0.400205 0.130167
H4    H     H_    0.765994 0.474712 0.598679 0.130379
H5    H     H_    0.137558 0.034460 0.329953 0.119877
H6    H     H_    0.863873 0.507170 0.669106 0.119888
C7    C     C_R   0.120932 0.943981 0.172453 -0.037187
C8    C     C_R   0.879149 0.441895 0.827565 -0.036197
C9    C     C_R   0.396201 0.799865 0.274134 -0.202560
C10   C     C_R   0.602923 0.316980 0.726351 -0.201744
C11   C     C_R   0.356691 0.789962 0.210905 0.061568
C12   C     C_R   0.642015 0.315802 0.789925 0.062969
C13   C     C_R   0.299372 0.827437 0.200123 -0.199080
C14   C     C_R   0.699651 0.347448 0.800526 -0.200288
C15   C     C_R   0.280363 0.875671 0.251729 0.063047
C16   C     C_R   0.719425 0.380020 0.748368 0.062969
C17   C     C_R   0.321624 0.886668 0.316021 0.067760
C18   C     C_R   0.678567 0.383020 0.683747 0.067793
C19   C     C_R   0.221662 0.911671 0.241666 0.081613
C20   C     C_R   0.778398 0.410359 0.758295 0.081771
C21   C     C_R   0.206167 0.958977 0.296279 0.135034
C22   C     C_R   0.794511 0.445765 0.703253 0.134665
C23   C     C_R   0.247297 0.968633 0.358521 -0.196881
C24   C     C_R   0.753733 0.448239 0.640697 -0.196695
C25   C     C_R   0.303984 0.932881 0.368339 -0.186370
C26   C     C_R   0.696818 0.416790 0.630988 -0.184829
C27   C     C_R   0.177592 0.903840 0.179551 -0.212655
C28   C     C_R   0.822196 0.407239 0.820638 -0.213633
C29   C     C_R   0.107382 0.991478 0.227097 -0.162500
C30   C     C_R   0.893305 0.478623 0.772531 -0.162991
C31   C     C_R   0.379668 0.848077 0.326739 -0.094390
C32   C     C_R   0.620204 0.350852 0.673246 -0.093050
H7    H     H_    0.185759 0.870713 0.135650 0.095783
H8    H     H_    0.813675 0.380211 0.864735 0.094800
H9    H     H_    0.440522 0.770729 0.282629 0.105931
H10   H     H_    0.558511 0.289120 0.717878 0.105597
H11   H     H_    0.270377 0.813887 0.150920 0.110670
H12   H     H_    0.727967 0.349058 0.850303 0.109997
H13   H     H_    0.334011 0.941858 0.417561 0.113899
H14   H     H_    0.667072 0.419782 0.581520 0.111696
C33   C     C_R   0.121830 0.765110 0.882973 -0.160670
C34   C     C_R   0.878207 0.265096 0.117070 -0.162118
H15   H     H_    0.106430 0.637093 0.896436 0.123825
H16   H     H_    0.893527 0.137086 0.103510 0.123465
C35   C     C_R   0.158228 0.755189 0.846989 -0.140139
C36   C     C_R   0.841870 0.255171 0.153131 -0.141479
H17   H     H_    0.169587 0.620146 0.833973 0.134233
H18   H     H_    0.830472 0.120135 0.166099 0.133452
C37   C     C_R   0.179357 0.916889 0.827836 0.019006
C38   C     C_R   0.820842 0.416866 0.172405 0.021678
C39   C     C_R   0.163347 0.088950 0.846148 -0.138370
C40   C     C_R   0.836893 0.588918 0.154145 -0.137006
H19   H     H_    0.178755 0.216565 0.832411 0.138331
H20   H     H_    0.821561 0.716526 0.167972 0.137325
C41   C     C_R   0.126932 0.098975 0.882211 -0.160874
C42   C     C_R   0.873244 0.598945 0.118003 -0.160796
H21   H     H_    0.115459 0.234085 0.895036 0.121832
H22   H     H_    0.884752 0.734049 0.105220 0.121068
C43   C     C_R   0.105444 0.937145 0.900994 -0.047250
C44   C     C_R   0.894627 0.437125 0.099090 -0.046222
N1    N     N_R   0.237479 0.061711 0.769429 -0.282879
N2    N     N_R   0.762771 0.561691 0.230873 -0.282245
N3    N     N_R   0.271076 0.051695 0.733874 -0.286421
N4    N     N_R   0.729153 0.551688 0.266403 -0.285677
C45   C     C_R   0.286131 0.885403 0.715797 0.510852
C46   C     C_R   0.714050 0.385412 0.284426 0.511603
N5    N     N_R   0.266104 0.729548 0.735057 -0.282937
N6    N     N_R   0.734063 0.229562 0.265151 -0.282428
N7    N     N_R   0.232507 0.739565 0.770612 -0.286276
N8    N     N_R   0.767678 0.239565 0.229617 -0.286482
C47   C     C_R   0.217384 0.905861 0.788608 0.509675
C48   C     C_R   0.782840 0.405846 0.211666 0.511889
C49   C     C_R   0.339199 0.702360 0.657100 -0.138688
C50   C     C_R   0.661075 0.202424 0.343236 -0.137588
H23   H     H_    0.324164 0.574720 0.671292 0.137936
H24   H     H_    0.676273 0.074809 0.329241 0.138414
C51   C     C_R   0.374649 0.692399 0.619866 -0.161077
C52   C     C_R   0.625575 0.192466 0.380410 -0.159890
H25   H     H_    0.385871 0.557340 0.606704 0.121043
H26   H     H_    0.614484 0.057431 0.393729 0.121687
C53   C     C_R   0.395534 0.854274 0.600363 -0.046885
C54   C     C_R   0.604487 0.354302 0.399669 -0.048631
C55   C     C_R   0.379665 0.026280 0.618977 -0.162228
C56   C     C_R   0.620203 0.526276 0.380869 -0.163771
H27   H     H_    0.394738 0.154266 0.605066 0.122966
H28   H     H_    0.604967 0.654236 0.394582 0.123810
C57   C     C_R   0.344239 0.036152 0.656143 -0.140263
C58   C     C_R   0.655686 0.536146 0.343772 -0.140327
H29   H     H_    0.333187 0.171178 0.669521 0.133530
H30   H     H_    0.666617 0.671143 0.330247 0.134347
C59   C     C_R   0.323586 0.874411 0.675881 0.020632
C60   C     C_R   0.676542 0.374435 0.324280 0.019471
O11   O     O_R   0.953220 0.285790 0.047790 -0.537738
O12   O     O_R   0.046780 0.785790 0.952210 -0.537595
O13   O     O_R   0.939020 0.617570 0.916840 -0.533633
O14   O     O_R   0.060980 0.117570 0.083160 -0.533670
C61   C     C_R   0.923972 0.448580 0.892436 0.682759
C62   C     C_R   0.076042 0.948964 0.107583 0.682946
O15   O     O_R   0.946600 0.615450 0.045180 -0.541068
O16   O     O_R   0.053400 0.115450 0.954820 -0.540934
O17   O     O_R   0.054370 0.786770 0.081410 -0.531103
O18   O     O_R   0.945630 0.286770 0.918590 -0.531315
C63   C     C_R   0.934120 0.446926 0.061505 0.675802
C64   C     C_R   0.065899 0.946930 0.938514 0.676464
O19   O     O_3   0.035300 0.454160 0.011680 -0.373065
O20   O     O_3   0.964700 0.954160 0.988320 -0.373447
V3    V     V_3+5 0.993450 0.728620 0.997830 1.409479
V4    V     V_3+5 0.006550 0.228620 0.002170 1.409851
C65   C     C_R   0.375201 0.737220 0.155780 0.098244
C66   C     C_R   0.413616 0.590687 0.162222 -0.129022
C67   C     C_R   0.430613 0.540385 0.110094 -0.113196
C68   C     C_R   0.409584 0.635605 0.051142 -0.091779
C69   C     C_R   0.371511 0.781403 0.044183 -0.108675
C70   C     C_R   0.354345 0.832232 0.096138 -0.137763
H31   H     H_    0.429854 0.513501 0.207219 0.109407
H32   H     H_    0.459983 0.427072 0.115361 0.115615
H33   H     H_    0.422785 0.596394 0.010850 0.110084
H34   H     H_    0.355338 0.855345 0.998520 0.119913
H35   H     H_    0.325271 0.946932 0.089953 0.110029
C71   C     C_R   0.622549 0.280987 0.845693 0.099286
C72   C     C_R   0.572761 0.364678 0.848167 -0.129333
C73   C     C_R   0.554627 0.332154 0.900788 -0.112672
C74   C     C_R   0.585850 0.215952 0.951375 -0.089816
C75   C     C_R   0.635276 0.131918 0.949444 -0.105617
C76   C     C_R   0.653615 0.163966 0.896951 -0.135317
H36   H     H_    0.548308 0.457029 0.809861 0.108476
H37   H     H_    0.516405 0.397543 0.902420 0.113769
H38   H     H_    0.571740 0.191013 0.992065 0.111653
H39   H     H_    0.659354 0.041499 0.988589 0.119522
H40   H     H_    0.691670 0.095642 0.896046 0.108089

loop_
_geom_bond_atom_site_label_1
_geom_bond_atom_site_label_2
_ccdc_geom_bond_type
C20   C22   A    
C35   H17   S    
C12   C71   S    
C9    C11   A    
C23   C25   A    
C68   H33   S    
O1    C3    A    
C37   C47   S    
O2    C4    A    
C66   C67   A    
C33   C43   A    
C2    O7    A    
C4    C31   S    
O3    V1    S    
C21   C23   A    
O12   C64   A    
C57   H29   S    
C34   C44   A    
C5    H5    S    
C42   H22   S    
C6    H6    S    
C36   C38   A    
C46   N6    A    
C71   C76   A    
C5    C21   A    
O14   V4    S    
C51   C53   A    
O11   C63   A    
C27   H7    S    
C28   H8    S    
C50   C52   A    
C34   H16   S    
O16   C64   A    
C39   H19   S    
C44   C63   S    
O15   C63   A    
C65   C70   A    
C6    C22   A    
C43   C64   S    
C8    C61   S    
C10   C32   A    
C26   H14   S    
C10   C12   A    
C52   H26   S    
C17   C31   A    
C38   C48   S    
C13   C15   A    
C39   C41   A    
C17   C25   A    
C7    C29   A    
C16   C18   A    
C8    C30   A    
C22   C24   A    
C55   H27   S    
C9    H9    S    
C11   C13   A    
C41   H21   S    
C24   C26   A    
C54   C56   A    
N3    C45   A    
N5    N7    A    
C55   C57   A    
C76   H40   S    
C35   C37   A    
C33   H15   S    
N1    C47   A    
C73   C74   A    
N2    N4    A    
C69   H34   S    
C7    C62   S    
N1    N3    A    
C10   H10   S    
O19   V4    S    
C70   H35   S    
C15   C19   A    
C37   C39   A    
C36   H18   S    
O4    V2    S    
O5    C3    A    
C40   C42   A    
C49   H23   S    
C72   H36   S    
O10   V1    S    
C1    C54   S    
O6    C4    A    
O11   V4    S    
C50   H24   S    
C25   H13   S    
O1    V2    S    
C56   H28   S    
O2    V1    S    
O12   V3    S    
H2    C30   S    
O18   V4    S    
C74   H38   S    
H3    C23   S    
O17   V3    S    
O4    C2    A    
C53   C55   A    
N8    C48   A    
N4    C46   A    
N7    C47   A    
C18   C26   A    
C19   C27   A    
C65   C66   A    
C7    C27   A    
C18   C32   A    
C67   C68   A    
C58   C60   A    
C57   C59   A    
C45   N5    A    
C16   C20   A    
C75   H39   S    
C5    C29   A    
O3    C1    A    
C6    C30   A    
C73   H37   S    
O14   C62   A    
C72   C73   A    
C51   H25   S    
O9    V2    S    
C45   C59   S    
C33   C35   A    
C62   O17   A    
C34   C36   A    
C2    C53   S    
C49   C59   A    
C11   C65   S    
C68   C69   A    
O7    V1    S    
C1    O8    A    
C19   C21   A    
C3    C32   S    
O8    V2    S    
C66   H31   S    
C12   C14   A    
C50   C60   A    
H4    C24   S    
C58   H30   S    
C52   C54   A    
O5    V1    S    
C15   C17   A    
C56   C58   A    
N6    N8    A    
N2    C48   A    
C69   C70   A    
C46   C60   S    
C20   C28   A    
C71   C72   A    
C8    C28   A    
C49   C51   A    
C67   H32   S    
O13   V3    S    
O6    V2    S    
C61   O18   A    
C42   C44   A    
H1    C29   S    
C38   C40   A    
C41   C43   A    
C75   C76   A    
C40   H20   S    
O16   V4    S    
C13   H11   S    
C74   C75   A    
O15   V3    S    
C14   H12   S    
C9    C31   A    
C14   C16   A    
O20   V3    S    
O13   C61   A    
