data_str_m2_o10_o28_f0_pcu.sym.43
_audit_creation_date              2012-10-26T20:18:16-0400
_audit_creation_method            fapswitch 2.2
_symmetry_space_group_name_H-M    P1
_symmetry_Int_Tables_number       1
_space_group_crystal_system       triclinic
_cell_length_a                    23.509134
_cell_length_b                    8.712458
_cell_length_c                    7.478364
_cell_angle_alpha                 102.306389
_cell_angle_beta                  95.624597
_cell_angle_gamma                 93.436248
_cell_volume                      1484.17942298

loop_
_atom_site_label
_atom_site_type_symbol
_atom_type_description
_atom_site_fract_x
_atom_site_fract_y
_atom_site_fract_z
_atom_type_partial_charge
C1    C     C_R   0.498241 0.199987 0.453736 0.561495
C2    C     C_R   0.708596 0.609882 0.663483 0.028854
C3    C     C_R   0.231538 0.408089 0.332173 -0.042161
C4    C     C_R   0.768109 0.608020 0.663419 -0.044120
C5    C     C_R   0.208092 0.473377 0.493300 0.196816
C6    C     C_R   0.791684 0.532197 0.507079 0.197670
C7    C     C_2   0.497398 0.032484 0.427511 -0.133079
C8    C     C_2   0.502634 0.967520 0.572492 -0.130776
C9    C     C_R   0.390858 0.490465 0.498474 0.561467
C10   C     C_R   0.609081 0.509415 0.501427 0.563451
C11   C     C_R   0.887324 0.663833 0.540909 0.426935
C12   C     C_R   0.501770 0.800014 0.546265 0.564874
C13   C     C_R   0.110935 0.348699 0.433827 0.423043
C14   C     C_R   0.874811 0.384221 0.479775 0.428351
C15   C     C_R   0.126638 0.626722 0.541410 0.427529
C16   C     C_R   0.932408 0.373078 0.446133 0.013096
C17   C     C_R   0.067701 0.639590 0.559452 -0.000290
C18   C     C_R   0.970017 0.512050 0.500928 -0.061496
C19   C     C_R   0.029531 0.502816 0.495639 -0.050723
C20   C     C_R   0.947794 0.659945 0.559175 0.006670
C21   C     C_R   0.050890 0.356944 0.423193 0.021585
C22   C     C_R   0.952804 0.230181 0.355219 0.040537
C23   C     C_R   0.244369 0.534036 0.656301 -0.033096
C24   C     C_R   0.046189 0.784599 0.637058 0.000515
C25   C     C_R   0.012050 0.224984 0.338194 0.005776
C26   C     C_R   0.986240 0.796794 0.630068 0.024179
C27   C     C_2   0.912088 0.092573 0.258494 0.653146
C28   C     C_2   0.086241 0.918066 0.744848 0.693139
C29   C     C_2   0.031327 0.099859 0.195112 0.674570
C30   C     C_2   0.964728 0.950154 0.711220 0.684133
C31   C     C_2   0.311536 0.313347 0.161577 0.596567
C32   C     C_2   0.687234 0.705482 0.828450 0.593266
C33   C     C_R   0.755638 0.457694 0.348266 -0.034521
C34   C     C_R   0.303588 0.535983 0.656583 -0.145924
C35   C     C_R   0.696400 0.454345 0.347370 -0.143290
C36   C     C_R   0.327797 0.473882 0.494765 -0.028168
C37   C     C_R   0.672019 0.526730 0.504857 -0.025213
C38   C     C_R   0.290890 0.402132 0.331835 0.030477
Cu1   Cu    Cu3+1 0.506340 0.517380 0.684380 1.023275
Cu2   Cu    Cu3+1 0.493660 0.482620 0.315620 1.024015
H1    H     H_    0.226597 0.583353 0.782295 0.177391
H2    H     H_    0.545361 0.622526 0.051352 0.249573
H3    H     H_    0.893211 0.856959 0.198014 0.371948
H4    H     H_    0.122611 0.137851 0.766775 0.370863
H5    H     H_    0.032671 0.938756 0.351537 0.351450
H6    H     H_    0.913032 0.067873 0.877790 0.373543
H7    H     H_    0.302623 0.258375 0.883587 0.348502
H8    H     H_    0.696420 0.777091 0.105534 0.351420
H9    H     H_    0.773667 0.399738 0.226182 0.172677
H10   H     H_    0.330506 0.589135 0.783326 0.164486
H11   H     H_    0.669588 0.391754 0.224230 0.158213
H12   H     H_    0.203049 0.359092 0.207367 0.184290
H13   H     H_    0.796579 0.667655 0.784376 0.183386
H14   H     H_    0.492459 0.962103 0.287238 0.143987
H15   H     H_    0.507576 0.037900 0.712766 0.144572
H16   H     H_    0.454631 0.377495 0.948650 0.250185
N1    N     N_R   0.852709 0.527179 0.510617 -0.407985
N2    N     N_R   0.147120 0.482558 0.490330 -0.402920
N3    N     N_2   0.484110 0.456420 0.038520 -0.255522
N4    N     N_2   0.515890 0.543580 0.961480 -0.256041
O1    O     O_R   0.504120 0.286130 0.619770 -0.513506
O2    O     O_2   0.133209 0.207960 0.392449 -0.414734
O3    O     O_2   0.841211 0.254639 0.485634 -0.412724
O4    O     O_2   0.163322 0.756923 0.568782 -0.430673
O5    O     O_2   0.868470 0.113251 0.166177 -0.472729
O6    O     O_R   0.923740 0.939713 0.271351 -0.648702
O7    O     O_2   0.114461 0.902896 0.885452 -0.406510
O8    O     O_R   0.093576 0.057203 0.682216 -0.612705
O9    O     O_2   0.042130 0.132490 0.050917 -0.444788
O10   O     O_R   0.039581 0.949094 0.223302 -0.569883
O11   O     O_2   0.979749 0.068994 0.660561 -0.472900
O12   O     O_R   0.495880 0.713870 0.380230 -0.513760
O13   O     O_R   0.927142 0.958933 0.845352 -0.626042
O14   O     O_2   0.349438 0.224224 0.171054 -0.494274
O15   O     O_R   0.285410 0.325618 0.989534 -0.707654
O16   O     O_2   0.647578 0.787810 0.811375 -0.498190
O17   O     O_R   0.714392 0.706750 0.003814 -0.693339
O18   O     O_R   0.493410 0.256770 0.308360 -0.477123
O19   O     O_R   0.506590 0.743230 0.691640 -0.475076
O20   O     O_R   0.423230 0.514630 0.655730 -0.517229
O21   O     O_R   0.576770 0.485370 0.344270 -0.515933
O22   O     O_R   0.412530 0.485280 0.344320 -0.465316
O23   O     O_R   0.587470 0.514720 0.655680 -0.466318
O24   O     O_2   0.862972 0.800927 0.548380 -0.416485

loop_
_geom_bond_atom_site_label_1
_geom_bond_atom_site_label_2
_ccdc_geom_bond_type
C4    H13   S    
C30   O11   D    
C7    C8    D    
C5    N2    S    
C10   C37   S    
C35   C37   A    
C24   C26   A    
C14   O3    S    
C33   H9    S    
C12   O19   A    
C10   O23   A    
C2    C32   S    
C18   C19   A    
H16   N3    S    
C33   C35   A    
C32   O17   S    
C13   O2    S    
C3    C38   A    
C22   C25   A    
C9    C36   S    
C15   O4    S    
C34   C36   A    
C9    O22   A    
C12   O12   A    
N3    N4    D    
Cu2   N3    S    
C1    O18   A    
C6    N1    S    
C8    H15   S    
C29   O9    D    
C25   C29   S    
Cu1   O1    S    
C11   C20   A    
C34   H10   S    
C17   C24   A    
Cu2   O22   S    
C28   O7    D    
C4    C6    A    
C28   O8    S    
H2    N4    S    
Cu1   Cu2   S    
C30   O13   S    
C31   O14   D    
C13   N2    A    
C9    O20   A    
Cu1   O19   S    
H8    O17   S    
C2    C4    A    
C27   O5    D    
C31   O15   S    
C5    C23   A    
C8    C12   S    
C23   C34   A    
C13   C21   A    
Cu2   O18   S    
C26   C30   S    
C22   C27   S    
C35   H11   S    
C15   N2    A    
C14   C16   A    
H4    O8    S    
C29   O10   S    
C15   C17   A    
C14   N1    A    
C21   C25   A    
C16   C22   A    
Cu2   O12   S    
C19   C21   A    
H5    O10   S    
C1    C7    S    
Cu2   O21   S    
C24   C28   S    
C3    C5    A    
C1    O1    A    
C32   O16   D    
C3    H12   S    
C6    C33   A    
C11   O24   S    
C10   O21   A    
C23   H1    S    
C31   C38   S    
Cu1   O20   S    
C36   C38   A    
Cu1   O23   S    
C27   O6    S    
C2    C37   A    
C20   C26   A    
H3    O6    S    
Cu1   N4    S    
C17   C19   A    
C18   C20   A    
H7    O15   S    
C16   C18   A    
C7    H14   S    
C11   N1    A    
H6    O13   S    
