data_str_m9_o16_o24_f0_sra.sym.51
_audit_creation_date              2012-12-11T15:13:46-0500
_audit_creation_method            fapswitch 2.2
_symmetry_space_group_name_H-M    P1
_symmetry_Int_Tables_number       1
_space_group_crystal_system       triclinic
_cell_length_a                    6.947607
_cell_length_b                    13.504725
_cell_length_c                    20.103387
_cell_angle_alpha                 104.02108
_cell_angle_beta                  89.928827
_cell_angle_gamma                 90.782744
_cell_volume                      1829.83932141

loop_
_atom_site_label
_atom_site_type_symbol
_atom_type_description
_atom_site_fract_x
_atom_site_fract_y
_atom_site_fract_z
_atom_type_partial_charge
O1    O     O_R   0.506780 0.600060 0.449950 -0.540564
O2    O     O_R   0.179840 0.597110 0.589410 -0.545770
O3    O     O_R   0.004570 0.399940 0.550050 -0.543459
C1    C     C_R   0.348585 0.618731 0.616936 0.715820
O4    O     O_R   0.177380 0.612160 0.452890 -0.538118
O5    O     O_R   0.002100 0.415100 0.412560 -0.527834
C2    C     C_R   0.347073 0.639300 0.436654 0.715666
O6    O     O_R   0.509250 0.584900 0.587440 -0.538112
O7    O     O_3   0.337570 0.435330 0.486930 -0.371491
V1    V     V_3+5 0.064650 0.512000 0.502430 1.446953
O8    O     O_R   0.672090 0.402890 0.410590 -0.546347
C3    C     C_R   0.840434 0.381302 0.383038 0.687802
O9    O     O_R   0.674540 0.387840 0.547110 -0.536424
C4    C     C_R   0.842412 0.360573 0.563395 0.709132
V2    V     V_3+5 0.564040 0.488000 0.497570 1.445505
O10   O     O_3   0.840990 0.564670 0.513070 -0.373231
C5    C     C_R   0.786677 0.107693 0.608130 -0.151962
H1    H     H_    0.769109 0.158797 0.515230 0.101303
H2    H     H_    0.791294 0.981511 0.690453 0.119002
H3    H     H_    0.757446 0.028838 0.581950 0.118347
C6    C     C_R   0.845483 0.281770 0.602031 -0.049411
C7    C     C_R   0.874540 0.318210 0.932107 -0.229018
C8    C     C_R   0.853022 0.395240 0.898083 -0.114969
C9    C     C_R   0.828807 0.372616 0.827001 0.253246
C10   C     C_R   0.842411 0.269528 0.787363 0.025206
C11   C     C_R   0.847869 0.190609 0.823619 0.041252
C12   C     C_R   0.841477 0.240462 0.713915 0.091576
C13   C     C_R   0.810876 0.136304 0.679614 0.145683
C14   C     C_R   0.807955 0.061370 0.716591 -0.216565
C15   C     C_R   0.832724 0.087616 0.787169 -0.191555
C16   C     C_R   0.878152 0.309739 0.672781 -0.162165
C17   C     C_R   0.796137 0.180974 0.569943 -0.178259
C18   C     C_R   0.864549 0.216237 0.896024 -0.072490
H4    H     H_    0.935481 0.385150 0.694195 0.157501
H5    H     H_    0.888855 0.338168 0.987462 0.114296
H6    H     H_    0.845439 0.473452 0.927962 0.154671
H7    H     H_    0.835063 0.026172 0.813157 0.113034
C19   C     C_3   0.680297 0.210319 0.231566 -0.111815
C20   C     C_3   0.795401 0.196330 0.294750 -0.183438
H8    H     H_    0.743780 0.153005 0.331854 0.106728
H9    H     H_    0.535860 0.176555 0.216002 0.106850
C21   C     C_3   0.848851 0.311160 0.312489 -0.010297
C22   C     C_3   0.734248 0.325806 0.249881 -0.169944
C23   C     C_3   0.917884 0.302709 0.204858 -0.155201
C24   C     C_3   0.028151 0.287364 0.267652 0.258251
C25   C     C_3   0.979587 0.172612 0.249862 -0.183608
C26   C     C_3   0.864299 0.188018 0.187597 -0.034330
H10   H     H_    0.633921 0.389186 0.250221 0.119431
H11   H     H_    0.971248 0.346215 0.168094 0.101793
H12   H     H_    0.083178 0.110659 0.249691 0.111784
C27   C     C_3   0.537268 0.722575 0.732005 -0.126319
C28   C     C_3   0.464277 0.834167 0.750254 -0.160186
H13   H     H_    0.549868 0.904068 0.750538 0.114873
H14   H     H_    0.686922 0.699081 0.717183 0.139295
C29   C     C_3   0.355380 0.812434 0.812322 -0.067963
C30   C     C_3   0.428592 0.701983 0.795004 -0.084863
C31   C     C_3   0.246863 0.667393 0.750028 -0.149595
C32   C     C_3   0.172766 0.778855 0.768470 -0.166279
C33   C     C_3   0.283888 0.798078 0.706564 0.232875
C34   C     C_3   0.355796 0.688471 0.687629 -0.030934
H15   H     H_    0.486242 0.663952 0.833682 0.165654
H16   H     H_    0.158781 0.598061 0.749730 0.155711
H17   H     H_    0.023153 0.803095 0.782762 0.121244
C35   C     C_R   0.402882 0.892234 0.392027 -0.160925
H18   H     H_    0.399502 0.842559 0.485662 0.121919
H19   H     H_    0.427134 0.017615 0.309184 0.115636
H20   H     H_    0.425226 0.971534 0.418630 0.111862
C36   C     C_R   0.359000 0.716729 0.397202 -0.038139
C37   C     C_R   0.326807 0.681690 0.067519 -0.160476
C38   C     C_R   0.311448 0.605360 0.102786 -0.118362
C39   C     C_R   0.322614 0.629272 0.174108 -0.164789
C40   C     C_R   0.349892 0.731494 0.212346 0.078337
C41   C     C_R   0.366450 0.809394 0.175733 0.070662
C42   C     C_R   0.361174 0.759008 0.285522 0.071043
C43   C     C_R   0.389819 0.863293 0.320188 0.146958
C44   C     C_R   0.405598 0.938014 0.283085 -0.213997
C45   C     C_R   0.393914 0.911722 0.212072 -0.200586
C46   C     C_R   0.345372 0.686707 0.325765 -0.217339
C47   C     C_R   0.388102 0.819230 0.430291 -0.175408
C48   C     C_R   0.354400 0.783286 0.103222 -0.078152
H21   H     H_    0.323535 0.606365 0.303503 0.108484
H22   H     H_    0.316900 0.661528 0.012052 0.112946
H23   H     H_    0.309253 0.565740 0.197484 0.111247
H24   H     H_    0.290225 0.526808 0.074615 0.121457
H25   H     H_    0.406881 0.972705 0.185856 0.114737
O11   O     O_R   0.203580 0.914920 0.912610 -0.539431
O12   O     O_R   0.535710 0.887810 0.047120 -0.539246
O13   O     O_R   0.710730 0.084950 0.087430 -0.542425
C49   C     C_R   0.366163 0.861043 0.063708 0.690363
O14   O     O_R   0.533010 0.902850 0.910600 -0.543243
O15   O     O_R   0.708010 0.100090 0.949930 -0.538770
C50   C     C_R   0.364036 0.881718 0.882983 0.699999
O16   O     O_R   0.206300 0.899780 0.050100 -0.538056
O17   O     O_3   0.375170 0.064580 0.013100 -0.372241
V3    V     V_3+5 0.648200 0.988020 0.997570 1.428107
O18   O     O_R   0.038030 0.112330 0.952840 -0.541750
C51   C     C_R   0.870321 0.138055 0.935423 0.698796
O19   O     O_R   0.040730 0.097300 0.089360 -0.545768
C52   C     C_R   0.872500 0.118435 0.116999 0.689484
V4    V     V_3+5 0.148780 0.012220 0.002360 1.422553
O20   O     O_3   0.871930 0.935430 0.986900 -0.367468
N1    N     N_3   0.218537 0.331044 0.287073 -0.670352
H26   H     H_    0.303806 0.313206 0.243121 0.210015
H27   H     H_    0.276560 0.293253 0.321891 0.228343
N2    N     N_3   0.206409 0.850832 0.657549 -0.688828
H28   H     H_    0.171372 0.924518 0.684822 0.233784
H29   H     H_    0.077164 0.814145 0.638783 0.221620
Br1   Br    Br    0.731266 0.484920 0.794244 -0.680561

loop_
_geom_bond_atom_site_label_1
_geom_bond_atom_site_label_2
_ccdc_geom_bond_type
C23   H11   S    
C29   C30   S    
H18   C47   S    
C1    O6    A    
C31   H16   S    
C24   C25   S    
C23   C24   S    
C7    H5    S    
C6    C16   A    
C33   N2    S    
C4    C6    S    
C13   C14   A    
O5    C3    A    
C19   C20   S    
V2    O10   S    
O19   C52   A    
C5    H3    S    
C26   C52   S    
C30   C31   S    
C27   C30   S    
C48   C49   S    
C3    C21   S    
C37   H22   S    
C2    C36   S    
O8    V2    S    
C41   C48   A    
O12   V3    S    
C8    C9    A    
C38   C39   A    
O1    V2    S    
C38   H24   S    
C22   H10   S    
C28   C29   S    
C36   C47   A    
O13   V3    S    
C45   H25   S    
C33   C34   S    
O9    C4    A    
C49   O16   A    
N1    H26   S    
C20   C21   S    
C39   H23   S    
C36   C46   A    
C6    C17   A    
C42   C43   A    
C12   C16   A    
C27   C28   S    
C35   H20   S    
O14   V3    S    
C9    C10   A    
C19   H9    S    
C40   C42   A    
C20   H8    S    
O4    C2    A    
C31   C34   S    
C10   C11   A    
O15   C51   A    
C15   H7    S    
C21   C24   S    
O2    C1    A    
C43   C44   A    
C14   C15   A    
C28   C33   S    
N2    H29   S    
C11   C18   A    
O14   C50   A    
O17   V4    S    
H19   C44   S    
O18   C51   A    
C1    C34   S    
C16   H4    S    
O17   V3    S    
C30   H15   S    
C44   C45   A    
N1    H27   S    
O16   V4    S    
C19   C26   S    
O3    C4    A    
C20   C25   S    
C9    Br1   S    
C29   C50   S    
C11   C15   A    
O6    V2    S    
O19   V4    S    
O12   C49   A    
C22   C23   S    
C35   C47   A    
H1    C17   S    
C21   C22   S    
O2    V1    S    
O11   V4    S    
C28   H13   S    
O7    V1    S    
C32   H17   S    
C7    C18   A    
C25   C26   S    
O1    C2    A    
C5    C13   A    
C40   C41   A    
O5    V1    S    
O8    C3    A    
C23   C26   S    
C10   C12   A    
N2    H28   S    
C25   H12   S    
C27   H14   S    
O9    V2    S    
C32   C33   S    
C19   C22   S    
O3    V1    S    
O11   C50   A    
C46   H21   S    
C31   C32   S    
O18   V4    S    
V4    O20   S    
C35   C43   A    
C18   C51   S    
O7    V2    S    
C37   C38   A    
O13   C52   A    
C24   N1    S    
O15   V3    S    
O4    V1    S    
C39   C40   A    
C8    H6    S    
C42   C46   A    
C29   C32   S    
C12   C13   A    
C5    C17   A    
C41   C45   A    
C7    C8    A    
C37   C48   A    
V1    O10   S    
C27   C34   S    
V3    O20   S    
H2    C14   S    
