data_str_m12_o4_o9_f0_bcu.sym.64
_audit_creation_date              2012-12-11T17:10:37-0500
_audit_creation_method            fapswitch 2.2
_symmetry_space_group_name_H-M    P1
_symmetry_Int_Tables_number       1
_space_group_crystal_system       triclinic
_cell_length_a                    14.819293
_cell_length_b                    14.938785
_cell_length_c                    14.966092
_cell_angle_alpha                 109.786302
_cell_angle_beta                  110.132298
_cell_angle_gamma                 109.054701
_cell_volume                      2532.57991743

loop_
_atom_site_label
_atom_site_type_symbol
_atom_type_description
_atom_site_fract_x
_atom_site_fract_y
_atom_site_fract_z
_atom_type_partial_charge
C1    C     C_R   0.185044 0.276998 0.254789 -0.140090
C2    C     C_R   0.399528 0.491194 0.193780 -0.141873
C3    C     C_R   0.564412 0.815392 0.591730 -0.128941
C4    C     C_R   0.546899 0.453038 0.768390 0.520781
C5    C     C_R   0.722142 0.477173 0.408781 -0.121215
C6    C     C_R   0.548366 0.824259 0.498287 0.060086
C7    C     C_R   0.826600 0.556646 0.501637 0.058896
C8    C     C_R   0.423168 0.423609 0.128032 0.094280
C9    C     C_R   0.806378 0.804915 0.868521 0.076071
C10   C     C_R   0.055443 0.529602 0.148400 -0.160974
C11   C     C_R   0.067444 0.578009 0.252762 -0.151052
C12   C     C_R   0.471589 0.468463 0.798447 -0.061590
C13   C     C_R   0.998864 0.515917 0.279474 0.036695
C14   C     C_R   0.913262 0.407460 0.197954 -0.304017
C15   C     C_R   0.899176 0.358792 0.092602 0.605239
C16   C     C_R   0.504571 0.200853 0.407908 -0.074719
C17   C     C_R   0.973506 0.419890 0.069366 -0.297683
C18   C     C_R   0.924125 0.566001 0.398338 -0.237160
C19   C     C_R   0.929567 0.606487 0.500075 0.047949
C20   C     C_R   0.035001 0.676285 0.597256 0.033890
C21   C     C_R   0.125825 0.671440 0.591902 -0.244601
C22   C     C_R   0.113069 0.604098 0.490944 0.055254
C23   C     C_R   0.563582 0.196617 0.498440 0.022461
C24   C     C_R   0.014799 0.564256 0.391706 0.075671
C25   C     C_R   0.002458 0.823886 0.696648 -0.140360
C26   C     C_R   0.024213 0.906924 0.793846 -0.095606
C27   C     C_R   0.097448 0.927098 0.896301 -0.090269
C28   C     C_R   0.289602 0.596425 0.588197 -0.124291
C29   C     C_R   0.147160 0.862648 0.901835 -0.125756
C30   C     C_R   0.125539 0.779270 0.804806 -0.174600
C31   C     C_R   0.053501 0.759580 0.701056 0.111521
C32   C     C_R   0.443832 0.344797 0.879482 0.159483
C33   C     C_R   0.423478 0.420841 0.853448 0.058395
C34   C     C_R   0.195540 0.567503 0.494307 0.064712
C35   C     C_R   0.352648 0.451116 0.882660 -0.192908
C36   C     C_R   0.332508 0.432808 0.961117 -0.218814
C37   C     C_R   0.384042 0.384975 0.011084 0.038352
C38   C     C_R   0.421774 0.324721 0.955311 0.163050
C39   C     C_3   0.515518 0.302761 0.993276 -0.616784
C40   C     C_R   0.593601 0.289273 0.590589 -0.134801
C41   C     C_3   0.540894 0.326983 0.912614 -0.379625
C42   C     C_R   0.540963 0.922400 0.393674 0.097532
C43   C     C_R   0.590140 0.924216 0.493368 0.074090
C44   C     C_R   0.664757 0.027292 0.591133 -0.211107
C45   C     C_R   0.475004 0.720154 0.407185 -0.141638
C46   C     C_R   0.667132 0.122099 0.591932 -0.182200
C47   C     C_R   0.594631 0.113350 0.495011 0.041031
C48   C     C_R   0.540950 0.015102 0.395648 -0.045442
C49   C     C_3   0.427411 0.949364 0.293563 0.446962
C50   C     C_3   0.427788 0.846834 0.290119 -0.669456
C51   C     C_R   0.965403 0.058057 0.147799 0.000318
C52   C     C_R   0.199082 0.502909 0.405828 -0.186571
C53   C     C_R   0.071277 0.068918 0.179734 -0.005345
C54   C     C_R   0.073396 0.969851 0.138641 -0.180409
C55   C     C_R   0.980071 0.875558 0.042116 -0.191730
C56   C     C_R   0.815937 0.567386 0.593160 -0.132757
C57   C     C_R   0.884495 0.880190 0.987674 0.053293
C58   C     C_R   0.874709 0.966301 0.050357 0.073267
C59   C     C_3   0.818799 0.027847 0.023694 -0.503678
C60   C     C_3   0.914263 0.128140 0.133960 0.439226
C61   C     C_R   0.444599 0.535332 0.760224 -0.225413
C62   C     C_R   0.277276 0.185587 0.252969 -0.127660
C63   C     C_R   0.173346 0.173686 0.229484 0.044648
C64   C     C_3   0.731595 0.510764 0.859466 0.222301
C65   C     C_3   0.818540 0.492936 0.928727 -0.970175
C66   C     C_3   0.750597 0.230741 0.915673 0.251586
C67   C     C_R   0.486626 0.396010 0.193022 -0.163962
C68   C     C_3   0.646968 0.117988 0.850117 -0.917708
C69   C     C_3   0.333463 0.967032 0.397049 0.317903
C70   C     C_3   0.212199 0.902475 0.362005 -0.951509
C71   C     C_3   0.964802 0.244520 0.312987 0.268765
C72   C     C_3   0.921431 0.273535 0.390819 -0.865952
C73   C     C_R   0.710107 0.800657 0.804743 -0.151284
C74   C     C_R   0.804429 0.712252 0.803145 -0.160928
H1    H     H_    0.123855 0.300512 0.250389 0.066020
H2    H     H_    0.111146 0.576567 0.129452 0.134763
H3    H     H_    0.133030 0.661877 0.314364 0.126273
H4    H     H_    0.858505 0.359431 0.217046 0.165518
H5    H     H_    0.847006 0.528254 0.322323 0.125657
H6    H     H_    0.205602 0.718433 0.667209 0.122036
H7    H     H_    0.947110 0.810870 0.617979 0.117181
H8    H     H_    0.985104 0.956389 0.789757 0.111083
H9    H     H_    0.115602 0.992731 0.971376 0.120486
H10   H     H_    0.203018 0.877775 0.981420 0.116295
H11   H     H_    0.164893 0.730232 0.810772 0.107570
H12   H     H_    0.880096 0.618173 0.678915 0.117600
H13   H     H_    0.322826 0.499670 0.855942 0.128045
H14   H     H_    0.484680 0.152451 0.324399 0.090920
H15   H     H_    0.291331 0.470942 0.993022 0.126667
H16   H     H_    0.585659 0.364726 0.079053 0.204411
H17   H     H_    0.486078 0.215509 0.971139 0.211228
H18   H     H_    0.622298 0.403546 0.959717 0.233230
H19   H     H_    0.528789 0.254697 0.844756 0.204712
H20   H     H_    0.711063 0.033561 0.668965 0.130495
H21   H     H_    0.716155 0.198409 0.670191 0.114522
H22   H     H_    0.431296 0.956715 0.223326 0.047878
H23   H     H_    0.499624 0.327241 0.164959 0.109244
H24   H     H_    0.361854 0.796926 0.300096 0.206118
H25   H     H_    0.322096 0.656827 0.672522 0.084737
H26   H     H_    0.149782 0.967841 0.168614 0.166426
H27   H     H_    0.989680 0.806310 0.004162 0.129605
H28   H     H_    0.818421 0.036258 0.952546 0.161380
H29   H     H_    0.737173 0.997748 0.019119 0.216071
H30   H     H_    0.653720 0.318803 0.674157 0.146596
H31   H     H_    0.148750 0.473138 0.319997 0.128230
H32   H     H_    0.389984 0.566300 0.769100 0.127820
H33   H     H_    0.300684 0.123429 0.244619 0.124466
H34   H     H_    0.674566 0.848407 0.833240 0.102296
H35   H     H_    0.448612 0.694925 0.321979 0.120716
H36   H     H_    0.745203 0.592641 0.913288 0.113765
H37   H     H_    0.745463 0.510795 0.791202 0.107755
H38   H     H_    0.811583 0.414992 0.876262 0.235947
H39   H     H_    0.902683 0.561498 0.963444 0.230932
H40   H     H_    0.808310 0.491066 0.998218 0.260765
H41   H     H_    0.793827 0.232827 0.868099 0.084824
H42   H     H_    0.723012 0.292395 0.924692 0.121748
H43   H     H_    0.601680 0.113047 0.895539 0.263452
H44   H     H_    0.591392 0.103720 0.768448 0.215025
H45   H     H_    0.859239 0.682186 0.830468 0.083265
H46   H     H_    0.669975 0.053026 0.836823 0.243268
H47   H     H_    0.366972 0.053500 0.459191 0.117186
H48   H     H_    0.379526 0.933956 0.438482 0.093768
H49   H     H_    0.172648 0.818172 0.291847 0.260070
H50   H     H_    0.205970 0.897390 0.432179 0.220550
H51   H     H_    0.167276 0.943833 0.335709 0.264587
H52   H     H_    0.432486 0.798014 0.218682 0.176234
H53   H     H_    0.956783 0.195500 0.122004 0.053523
H54   H     H_    0.003239 0.317940 0.307376 0.089566
H55   H     H_    0.028573 0.223474 0.348745 0.098335
H56   H     H_    0.337937 0.514405 0.166276 0.087226
H57   H     H_    0.883619 0.202437 0.400460 0.255888
H58   H     H_    0.990937 0.344863 0.473095 0.211522
H59   H     H_    0.857990 0.295691 0.357589 0.251135
H60   H     H_    0.617462 0.880357 0.677157 0.093888
H61   H     H_    0.697695 0.445999 0.322968 0.094912
H62   H     H_    0.968704 0.383017 0.990801 0.123078
N1    N     N_R   0.291070 0.347930 0.293870 -0.034209
N2    N     N_R   0.497240 0.291100 0.443210 -0.049070
N3    N     N_R   0.347890 0.554050 0.556810 -0.034045
N4    N     N_R   0.554050 0.347900 0.556830 -0.049387
N5    N     N_R   0.291070 0.497250 0.443190 -0.037872
N6    N     N_R   0.497240 0.554030 0.706140 -0.062727
N7    N     N_R   0.347890 0.291110 0.293870 -0.042577
N8    N     N_R   0.445950 0.652100 0.443170 -0.039093
N9    N     N_R   0.708930 0.502750 0.556810 -0.045750
N10   N     N_R   0.502760 0.445970 0.293860 -0.039116
N11   N     N_R   0.652110 0.708890 0.706130 -0.034897
N12   N     N_R   0.708930 0.652070 0.706130 -0.045449
N13   N     N_R   0.445950 0.502780 0.293850 -0.038262
N14   N     N_R   0.502760 0.708900 0.556790 -0.036675
N15   N     N_R   0.652110 0.445950 0.443190 -0.041339
N16   N     N_R   0.554050 0.497220 0.706150 -0.107891
Ni1   Ni    Ni4+2 0.369690 0.500010 0.369700 0.213217
Ni2   Ni    Ni4+2 0.630310 0.499990 0.630300 0.200519
Ni3   Ni    Ni4+2 0.500000 0.369720 0.369720 0.204850
Ni4   Ni    Ni4+2 0.500000 0.630280 0.630280 0.204161
O1    O     O_3   0.623250 0.425488 0.815939 -0.676933
O2    O     O_3   0.819989 0.248327 0.019571 -0.638558
O3    O     O_3   0.339635 0.963355 0.303324 -0.642376
O4    O     O_3   0.875795 0.155395 0.208206 -0.596091

loop_
_geom_bond_atom_site_label_1
_geom_bond_atom_site_label_2
_ccdc_geom_bond_type
N2    Ni3   S    
C25   C31   A    
C66   C68   S    
C6    C45   A    
C27   C29   A    
N3    N5    A    
C65   H40   S    
N11   N12   A    
C62   N7    A    
C3    C6    A    
C9    C73   A    
C72   H59   S    
C39   C41   S    
C53   C54   A    
C74   H45   S    
C26   C27   A    
C37   C38   A    
C66   H42   S    
C73   N11   A    
C18   C24   A    
N3    Ni4   S    
C74   N12   A    
C36   C37   A    
C30   C31   A    
C33   C35   A    
C45   H35   S    
C40   H30   S    
C10   C17   A    
C35   H13   S    
C23   C40   A    
C56   N9    A    
C5    H61   S    
C18   C19   A    
N6    N16   A    
N8    Ni1   S    
N13   Ni1   S    
C53   C63   S    
N8    N14   A    
C34   C52   A    
C11   H3    S    
C68   H44   S    
C46   C47   A    
C64   H36   S    
C70   H49   S    
C41   H19   S    
N10   Ni3   S    
C35   C36   A    
C18   H5    S    
C64   O1    S    
C45   N8    A    
C32   C41   S    
C50   H52   S    
C32   C38   A    
C4    C12   A    
C29   C30   A    
C42   C43   A    
C39   H16   S    
C2    N13   A    
N1    N7    A    
C28   C34   A    
C59   C60   S    
C26   H8    S    
N14   Ni4   S    
C13   C14   A    
C25   H7    S    
C54   H26   S    
C28   N3    A    
N12   Ni2   S    
C7    C56   A    
C17   H62   S    
C22   C34   S    
C1    C63   A    
C39   H17   S    
C44   C46   A    
C72   H58   S    
C4    N16   A    
C16   N2    A    
C50   H24   S    
C23   C47   S    
C66   H41   S    
C46   H21   S    
C1    H1    S    
C29   H10   S    
C5    C7    A    
C2    H56   S    
C64   H37   S    
C62   H33   S    
C58   C59   S    
C4    O1    S    
C13   C24   S    
C51   C53   A    
C43   C44   A    
C65   H38   S    
C62   C63   A    
C71   O4    S    
C68   H43   S    
C71   H55   S    
N10   N13   A    
C56   H12   S    
C47   C48   A    
C69   H47   S    
C67   N10   A    
N1    Ni1   S    
C51   C58   A    
C42   C48   A    
C30   H11   S    
N11   Ni4   S    
N9    N15   A    
N2    N4    A    
C15   O2    S    
N9    Ni2   S    
C28   H25   S    
C48   C49   S    
C42   C50   S    
C52   H31   S    
C16   C23   A    
N15   Ni3   S    
C6    C43   S    
C55   C57   A    
C36   H15   S    
C22   C24   A    
C71   H54   S    
C8    C37   S    
C61   H32   S    
C66   O2    S    
C1    N1    A    
C70   H51   S    
C72   H57   S    
C15   C17   A    
C54   C55   A    
C3    N14   A    
C59   H28   S    
C10   H2    S    
C65   H39   S    
C60   H53   S    
C2    C8    A    
C60   O4    S    
N16   Ni2   S    
C73   H34   S    
C55   H27   S    
C7    C19   S    
C52   N5    A    
C5    N15   A    
N7    Ni3   S    
C3    H60   S    
C59   H29   S    
C64   C65   S    
C19   C20   A    
C27   H9    S    
C25   C26   A    
C71   C72   S    
C32   C33   A    
C12   C61   A    
C11   C13   A    
N5    Ni1   S    
C57   C58   A    
C38   C39   S    
C69   H48   S    
C40   N4    A    
C21   H6    S    
C69   O3    S    
C9    C57   S    
C14   H4    S    
C49   H22   S    
C69   C70   S    
C44   H20   S    
C10   C11   A    
C67   H23   S    
C70   H50   S    
C61   N6    A    
C41   H18   S    
C20   C21   A    
C8    C67   A    
C49   C50   S    
C9    C74   A    
C16   H14   S    
C14   C15   A    
C49   O3    S    
C51   C60   S    
N6    Ni4   S    
C12   C33   S    
C21   C22   A    
C68   H46   S    
N4    Ni2   S    
C20   C31   S    
