data_str_m9_o2_o20_f0_sra.sym.52
_audit_creation_date              2012-12-11T16:29:31-0500
_audit_creation_method            fapswitch 2.2
_symmetry_space_group_name_H-M    P1
_symmetry_Int_Tables_number       1
_space_group_crystal_system       triclinic
_cell_length_a                    6.95411
_cell_length_b                    17.287728
_cell_length_c                    18.794315
_cell_angle_alpha                 106.268874
_cell_angle_beta                  89.746248
_cell_angle_gamma                 90.389711
_cell_volume                      2168.93478286

loop_
_atom_site_label
_atom_site_type_symbol
_atom_type_description
_atom_site_fract_x
_atom_site_fract_y
_atom_site_fract_z
_atom_type_partial_charge
O1    O     O_R   0.494360 0.415680 0.413760 -0.532807
O2    O     O_R   0.818810 0.432910 0.557230 -0.524620
O3    O     O_R   0.994290 0.584320 0.586240 -0.533645
C1    C     C_R   0.649949 0.415896 0.580568 0.714726
O4    O     O_R   0.823740 0.406440 0.412520 -0.534770
O5    O     O_R   0.999250 0.557660 0.440500 -0.524132
C2    C     C_R   0.654849 0.383652 0.384965 0.694457
O6    O     O_R   0.489400 0.442340 0.559500 -0.524103
O7    O     O_3   0.662500 0.549650 0.509350 -0.361027
V1    V     V_3+5 0.935340 0.490790 0.498270 1.431030
O8    O     O_R   0.329270 0.567090 0.442770 -0.527133
C3    C     C_R   0.161076 0.584080 0.419431 0.711382
O9    O     O_R   0.324340 0.593560 0.587480 -0.536215
C4    C     C_R   0.155249 0.616760 0.614661 0.694122
V2    V     V_3+5 0.435970 0.509210 0.501730 1.420298
O10   O     O_3   0.158940 0.450350 0.490650 -0.356399
H1    H     H_    0.935899 0.856711 0.553373 0.129986
C5    C     C_R   0.260250 0.595830 0.754904 -0.148867
C6    C     C_R   0.309001 0.581233 0.821269 -0.169354
C7    C     C_R   0.292949 0.641838 0.886923 -0.177569
C8    C     C_R   0.228662 0.719081 0.887611 0.340250
C9    C     C_R   0.182415 0.736551 0.819399 0.019759
C10   C     C_R   0.196935 0.672641 0.752259 0.023868
C11   C     C_R   0.121276 0.814744 0.816257 -0.204313
C12   C     C_R   0.074311 0.827941 0.746319 0.016930
C13   C     C_R   0.082621 0.761817 0.680593 0.026144
C14   C     C_R   0.145215 0.685031 0.683594 -0.144649
C15   C     C_R   0.021396 0.905606 0.739085 0.330608
C16   C     C_R   0.970245 0.914035 0.669294 -0.184368
C17   C     C_R   0.974537 0.848869 0.606665 -0.165770
C18   C     C_R   0.031660 0.774001 0.611774 -0.139269
H2    H     H_    0.272492 0.545548 0.705637 0.115642
H3    H     H_    0.357645 0.522040 0.821869 0.135803
H4    H     H_    0.329425 0.628166 0.938038 0.109816
H5    H     H_    0.928530 0.972081 0.663187 0.112222
H6    H     H_    0.036315 0.725827 0.560646 0.106183
C19   C     C_1   0.111524 0.865188 0.133737 -0.215790
C20   C     C_1   0.118935 0.822540 0.177243 -0.012503
C21   C     C_1   0.128271 0.772097 0.228935 -0.006171
C22   C     C_1   0.136268 0.729566 0.272539 -0.007147
C23   C     C_1   0.145633 0.679062 0.324179 -0.004849
C24   C     C_1   0.153117 0.636268 0.367561 -0.217951
C25   C     C_1   0.641589 0.363858 0.632516 -0.199803
C26   C     C_1   0.637426 0.321188 0.676028 0.008001
C27   C     C_1   0.633994 0.270862 0.727835 -0.009470
C28   C     C_1   0.631400 0.228427 0.771556 -0.006089
C29   C     C_1   0.627876 0.178058 0.823318 -0.006792
C30   C     C_1   0.623592 0.135358 0.866796 -0.207178
C31   C     C_R   0.543486 0.410864 0.247248 -0.227574
C32   C     C_R   0.489944 0.428078 0.182544 -0.240600
C33   C     C_R   0.483763 0.367652 0.115885 0.384340
C34   C     C_R   0.525317 0.286977 0.114034 0.257313
C35   C     C_R   0.577120 0.267564 0.180830 -0.009225
C36   C     C_R   0.587571 0.331504 0.248219 0.019625
C37   C     C_R   0.621217 0.187096 0.182424 -0.141590
C38   C     C_R   0.677243 0.172392 0.250215 0.048513
C39   C     C_R   0.689111 0.236817 0.316402 0.003673
C40   C     C_R   0.644130 0.316208 0.315470 -0.121427
C41   C     C_R   0.720494 0.093564 0.253646 -0.211282
C42   C     C_R   0.774252 0.078751 0.319906 -0.229193
C43   C     C_R   0.781997 0.141879 0.385847 0.474994
C44   C     C_R   0.742667 0.220061 0.383155 -0.185723
H7    H     H_    0.550201 0.461253 0.296630 0.139313
H8    H     H_    0.454817 0.489443 0.183964 0.149858
H9    H     H_    0.713656 0.042045 0.205231 0.116934
H10   H     H_    0.810877 0.017810 0.319095 0.113282
H11   H     H_    0.752236 0.267398 0.434775 0.121212
O11   O     O_R   0.775690 0.057750 0.940570 -0.512944
O12   O     O_R   0.441200 0.093570 0.087490 -0.524140
O13   O     O_R   0.265840 0.942320 0.059480 -0.523549
C45   C     C_R   0.610223 0.117492 0.114425 0.788900
O14   O     O_R   0.446270 0.067110 0.942790 -0.515518
O15   O     O_R   0.270950 0.915660 0.913750 -0.524969
C46   C     C_R   0.615086 0.083403 0.918819 0.786307
O16   O     O_R   0.770580 0.084400 0.086300 -0.545239
O17   O     O_3   0.602640 0.950400 0.990690 -0.370589
V3    V     V_3+5 0.329740 0.009200 0.001730 1.505745
O18   O     O_R   0.940900 0.906360 0.912450 -0.527650
C47   C     C_R   0.110214 0.882884 0.885276 0.923019
O19   O     O_R   0.935830 0.932820 0.057160 -0.533987
C48   C     C_R   0.103780 0.916974 0.081487 0.754842
V4    V     V_3+5 0.829130 0.990680 0.998180 1.480446
O20   O     O_3   0.106100 0.049590 0.009310 -0.359224
O21   O     O_3   0.426265 0.387014 0.052656 -0.559760
C49   C     C_3   0.587710 0.415401 0.021431 0.080630
H12   H     H_    0.705747 0.370184 0.009749 0.131287
H13   H     H_    0.641777 0.473142 0.059137 0.127393
C50   C     C_3   0.529656 0.430468 0.948509 -0.698763
H14   H     H_    0.413892 0.476235 0.958224 0.219622
H15   H     H_    0.655484 0.452868 0.923360 0.180072
H16   H     H_    0.476968 0.373608 0.909369 0.226241
O22   O     O_3   0.520421 0.227431 0.047440 -0.661959
H17   H     H_    0.471866 0.248795 0.007329 0.311426
O23   O     O_3   0.207764 0.776650 0.954756 -0.669738
H18   H     H_    0.248312 0.754454 0.995576 0.273119
O24   O     O_3   0.024343 0.973258 0.799425 -0.663059
H19   H     H_    0.983941 0.021207 0.784241 0.277352
O25   O     O_3   0.840878 0.131540 0.453191 -0.554128
C51   C     C_3   0.755880 0.062509 0.466804 0.090801
H20   H     H_    0.837333 0.007711 0.437312 0.120904
H21   H     H_    0.601824 0.055369 0.449720 0.118070
C52   C     C_3   0.764622 0.070551 0.549457 -0.695395
H22   H     H_    0.683593 0.124607 0.580811 0.229614
H23   H     H_    0.699921 0.016318 0.560869 0.170372
H24   H     H_    0.916452 0.076425 0.568432 0.223533

loop_
_geom_bond_atom_site_label_1
_geom_bond_atom_site_label_2
_ccdc_geom_bond_type
C37   C38   A    
C31   H7    S    
C32   H8    S    
C23   C24   T    
O12   V3    S    
C43   O25   S    
C1    O6    A    
C39   C44   A    
C35   C36   A    
C34   C35   A    
C12   C15   A    
C13   C14   A    
C16   C17   A    
C44   H11   S    
C15   C16   A    
O5    C3    A    
C17   C18   A    
C8    O23   S    
V3    O20   S    
O11   C46   A    
C31   C36   A    
O25   C51   S    
C38   C39   A    
C52   H24   S    
C5    C6    A    
O12   C45   A    
O13   C48   A    
C3    C24   S    
O14   V3    S    
O8    V2    S    
O21   C49   S    
C29   C30   T    
O1    V2    S    
C10   C14   A    
C4    C14   S    
O7    V1    S    
C2    C40   S    
C43   C44   A    
C7    H4    S    
C49   H13   S    
C42   H10   S    
C13   C18   A    
O9    C4    A    
O13   V3    S    
H1    C17   S    
C19   C48   S    
C52   H22   S    
C35   C37   A    
C5    C10   A    
C30   C46   S    
C11   C12   A    
O14   C46   A    
C6    H3    S    
O17   V4    S    
C21   C22   T    
O4    C2    A    
O18   C47   A    
C12   C13   A    
C49   H12   S    
C33   C34   A    
C42   C43   A    
O2    C1    A    
C25   C26   T    
C19   C20   T    
O18   V4    S    
C11   C47   S    
C51   H20   S    
C50   H16   S    
O24   H19   S    
C7    C8    A    
C32   C33   A    
O15   C47   A    
O17   V3    S    
C52   H23   S    
O3    C4    A    
O19   V4    S    
C22   C23   S    
C51   H21   S    
C50   H15   S    
C31   C32   A    
O6    V2    S    
O9    V2    S    
C9    C11   A    
C34   O22   S    
C5    H2    S    
O2    V1    S    
C26   C27   S    
C36   C40   A    
C49   C50   S    
C28   C29   S    
O1    C2    A    
C9    C10   A    
O19   C48   A    
O5    V1    S    
O8    C3    A    
O16   V4    S    
C1    C25   S    
C16   H5    S    
C38   C41   A    
C15   O24   S    
O11   V4    S    
C6    C7    A    
O7    V2    S    
O4    V1    S    
O3    V1    S    
V1    O10   S    
C41   H9    S    
C45   O16   A    
C39   C40   A    
C20   C21   S    
O22   H17   S    
O23   H18   S    
C27   C28   T    
C41   C42   A    
C51   C52   S    
C50   H14   S    
V4    O20   S    
O15   V3    S    
C18   H6    S    
C8    C9    A    
C33   O21   S    
C37   C45   S    
V2    O10   S    
