data_str_m2_o14_o22_f0_pcu.sym.175
_audit_creation_date              2012-12-10T17:21:41-0500
_audit_creation_method            fapswitch 2.2
_symmetry_space_group_name_H-M    P1
_symmetry_Int_Tables_number       1
_space_group_crystal_system       triclinic
_cell_length_a                    10.725718
_cell_length_b                    10.759984
_cell_length_c                    9.633338
_cell_angle_alpha                 91.036958
_cell_angle_beta                  89.355223
_cell_angle_gamma                 92.489574
_cell_volume                      1110.4773817

loop_
_atom_site_label
_atom_site_type_symbol
_atom_type_description
_atom_site_fract_x
_atom_site_fract_y
_atom_site_fract_z
_atom_type_partial_charge
C1    C     C_R   0.495115 0.262729 0.499178 0.780549
C2    C     C_3   0.877652 0.493635 0.498662 0.163952
C3    C     C_3   0.933393 0.626899 0.525674 -0.396368
C4    C     C_3   0.927619 0.444838 0.356947 -0.376946
C5    C     C_R   0.300570 0.124191 0.654599 -0.194392
C6    C     C_R   0.211588 0.057099 0.732703 -0.145951
C7    C     C_R   0.213858 0.928148 0.736789 -0.138396
C8    C     C_R   0.304864 0.865621 0.662397 -0.205460
C9    C     C_R   0.396675 0.931696 0.583072 0.099062
C10   C     C_R   0.394924 0.062876 0.579792 0.107602
C11   C     C_R   0.485400 0.128541 0.498023 -0.102369
C12   C     C_R   0.259935 0.495983 0.500331 0.729871
C13   C     C_R   0.571094 0.065684 0.416121 -0.203621
C14   C     C_R   0.572175 0.937679 0.418391 -0.209550
C15   C     C_R   0.487830 0.870659 0.502878 -0.101168
C16   C     C_R   0.690658 0.632749 0.144826 -0.142179
C17   C     C_R   0.803052 0.659317 0.076394 -0.280403
C18   C     C_R   0.808395 0.647432 0.933230 -0.218054
C19   C     C_R   0.694866 0.637987 0.862611 0.232217
C20   C     C_R   0.593550 0.567983 0.926542 0.176500
C21   C     C_R   0.592883 0.566595 0.075523 0.186748
C22   C     C_R   0.411400 0.435948 0.073451 -0.062148
C23   C     C_R   0.495520 0.736973 0.501027 0.776202
C24   C     C_R   0.411471 0.435879 0.925818 -0.067712
C25   C     C_R   0.739677 0.496372 0.499337 0.742127
C26   C     C_3   0.066139 0.402441 0.610206 -0.402320
C27   C     C_3   0.922552 0.406810 0.613536 -0.359001
C28   C     C_3   0.076689 0.625587 0.533637 -0.374321
C29   C     C_3   0.070885 0.450295 0.355632 -0.374061
C30   C     C_3   0.121583 0.493449 0.500188 0.174692
Cu1   Cu    Cu3+1 0.499990 0.499990 0.640660 0.925836
Cu2   Cu    Cu3+1 0.500010 0.500010 0.359340 0.926591
H1    H     H_    0.102885 0.427185 0.715176 0.168571
H2    H     H_    0.895026 0.501626 0.270650 0.186866
H3    H     H_    0.119331 0.693833 0.459606 0.157189
H4    H     H_    0.906383 0.689140 0.441001 0.146950
H5    H     H_    0.639674 0.116270 0.352880 0.147267
H6    H     H_    0.292758 0.223813 0.651564 0.133073
H7    H     H_    0.139841 0.105345 0.789122 0.125423
H8    H     H_    0.143927 0.876148 0.796528 0.124869
H9    H     H_    0.300785 0.765460 0.666378 0.153206
H10   H     H_    0.641067 0.890630 0.355953 0.137301
H11   H     H_    0.338839 0.382929 0.127977 0.131411
H12   H     H_    0.093342 0.306060 0.584559 0.151230
H13   H     H_    0.683915 0.665399 0.249811 0.190485
H14   H     H_    0.882599 0.698637 0.132789 0.151070
H15   H     H_    0.891708 0.684806 0.881432 0.143179
H16   H     H_    0.339028 0.382829 0.870804 0.128689
H17   H     H_    0.880441 0.311213 0.598332 0.150421
H18   H     H_    0.892200 0.441111 0.717719 0.182275
H19   H     H_    0.106172 0.654836 0.640047 0.156872
H20   H     H_    0.896067 0.665573 0.624595 0.158826
H21   H     H_    0.104975 0.516072 0.274232 0.176190
H22   H     H_    0.105083 0.356843 0.327344 0.154405
H23   H     H_    0.892014 0.347366 0.337838 0.160270
N1    N     N_R   0.501200 0.501210 0.147910 -0.191709
N2    N     N_R   0.501250 0.501290 0.852040 -0.194301
O1    O     O_R   0.499990 0.319640 0.618810 -0.575728
O2    O     O_R   0.500000 0.319660 0.381240 -0.572290
O3    O     O_R   0.317680 0.499970 0.618790 -0.599676
O4    O     O_R   0.317700 0.499990 0.381210 -0.586435
O5    O     O_R   0.500000 0.680340 0.618760 -0.583874
O6    O     O_R   0.500010 0.680360 0.381190 -0.586408
O7    O     O_R   0.682300 0.500010 0.618790 -0.576752
O8    O     O_R   0.682320 0.500030 0.381210 -0.601874
C31   C     C_3   0.672228 0.759909 0.793982 -0.775853
H24   H     H_    0.699668 0.755326 0.682861 0.220987
H25   H     H_    0.575031 0.788136 0.812648 0.242529
H26   H     H_    0.730090 0.838670 0.839342 0.197817

loop_
_geom_bond_atom_site_label_1
_geom_bond_atom_site_label_2
_ccdc_geom_bond_type
Cu1   O3    S    
C16   H13   S    
C21   N1    A    
C31   H25   S    
C3    H20   S    
C16   C21   A    
C29   C30   S    
C2    C25   S    
C4    H2    S    
C9    C10   A    
C26   H1    S    
C2    C4    S    
C4    C29   S    
C1    C11   S    
C27   H18   S    
C14   H10   S    
C18   H15   S    
Cu1   N2    S    
C19   C20   A    
C15   C23   S    
C17   C18   A    
C9    C15   A    
C26   H12   S    
C5    C10   A    
Cu1   Cu2   S    
C1    O1    A    
C8    H9    S    
C12   O4    A    
C11   C13   A    
Cu1   O5    S    
C26   C27   S    
C2    C27   S    
C29   H21   S    
C3    H4    S    
Cu1   O1    S    
C28   C30   S    
C3    C28   S    
Cu2   O4    S    
C26   C30   S    
C6    C7    A    
C2    C3    S    
C1    O2    A    
C4    H23   S    
C5    C6    A    
C28   H19   S    
C22   C24   A    
C23   O6    A    
C31   H26   S    
C16   C17   A    
C10   C11   A    
Cu2   O8    S    
C12   O3    A    
C7    C8    A    
C5    H6    S    
C17   H14   S    
Cu2   O6    S    
C19   C31   S    
C18   C19   A    
C29   H22   S    
C31   H24   S    
C20   N2    A    
C25   O8    A    
C6    H7    S    
C24   N2    A    
C22   N1    A    
C14   C15   A    
C23   O5    A    
Cu2   O2    S    
C12   C30   S    
C20   C21   A    
C13   C14   A    
C7    H8    S    
C13   H5    S    
Cu1   O7    S    
Cu2   N1    S    
C22   H11   S    
C27   H17   S    
C28   H3    S    
C8    C9    A    
C25   O7    A    
C24   H16   S    
