data_str_m12_o4_o22_f0_bcu.sym.220
_audit_creation_date              2013-03-05T15:54:20-0500
_audit_creation_method            fapswitch 2.2
_symmetry_space_group_name_H-M    P1
_symmetry_Int_Tables_number       1
_space_group_crystal_system       triclinic
_cell_length_a                    14.979194
_cell_length_b                    14.842512
_cell_length_c                    15.088629
_cell_angle_alpha                 110.31234
_cell_angle_beta                  109.151788
_cell_angle_gamma                 109.227757
_cell_volume                      2573.24784602

loop_
_atom_site_label
_atom_site_type_symbol
_atom_site_description
_atom_site_fract_x
_atom_site_fract_y
_atom_site_fract_z
_atom_type_partial_charge
C1    C     C_R   0.929574 0.744794 0.024296 -0.121893
H1    H     H_    0.871606 0.747525 0.050713 0.108625
N1    N     N_R   0.995640 0.706130 0.053910 -0.040701
C2    C     C_R   0.797060 0.193763 0.704349 -0.161129
H2    H     H_    0.836780 0.165482 0.662140 0.136239
N2    N     N_R   0.848310 0.293860 0.791110 -0.043759
C3    C     C_R   0.088403 0.590793 0.788975 0.237311
N3    N     N_R   0.054010 0.556790 0.847890 -0.059157
C4    C     C_R   0.698654 0.406749 0.000346 -0.124895
H3    H     H_    0.643888 0.320363 0.968206 0.108922
N4    N     N_R   0.789940 0.443190 0.997130 -0.042092
C5    C     C_R   0.990841 0.406354 0.694122 -0.202116
H4    H     H_    0.951888 0.319707 0.633408 0.148853
N5    N     N_R   0.997630 0.443170 0.791110 -0.056008
C6    C     C_R   0.788714 0.591183 0.093044 -0.164788
H5    H     H_    0.817014 0.676667 0.148597 0.106892
N6    N     N_R   0.846320 0.556810 0.053910 -0.038044
C7    C     C_R   0.700551 0.194287 0.789109 -0.071076
H6    H     H_    0.644843 0.168128 0.817386 0.141826
N7    N     N_R   0.791080 0.293860 0.847890 -0.054566
C8    C     C_R   0.022681 0.748867 0.935269 -0.087321
H7    H     H_    0.051689 0.759867 0.881583 0.119399
N8    N     N_R   0.052880 0.706130 0.997130 -0.040266
C9    C     C_R   0.944883 0.773138 0.950241 0.058803
C10   C     C_R   0.703966 0.128483 0.699761 0.091299
C11   C     C_R   0.044119 0.497864 0.688156 0.068282
C12   C     C_R   0.695699 0.498328 0.060779 0.043123
C13   C     C_R   0.995551 0.594562 0.297742 -0.164656
H8    H     H_    0.019451 0.680026 0.348369 0.143265
N9    N     N_R   0.002370 0.556830 0.208890 -0.041483
C14   C     C_R   0.220428 0.405614 0.974833 -0.135345
H9    H     H_    0.197030 0.319095 0.937062 0.107529
N10   N     N_R   0.153680 0.443190 0.946090 -0.039948
C15   C     C_R   0.309574 0.792593 0.219662 0.276296
N11   N     N_R   0.208920 0.706140 0.152110 -0.087534
C16   C     C_R   0.906194 0.196855 0.996968 -0.115626
H10   H     H_    0.843194 0.170089 0.017047 0.123955
N12   N     N_R   0.947120 0.293870 0.002870 -0.046903
C17   C     C_R   0.996512 0.193747 0.905582 -0.133540
H11   H     H_    0.018120 0.162879 0.844382 0.108990
N13   N     N_R   0.004360 0.293870 0.946090 -0.043168
C18   C     C_R   0.221828 0.780175 0.313969 -0.175510
H12   H     H_    0.200415 0.793103 0.376821 0.171560
N14   N     N_R   0.151690 0.706140 0.208890 -0.065455
C19   C     C_R   0.911440 0.410581 0.212605 -0.123418
H13   H     H_    0.862097 0.325089 0.187739 0.118032
N15   N     N_R   0.945990 0.443210 0.152110 -0.044077
C20   C     C_R   0.313303 0.590276 0.069193 -0.122943
H14   H     H_    0.378794 0.674791 0.119674 0.138651
N16   N     N_R   0.210060 0.556810 0.002870 -0.033276
Ni1   Ni    Ni4+2 0.999010 0.630300 0.130220 0.229959
Ni2   Ni    Ni4+2 0.000990 0.369700 0.869780 0.222130
Ni3   Ni    Ni4+2 0.130280 0.630280 0.000000 0.274526
Ni4   Ni    Ni4+2 0.869720 0.369720 0.000000 0.217026
C21   C     C_R   0.942224 0.505702 0.304972 0.070515
C22   C     C_R   0.322968 0.496802 0.052374 0.000399
C23   C     C_R   0.323844 0.831632 0.324436 0.032485
C24   C     C_R   0.934841 0.131178 0.935953 0.079611
C25   C     C_3   0.539468 0.517663 0.971947 0.125657
H15   H     H_    0.592591 0.605005 0.996535 0.134322
C26   C     C_3   0.432121 0.506264 0.965822 -0.486472
H16   H     H_    0.428063 0.580151 0.966639 0.175834
H17   H     H_    0.360834 0.432457 0.887239 0.189284
H18   H     H_    0.492389 0.313903 0.965870 0.154781
H19   H     H_    0.347426 0.313627 0.969766 0.126868
C27   C     C_3   0.520478 0.384302 0.046124 -0.418460
C28   C     C_3   0.629114 0.589706 0.175452 -0.430646
C29   C     C_3   0.598091 0.496681 0.063192 0.261391
H20   H     H_    0.665385 0.573063 0.240972 0.192613
H21   H     H_    0.690645 0.672339 0.197692 0.182888
C30   C     C_3   0.423628 0.495619 0.062171 0.273803
C31   C     C_3   0.418810 0.384477 0.049577 0.133762
C32   C     C_3   0.526988 0.595292 0.171048 -0.363145
H22   H     H_    0.537004 0.675115 0.176973 0.170906
H23   H     H_    0.520415 0.596306 0.242583 0.187019
H24   H     H_    0.565688 0.369219 0.109274 0.178531
C33   C     C_R   0.624337 0.968241 0.516034 0.064542
C34   C     C_R   0.626779 0.011374 0.616216 -0.113072
C35   C     C_R   0.532311 0.952115 0.618069 0.343396
C36   C     C_R   0.431567 0.888823 0.520252 -0.284175
H25   H     H_    0.357793 0.850204 0.521814 0.204753
C37   C     C_R   0.427647 0.879756 0.422665 0.013954
C38   C     C_R   0.525346 0.905481 0.420601 0.061922
C39   C     C_3   0.570173 0.947863 0.359549 -0.512907
C40   C     C_3   0.679112 0.017415 0.463388 0.156794
H26   H     H_    0.565592 0.881923 0.291115 0.222648
H27   H     H_    0.542134 0.002483 0.340288 0.231431
H28   H     H_    0.709270 0.107415 0.494707 0.072085
C41   C     C_R   0.030110 0.608559 0.502678 -0.014226
C42   C     C_R   0.940489 0.516743 0.402936 -0.009539
C43   C     C_R   0.871444 0.425606 0.403186 0.286510
C44   C     C_R   0.909886 0.416562 0.495760 -0.227550
H29   H     H_    0.857109 0.346202 0.495810 0.154194
C45   C     C_R   0.014670 0.498012 0.587086 0.025442
C46   C     C_R   0.070363 0.595405 0.589931 0.089986
C47   C     C_3   0.187601 0.664305 0.622938 -0.042856
C48   C     C_3   0.143366 0.689836 0.534571 0.117267
H30   H     H_    0.240362 0.740582 0.704352 0.209624
H31   H     H_    0.169962 0.668487 0.473245 0.088932
C49   C     C_R   0.840472 0.873401 0.947447 0.140728
C50   C     C_R   0.895166 0.827758 0.904293 0.015090
C51   C     C_R   0.920393 0.856112 0.832157 -0.172394
H32   H     H_    0.954103 0.816612 0.788940 0.151662
C52   C     C_R   0.920283 0.949734 0.830187 -0.162831
H33   H     H_    0.954064 0.978824 0.785837 0.155396
C53   C     C_R   0.893205 0.013251 0.898985 0.031745
C54   C     C_R   0.839122 0.964738 0.944335 0.254192
C55   C     C_3   0.847926 0.013585 0.053982 -0.504395
C56   C     C_3   0.850286 0.914413 0.057964 -0.503010
H34   H     H_    0.926004 0.092325 0.117196 0.197457
H35   H     H_    0.772986 0.015696 0.049023 0.221895
H36   H     H_    0.930089 0.938142 0.123551 0.213982
H37   H     H_    0.777126 0.859854 0.056081 0.203782
N17   N     N_R   0.355044 0.865416 0.184969 0.219096
O1    O     O_R   0.357270 0.960034 0.218182 -0.397371
O2    O     O_R   0.375717 0.830540 0.106457 -0.452265
C57   C     C_3   0.519170 0.444109 0.857638 -0.963877
H38   H     H_    0.472559 0.354639 0.828971 0.262018
H39   H     H_    0.471865 0.461155 0.797941 0.259151
H40   H     H_    0.597329 0.463291 0.857715 0.257582
C58   C     C_3   0.405851 0.361533 0.137979 -0.962912
H41   H     H_    0.334116 0.364725 0.141717 0.251760
H42   H     H_    0.392770 0.277217 0.118145 0.267678
H43   H     H_    0.479791 0.422196 0.219545 0.260428
N18   N     N_R   0.537282 0.958430 0.717024 0.227754
O3    O     O_R   0.626687 0.979761 0.794359 -0.439154
O4    O     O_R   0.449683 0.930053 0.725259 -0.376992
C59   C     C_3   0.184511 0.702673 0.840575 -0.936219
H44   H     H_    0.252801 0.693770 0.833185 0.259044
H45   H     H_    0.161230 0.750394 0.804432 0.248005
H46   H     H_    0.213294 0.750135 0.928660 0.292432
N19   N     N_R   0.759069 0.984557 0.453751 0.259264
O5    O     O_R   0.853370 0.058226 0.477955 -0.405899
O6    O     O_R   0.737367 0.882520 0.421477 -0.394551
C60   C     C_3   0.759011 0.337689 0.307930 -0.983763
H47   H     H_    0.733866 0.360324 0.244786 0.242944
H48   H     H_    0.756624 0.257285 0.271113 0.257653
H49   H     H_    0.698739 0.327788 0.336448 0.261392
C61   C     C_3   0.242393 0.595101 0.599267 -0.940506
H50   H     H_    0.189392 0.520861 0.515700 0.253788
H51   H     H_    0.320722 0.646625 0.606954 0.275078
H52   H     H_    0.259685 0.567396 0.659340 0.259886
N20   N     N_R   0.161190 0.803350 0.580653 0.258103
O7    O     O_R   0.209038 0.870264 0.553107 -0.407319
O8    O     O_R   0.129208 0.838620 0.649545 -0.387430

loop_
_geom_bond_atom_site_label_1
_geom_bond_atom_site_label_2
_geom_bond_distance
_ccdc_geom_bond_type
C11   C45   1.442842 S    
C60   H49   1.110528 S    
C27   C29   1.558255 S    
N9    Ni1   1.869849 S    
C50   C51   1.409883 A    
C31   C58   1.540973 S    
N11   Ni3   1.865828 S    
C32   H22   1.111207 S    
N1    N8    1.396826 A    
C46   C47   1.505827 S    
C39   H27   1.107173 S    
C20   C22   1.386413 A    
C59   H44   1.109017 S    
N6    Ni1   1.871794 S    
C47   C61   1.532681 S    
C52   C53   1.406982 A    
N17   O1    1.301574 A    
C60   H47   1.110216 S    
C17   N13   1.342758 A    
C19   H13   1.080276 S    
N10   Ni2   1.871791 S    
C3    C11   1.391095 A    
C44   H29   1.082935 S    
C13   H8    1.081434 S    
C39   H26   1.111955 S    
C7    H6    1.079034 S    
C21   C42   1.439535 S    
C16   C24   1.376077 A    
C57   H39   1.111278 S    
C40   N19   1.463977 S    
C61   H52   1.110256 S    
C53   C54   1.401639 A    
C33   C38   1.377645 A    
N20   O7    1.298473 A    
C55   C56   1.505261 S    
N20   O8    1.303154 A    
C15   N11   1.329669 A    
C26   H17   1.114984 S    
C48   N20   1.470377 S    
C58   H43   1.109732 S    
C12   C29   1.466845 S    
C27   C31   1.541604 S    
C38   C39   1.491691 S    
N19   O5    1.300472 A    
C47   H30   1.106110 S    
C15   C23   1.393329 A    
C54   C55   1.497078 S    
C14   N10   1.322690 A    
C28   C32   1.540183 S    
C14   C22   1.382800 A    
C4    H3    1.080110 S    
N13   Ni2   1.869246 S    
C26   H16   1.114239 S    
C56   H37   1.112039 S    
C26   C30   1.556326 S    
C20   N16   1.331658 A    
C35   N18   1.438383 S    
C33   C40   1.507524 S    
C25   H15   1.115520 S    
C25   C57   1.545672 S    
C8    H7    1.071303 S    
C32   H23   1.111019 S    
C45   C46   1.388009 A    
C7    C10   1.392133 A    
C18   N14   1.327450 A    
C18   C23   1.390182 A    
C52   H33   1.081263 S    
C48   H31   1.112117 S    
C13   C21   1.361120 A    
N8    Ni3   1.863893 S    
C19   N15   1.336910 A    
N5    Ni2   1.869849 S    
C25   C26   1.528138 S    
N16   Ni3   1.864484 S    
C10   C34   1.464893 S    
N9    N15   1.369414 A    
C3    N3    1.323279 A    
C39   C40   1.507745 S    
N12   N13   1.396828 A    
N7    Ni4   1.865829 S    
C56   H36   1.112133 S    
C17   H11   1.080486 S    
C30   C32   1.555528 S    
N1    Ni1   1.869247 S    
C34   C35   1.414231 A    
C36   H25   1.076823 S    
N10   N16   1.369413 A    
C33   C34   1.404485 A    
C17   C24   1.390690 A    
C28   C29   1.558426 S    
C5    C11   1.381264 A    
C1    N1    1.330519 A    
H18   C27   1.110338 S    
C41   C46   1.367497 A    
C25   C29   1.564643 S    
C6    C12   1.379147 A    
C14   H9    1.077543 S    
N12   Ni4   1.863892 S    
C22   C30   1.472629 S    
C27   H24   1.114097 S    
C47   C48   1.515553 S    
C44   C45   1.413655 A    
C51   C52   1.400697 A    
N11   N14   1.396704 A    
C4    N4    1.318829 A    
C58   H41   1.109728 S    
N4    Ni4   1.864484 S    
N15   Ni4   1.866353 S    
N14   Ni1   1.871372 S    
C2    N2    1.322662 A    
C20   H14   1.073282 S    
C5    N5    1.327058 A    
C8    N8    1.342091 A    
N18   O3    1.301632 A    
C3    C59   1.492839 S    
C57   H40   1.109535 S    
C18   H12   1.073724 S    
C59   H46   1.105679 S    
C2    C10   1.374164 A    
C43   C44   1.397863 A    
C4    C12   1.373531 A    
C40   H28   1.111760 S    
C28   H20   1.113136 S    
C60   H48   1.110255 S    
N4    N6    1.369413 A    
C49   C54   1.379159 A    
N3    N5    1.369413 A    
C2    H2    1.078572 S    
C59   H45   1.107620 S    
N3    Ni3   1.866354 S    
N17   O2    1.299125 A    
C61   H50   1.112085 S    
C6    N6    1.329903 A    
C15   N17   1.431124 S    
H19   C31   1.111154 S    
N2    N7    1.396706 A    
C55   H35   1.111920 S    
C9    C50   1.463406 S    
C28   H21   1.110466 S    
N2    Ni2   1.871372 S    
C13   N9    1.314408 A    
C30   C31   1.567655 S    
C57   H38   1.109246 S    
C61   H51   1.110442 S    
C42   C43   1.408579 A    
N19   O6    1.302418 A    
C1    H1    1.074027 S    
C16   N12   1.323226 A    
C49   C50   1.401240 A    
C36   C37   1.410736 A    
C55   H34   1.112347 S    
C7    N7    1.338106 A    
C51   H32   1.081440 S    
C58   H42   1.110898 S    
C35   C36   1.407262 A    
C49   C56   1.499451 S    
C43   C60   1.505675 S    
C5    H4    1.081990 S    
C19   C21   1.389869 A    
C1    C9    1.381703 A    
C16   H10   1.079076 S    
C37   C38   1.399483 A    
C8    C9    1.389826 A    
C41   C48   1.509389 S    
N18   O4    1.301499 A    
C23   C37   1.464911 S    
C24   C53   1.462409 S    
C41   C42   1.403474 A    
C6    H5    1.079985 S    
