data_str_m3_o5_o29_f0_pcu.sym.126
_audit_creation_date              2013-03-05T16:48:40-0500
_audit_creation_method            fapswitch 2.2
_symmetry_space_group_name_H-M    P1
_symmetry_Int_Tables_number       1
_space_group_crystal_system       triclinic
_cell_length_a                    27.910338
_cell_length_b                    8.914447
_cell_length_c                    8.078398
_cell_angle_alpha                 90.472019
_cell_angle_beta                  90.455663
_cell_angle_gamma                 89.986737
_cell_volume                      2009.81586951

loop_
_atom_site_label
_atom_site_type_symbol
_atom_site_description
_atom_site_fract_x
_atom_site_fract_y
_atom_site_fract_z
_atom_type_partial_charge
O1    O     O_R   0.500000 0.285350 0.636850 -0.619924
O2    O     O_R   0.500000 0.714650 0.363150 -0.619924
O3    O     O_R   0.500000 0.714650 0.636850 -0.608409
O4    O     O_R   0.500000 0.285350 0.363150 -0.608460
C1    C     C_R   0.500001 0.217919 0.499564 0.930246
C2    C     C_R   0.499998 0.782080 0.500436 0.930244
O5    O     O_R   0.428760 0.500000 0.636860 -0.578739
O6    O     O_R   0.571240 0.500000 0.363140 -0.578673
O7    O     O_R   0.571240 0.500000 0.636860 -0.580247
O8    O     O_R   0.428760 0.500000 0.363140 -0.580219
C3    C     C_R   0.405622 0.499604 0.499241 1.023839
C4    C     C_R   0.594380 0.500464 0.500772 1.023649
Zn1   Zn    Zn3+2 0.500000 0.500000 0.682780 1.106365
Zn2   Zn    Zn3+2 0.500000 0.500000 0.317220 1.106367
C5    C     C_R   0.176870 0.374311 0.450267 0.705565
C6    C     C_R   0.823154 0.625172 0.551229 0.705676
C7    C     C_R   0.177284 0.635243 0.517040 0.703996
C8    C     C_R   0.822685 0.364360 0.483812 0.703898
O9    O     O_2   0.201726 0.245327 0.434159 -0.388058
O10   O     O_2   0.798331 0.754199 0.567531 -0.388219
O11   O     O_2   0.202748 0.763070 0.533474 -0.390882
O12   O     O_2   0.797164 0.236725 0.466596 -0.391227
N1    N     N_R   0.200875 0.504145 0.485395 -0.326510
N2    N     N_R   0.799126 0.495501 0.515565 -0.326422
C9    C     C_R   0.276774 0.544959 0.633668 0.648740
C10   C     C_R   0.723283 0.455525 0.366646 0.648777
C11   C     C_R   0.277592 0.458565 0.348570 0.651206
C12   C     C_R   0.722366 0.540921 0.652096 0.651141
C13   C     C_R   0.326636 0.548338 0.637120 0.265679
C14   C     C_R   0.673419 0.452263 0.362922 0.265757
C15   C     C_R   0.327372 0.451397 0.352757 0.264408
C16   C     C_R   0.672593 0.548330 0.647641 0.264488
C17   C     C_R   0.252212 0.502778 0.489145 -0.168559
C18   C     C_R   0.747793 0.497078 0.511495 -0.168617
C19   C     C_R   0.101440 0.504714 0.486009 -0.157394
C20   C     C_R   0.898561 0.494551 0.515827 -0.157332
C21   C     C_R   0.126741 0.374621 0.435654 -0.136278
C22   C     C_R   0.873273 0.624671 0.566192 -0.136188
C23   C     C_R   0.127061 0.636615 0.530119 -0.136483
C24   C     C_R   0.872925 0.362762 0.471378 -0.136491
C25   C     C_R   0.101152 0.250317 0.372560 0.481838
C26   C     C_R   0.898868 0.748819 0.629653 0.481767
C27   C     C_R   0.101617 0.764564 0.583704 0.478298
C28   C     C_R   0.898375 0.234700 0.418120 0.478306
C29   C     C_R   0.352787 0.499407 0.496700 -0.456421
C30   C     C_R   0.647220 0.500759 0.503419 -0.456670
C31   C     C_R   0.974526 0.367625 0.454179 0.024804
C32   C     C_R   0.025480 0.631493 0.548039 0.024855
C33   C     C_R   0.974754 0.627426 0.560029 0.024887
C34   C     C_R   0.025257 0.371660 0.442262 0.024906
C35   C     C_R   0.949435 0.496579 0.509726 0.098044
C36   C     C_R   0.050571 0.502569 0.492402 0.098061
C37   C     C_R   0.947975 0.237469 0.413656 -0.254656
C38   C     C_R   0.052023 0.761678 0.588516 -0.254788
C39   C     C_R   0.948464 0.748748 0.626567 -0.256036
C40   C     C_R   0.051554 0.250282 0.375861 -0.255967
H1    H     H_    0.964539 0.133326 0.378199 0.173218
H2    H     H_    0.035457 0.865767 0.624168 0.173213
H3    H     H_    0.965237 0.845415 0.682367 0.176794
H4    H     H_    0.034788 0.153491 0.320317 0.176732
C41   C     C_1   0.500000 0.065202 0.499373 -0.120272
C42   C     C_1   0.499999 0.934797 0.500626 -0.120224
N3    N     N_1   0.500000 0.500000 0.073640 0.028446
N4    N     N_1   0.500000 0.500000 0.926360 0.028466
Cl1   Cl    Cl    0.355366 0.374319 0.175820 -0.378844
Cl2   Cl    Cl    0.644568 0.625205 0.824614 -0.378649
Cl3   Cl    Cl    0.353884 0.621602 0.818751 -0.376679
Cl4   Cl    Cl    0.646234 0.379707 0.180860 -0.376192
F1    F     F_    0.253546 0.420671 0.207359 -0.521730
F2    F     F_    0.746362 0.578229 0.793591 -0.521492
F3    F     F_    0.251874 0.584507 0.771189 -0.524256
F4    F     F_    0.748240 0.416451 0.229094 -0.524117
Cl5   Cl    Cl    0.128299 0.096025 0.270981 -0.400072
Cl6   Cl    Cl    0.871721 0.903067 0.731318 -0.400153
Cl7   Cl    Cl    0.128887 0.930864 0.659466 -0.406023
Cl8   Cl    Cl    0.871125 0.068296 0.342554 -0.406180

loop_
_geom_bond_atom_site_label_1
_geom_bond_atom_site_label_2
_geom_bond_distance
_ccdc_geom_bond_type
C5    O9    1.348658 S    
C39   H3    1.074885 S    
C10   F4    1.359073 S    
C19   C23   1.417862 A    
O3    C2    1.259625 A    
C11   C17   1.397151 A    
O5    C3    1.281226 A    
C7    N1    1.364582 A    
O1    C1    1.257117 A    
C19   C21   1.416153 A    
C22   C26   1.408231 A    
C32   C36   1.417538 A    
C9    C13   1.392037 A    
C7    C23   1.406573 A    
C28   Cl8   1.769119 S    
C8    C24   1.406660 A    
C5    C21   1.403152 A    
C20   C24   1.417917 A    
O7    Zn1   2.025537 S    
C13   Cl3   1.767643 S    
C28   C37   1.385334 A    
C10   C18   1.398083 A    
N1    C17   1.432963 S    
C34   C36   1.418839 A    
C9    F3    1.359126 S    
O3    Zn1   1.952126 S    
C6    O10   1.348666 S    
C31   C37   1.411677 A    
C5    N1    1.364150 A    
C12   C18   1.397095 A    
C6    N2    1.364099 A    
C21   C25   1.408209 A    
O2    C2    1.257117 A    
C31   C34   1.420436 A    
C27   Cl7   1.769123 S    
C26   Cl6   1.769219 S    
C11   C15   1.390997 A    
C12   C16   1.390926 A    
C4    C30   1.474761 S    
O8    Zn2   2.025539 S    
C37   H1    1.074798 S    
C23   C27   1.410340 A    
C33   C35   1.418818 A    
C33   C39   1.411859 A    
C34   C40   1.411920 A    
C40   H4    1.074838 S    
C13   C29   1.419394 A    
C32   C38   1.411693 A    
C25   C40   1.384741 A    
C26   C39   1.384658 A    
C27   C38   1.385271 A    
C24   C28   1.410437 A    
O6    C4    1.281347 A    
C1    C41   1.361376 S    
C20   C35   1.421287 A    
C32   C33   1.420349 A    
C10   C14   1.392118 A    
C8    N2    1.364633 A    
C3    C29   1.474612 S    
O1    Zn1   1.946125 S    
C16   Cl2   1.768272 S    
C38   H2    1.074827 S    
C15   Cl1   1.768334 S    
O6    Zn2   2.019736 S    
C8    O12   1.348148 S    
C16   C30   1.420440 A    
C14   C30   1.419427 A    
C12   F2    1.359184 S    
O4    C1    1.259625 A    
C11   F1    1.359197 S    
C31   C35   1.417530 A    
C2    C42   1.361376 S    
C20   C22   1.416181 A    
Zn1   N4    1.967736 S    
Zn2   N3    1.967736 S    
O4    Zn2   1.952127 S    
C41   C42   1.162615 T    
O2    Zn2   1.946124 S    
O7    C4    1.279504 A    
N2    C18   1.432911 S    
O8    C3    1.279554 A    
C25   Cl5   1.769208 S    
N3    N4    1.189786 T    
O5    Zn1   2.019739 S    
C15   C29   1.420329 A    
C9    C17   1.398076 A    
C19   C36   1.421276 A    
C14   Cl4   1.767489 S    
C6    C22   1.403102 A    
C7    O11   1.348182 S    
