data_str_m12_o9_o22_f0_bcu.sym.159
_audit_creation_date              2012-12-11T17:45:23-0500
_audit_creation_method            fapswitch 2.2
_symmetry_space_group_name_H-M    P1
_symmetry_Int_Tables_number       1
_space_group_crystal_system       triclinic
_cell_length_a                    15.093963
_cell_length_b                    14.866727
_cell_length_c                    15.013056
_cell_angle_alpha                 109.105777
_cell_angle_beta                  109.308809
_cell_angle_gamma                 109.804173
_cell_volume                      2599.52073991

loop_
_atom_site_label
_atom_site_type_symbol
_atom_type_description
_atom_site_fract_x
_atom_site_fract_y
_atom_site_fract_z
_atom_type_partial_charge
C1    C     C_R   0.902820 0.190969 0.987409 -0.141125
C2    C     C_R   0.291336 0.873046 0.296397 0.063114
C3    C     C_R   0.326380 0.498463 0.031786 -0.072701
C4    C     C_R   0.034999 0.493606 0.323864 0.058759
C5    C     C_R   0.702312 0.405557 0.005973 -0.144668
C6    C     C_R   0.098035 0.593051 0.793846 -0.181847
C7    C     C_R   0.778753 0.241110 0.685711 -0.125389
C8    C     C_R   0.923921 0.735041 0.014142 -0.151019
C9    C     C_R   0.023912 0.747359 0.933002 -0.123768
C10   C     C_R   0.685186 0.235685 0.775640 -0.137635
C11   C     C_R   0.792088 0.587792 0.099639 -0.156150
C12   C     C_R   0.289524 0.809906 0.204195 -0.157992
C13   C     C_R   0.011176 0.411076 0.705260 -0.130818
C14   C     C_R   0.701745 0.494258 0.071483 -0.002538
C15   C     C_R   0.076799 0.503737 0.705841 0.078911
C16   C     C_R   0.675114 0.201838 0.672643 0.057323
C17   C     C_R   0.942081 0.767081 0.941777 0.055765
C18   C     C_R   0.759682 0.159600 0.208855 0.248965
C19   C     C_R   0.841864 0.254875 0.307493 -0.270049
C20   C     C_R   0.950892 0.284774 0.341273 0.100478
C21   C     C_R   0.977962 0.215810 0.281508 -0.196478
C22   C     C_R   0.896562 0.123318 0.181942 -0.176596
C23   C     C_R   0.223088 0.407066 0.964947 -0.182520
C24   C     C_R   0.787461 0.094129 0.145698 -0.139886
C25   C     C_R   0.063644 0.401225 0.534070 -0.245083
C26   C     C_R   0.112960 0.503404 0.625820 0.046323
C27   C     C_R   0.169729 0.598853 0.622179 0.026859
C28   C     C_R   0.153018 0.589633 0.521950 -0.235770
C29   C     C_R   0.076094 0.490059 0.425980 0.058358
C30   C     C_R   0.036114 0.393268 0.433494 0.052837
C31   C     C_R   0.222034 0.792353 0.735126 -0.174371
C32   C     C_R   0.303053 0.902933 0.800761 -0.136636
C33   C     C_R   0.412111 0.931637 0.845331 -0.095577
C34   C     C_R   0.055639 0.588720 0.314404 -0.131176
C35   C     C_R   0.440535 0.849855 0.828002 -0.093754
C36   C     C_R   0.359705 0.738976 0.764144 -0.163810
C37   C     C_R   0.249787 0.709403 0.716406 0.114353
C38   C     C_R   0.095417 0.003164 0.396768 -0.138205
C39   C     C_R   0.197205 0.037982 0.404324 -0.144480
C40   C     C_R   0.276777 0.029424 0.476698 0.119536
C41   C     C_R   0.254491 0.988740 0.543737 -0.206501
C42   C     C_R   0.150994 0.949667 0.532435 -0.108038
C43   C     C_R   0.071391 0.956499 0.458693 -0.101097
C44   C     C_R   0.477366 0.127641 0.567005 -0.243772
C45   C     C_R   0.315895 0.592217 0.048437 0.188416
C46   C     C_R   0.573974 0.137120 0.568847 0.067027
C47   C     C_R   0.570949 0.081388 0.470653 0.011609
C48   C     C_R   0.473678 0.022377 0.374990 -0.228800
C49   C     C_R   0.376711 0.988365 0.377668 0.053576
C50   C     C_R   0.377542 0.049845 0.472605 0.029800
C51   C     C_R   0.712826 0.085750 0.417854 -0.188117
C52   C     C_R   0.772742 0.037761 0.392724 -0.117346
C53   C     C_R   0.768011 0.949372 0.409305 -0.123626
C54   C     C_R   0.705746 0.910581 0.453280 -0.135792
C55   C     C_R   0.648840 0.960663 0.481947 -0.131261
C56   C     C_R   0.965341 0.404629 0.219359 -0.131227
C57   C     C_R   0.651321 0.048079 0.463707 0.118914
C58   C     C_3   0.521310 0.381264 0.053114 -0.406797
C59   C     C_3   0.414262 0.380075 0.037371 -0.410374
C60   C     C_3   0.628780 0.587192 0.172286 -0.421317
C61   C     C_3   0.548961 0.503055 0.968584 -0.393718
C62   C     C_3   0.602561 0.490984 0.067958 0.404244
C63   C     C_3   0.425498 0.491970 0.048651 0.414120
C64   C     C_3   0.523142 0.580950 0.165392 -0.396014
C65   C     C_3   0.444458 0.500941 0.955743 -0.398724
C66   C     C_R   0.008062 0.064367 0.652245 -0.138865
C67   C     C_R   0.204677 0.803972 0.298048 -0.135849
C68   C     C_R   0.947415 0.005652 0.687426 -0.169407
C69   C     C_R   0.000271 0.995774 0.777174 0.112937
C70   C     C_R   0.112560 0.035656 0.824226 -0.172076
C71   C     C_R   0.172180 0.091729 0.786826 -0.160043
C72   C     C_R   0.120493 0.109020 0.703254 -0.093406
C73   C     C_R   0.936762 0.861071 0.833477 -0.242474
C74   C     C_R   0.897803 0.826724 0.896175 0.066658
C75   C     C_R   0.833753 0.867212 0.926850 0.027372
C76   C     C_R   0.827942 0.952498 0.910770 -0.258225
C77   C     C_R   0.896675 0.009050 0.881297 0.061764
C78   C     C_R   0.001342 0.199092 0.905970 -0.143979
C79   C     C_R   0.941014 0.954435 0.828856 0.029395
C80   C     C_R   0.669288 0.782237 0.939114 -0.173610
C81   C     C_R   0.619850 0.775138 0.002020 -0.164783
C82   C     C_R   0.682900 0.821273 0.114337 -0.090596
C83   C     C_R   0.795446 0.873617 0.163433 -0.113301
C84   C     C_R   0.845278 0.884322 0.101517 -0.186206
C85   C     C_R   0.782516 0.837593 0.988572 0.117770
C86   C     C_R   0.933967 0.128457 0.924840 0.062457
H1    H     H_    0.838794 0.159604 0.004801 0.100540
H2    H     H_    0.153862 0.678039 0.825613 0.106821
H3    H     H_    0.802757 0.235949 0.625084 0.113252
H4    H     H_    0.856446 0.720495 0.027272 0.132369
H5    H     H_    0.058863 0.760344 0.883189 0.094655
H6    H     H_    0.621285 0.219062 0.795946 0.090063
H7    H     H_    0.820110 0.672180 0.154927 0.103198
H8    H     H_    0.988673 0.326824 0.657027 0.088864
H9    H     H_    0.724777 0.022658 0.067531 0.127547
H10   H     H_    0.821438 0.308889 0.354262 0.128967
H11   H     H_    0.327734 0.844894 0.166280 0.127962
H12   H     H_    0.062099 0.239214 0.306735 0.127724
H13   H     H_    0.919941 0.078958 0.130748 0.146784
H14   H     H_    0.029858 0.325524 0.535796 0.123986
H15   H     H_    0.195494 0.663155 0.519641 0.132747
H16   H     H_    0.137950 0.771328 0.694936 0.113196
H17   H     H_    0.281423 0.966421 0.813961 0.112658
H18   H     H_    0.474443 0.017179 0.892374 0.112862
H19   H     H_    0.525191 0.872545 0.862329 0.106322
H20   H     H_    0.382766 0.676462 0.746697 0.105674
H21   H     H_    0.991365 0.926192 0.450068 0.102633
H22   H     H_    0.200825 0.321722 0.928263 0.121278
H23   H     H_    0.034817 0.010669 0.341477 0.109213
H24   H     H_    0.213247 0.069159 0.352173 0.110159
H25   H     H_    0.314606 0.980478 0.599149 0.125003
H26   H     H_    0.132313 0.913584 0.580448 0.129075
H27   H     H_    0.478351 0.174167 0.640254 0.123956
H28   H     H_    0.475471 0.981194 0.302423 0.120456
H29   H     H_    0.713220 0.151145 0.400831 0.107203
H30   H     H_    0.821097 0.067563 0.358525 0.131441
H31   H     H_    0.812871 0.910880 0.388861 0.092018
H32   H     H_    0.701324 0.841357 0.464835 0.110794
H33   H     H_    0.105035 0.673501 0.378384 0.097116
H34   H     H_    0.598553 0.927954 0.513436 0.112378
H35   H     H_    0.557588 0.372854 0.125439 0.163987
H36   H     H_    0.501419 0.308663 0.980708 0.148511
H37   H     H_    0.348399 0.311004 0.955476 0.153200
H38   H     H_    0.394208 0.364279 0.097659 0.158408
H39   H     H_    0.674315 0.583517 0.245123 0.154550
H40   H     H_    0.509542 0.557420 0.224891 0.158179
H41   H     H_    0.604637 0.581209 0.977635 0.179930
H42   H     H_    0.530986 0.434931 0.893119 0.156093
H43   H     H_    0.375915 0.428470 0.876189 0.155239
H44   H     H_    0.444843 0.572449 0.948861 0.151241
H45   H     H_    0.680132 0.667666 0.182409 0.159705
H46   H     H_    0.534401 0.664290 0.195478 0.149596
H47   H     H_    0.167426 0.155718 0.676921 0.121426
H48   H     H_    0.968878 0.078331 0.587765 0.126731
H49   H     H_    0.861412 0.976354 0.651732 0.127439
H50   H     H_    0.154455 0.027697 0.892789 0.114961
H51   H     H_    0.258832 0.123909 0.824130 0.105820
H52   H     H_    0.974507 0.823033 0.796854 0.122918
H53   H     H_    0.780801 0.984034 0.936510 0.121197
H54   H     H_    0.931889 0.318700 0.189689 0.143487
H55   H     H_    0.619642 0.749311 0.852830 0.114774
H56   H     H_    0.532739 0.735582 0.962912 0.123599
H57   H     H_    0.645917 0.818315 0.164440 0.119638
H58   H     H_    0.844367 0.909218 0.249840 0.096064
H59   H     H_    0.933017 0.929776 0.141359 0.113562
H60   H     H_    0.171459 0.824902 0.349484 0.126582
H61   H     H_    0.033853 0.182686 0.853780 0.133856
H62   H     H_    0.648916 0.319530 0.974952 0.092608
N1    N     N_R   0.947080 0.293830 0.002870 -0.041626
N2    N     N_R   0.054040 0.556820 0.847890 -0.041039
N3    N     N_R   0.848290 0.293830 0.791110 -0.040920
N4    N     N_R   0.995680 0.706170 0.053910 -0.039604
N5    N     N_R   0.052920 0.706170 0.997130 -0.043821
N6    N     N_R   0.791050 0.293830 0.847890 -0.039867
N7    N     N_R   0.846330 0.556820 0.053910 -0.036971
N8    N     N_R   0.997640 0.443180 0.791110 -0.038804
N9    N     N_R   0.208950 0.706170 0.152110 -0.040969
N10   N     N_R   0.153670 0.443180 0.946090 -0.044989
N11   N     N_R   0.002360 0.556820 0.208890 -0.038326
N12   N     N_R   0.210070 0.556820 0.002870 -0.051919
N13   N     N_R   0.945960 0.443180 0.152110 -0.042636
N14   N     N_R   0.151710 0.706170 0.208890 -0.041313
N15   N     N_R   0.004320 0.293830 0.946090 -0.039612
N16   N     N_R   0.789930 0.443180 0.997130 -0.032729
Ni1   Ni    Ni4+2 0.869690 0.369690 0.000000 0.208145
Ni2   Ni    Ni4+2 0.130310 0.630310 0.000000 0.202310
Ni3   Ni    Ni4+2 0.000970 0.369690 0.869780 0.210512
Ni4   Ni    Ni4+2 0.999030 0.630310 0.130220 0.214454
N17   N     N_2   0.650191 0.134600 0.168724 -0.109082
H63   H     H_    0.627738 0.146094 0.227590 0.167095
C87   C     C_3   0.622915 0.190031 0.110007 -0.994955
H64   H     H_    0.534994 0.162092 0.075378 0.251787
H65   H     H_    0.641656 0.171159 0.042762 0.249888
H66   H     H_    0.669640 0.280529 0.165472 0.254840
C88   C     C_3   0.400113 0.706907 0.084331 -0.506691
C89   C     C_3   0.359657 0.750902 0.009645 -0.245961
C90   C     C_3   0.440113 0.871965 0.055090 -0.897060
H67   H     H_    0.474797 0.920571 0.143756 0.245799
H68   H     H_    0.508446 0.880708 0.039693 0.268652
H69   H     H_    0.398018 0.908225 0.016140 0.261273
H70   H     H_    0.346042 0.700569 0.928080 0.196465
H71   H     H_    0.280989 0.743279 0.999113 0.197014
H72   H     H_    0.428694 0.762080 0.170312 0.198574
H73   H     H_    0.471523 0.707737 0.081473 0.187614

loop_
_geom_bond_atom_site_label_1
_geom_bond_atom_site_label_2
_ccdc_geom_bond_type
C58   C62   S    
C66   C68   A    
C87   H64   S    
C63   C65   S    
C1    H1    S    
N5    Ni2   S    
C33   H18   S    
C73   C74   A    
C3    C23   A    
C35   C36   A    
C2    C12   A    
C9    H5    S    
C65   H44   S    
C71   H51   S    
C20   C30   S    
C84   H59   S    
C89   H71   S    
C87   H65   S    
C26   C27   A    
C80   C85   A    
C18   C24   A    
C88   H72   S    
C28   C29   A    
C8    N4    A    
C82   H57   S    
C45   C88   S    
C83   H58   S    
C56   H54   S    
C11   C14   A    
C53   H31   S    
C9    N5    A    
C76   H53   S    
C73   H52   S    
C14   C62   S    
C23   N10   A    
C1    C86   A    
C6    H2    S    
N11   Ni4   S    
C60   C62   S    
C18   C19   A    
C41   C42   A    
N3    N6    A    
C49   C50   A    
C42   H26   S    
C7    H3    S    
C6    C15   A    
C66   H48   S    
C28   H15   S    
C75   C85   S    
C39   H24   S    
C66   C72   A    
C47   C48   A    
C68   C69   A    
C90   H68   S    
N11   N13   A    
N6    Ni1   S    
C1    N1    A    
C70   C71   A    
C51   C57   A    
N12   Ni2   S    
C12   N9    A    
C5    C14   A    
C31   C32   A    
C4    C29   S    
C11   N7    A    
C34   N11   A    
C78   C86   A    
C52   H30   S    
C10   H6    S    
C78   N15   A    
C5    H62   S    
N2    N8    A    
C21   C22   A    
C4    C56   A    
C70   H50   S    
N17   C87   S    
C10   N6    A    
C61   C62   S    
C45   N12   A    
C60   H45   S    
N4    Ni4   S    
C44   C46   A    
N10   Ni3   S    
C81   C82   A    
C55   H34   S    
C77   C79   A    
C59   H37   S    
C89   H70   S    
C87   H66   S    
C4    C34   A    
C58   H36   S    
C74   C75   A    
C36   H20   S    
C51   C52   A    
C31   H16   S    
C64   H46   S    
N1    Ni1   S    
C84   C85   A    
C2    C67   A    
C24   H9    S    
C16   C46   S    
C39   C40   A    
C10   C16   A    
C25   C30   A    
C15   C26   S    
N8    Ni3   S    
C60   H39   S    
C58   C59   S    
C53   C54   A    
C56   N13   A    
C3    C45   A    
C51   H29   S    
C31   C37   A    
N15   Ni3   S    
C75   C76   A    
C5    N16   A    
C13   N8    A    
C29   C30   A    
C35   H19   S    
C2    C49   S    
C47   C57   S    
C25   H14   S    
C83   C84   A    
N7    Ni4   S    
C90   H69   S    
C67   H60   S    
C73   C79   A    
C32   H17   S    
C61   H41   S    
N17   H63   S    
C43   H21   S    
C76   C77   A    
C38   H23   S    
C12   H11   S    
C78   H61   S    
C7    N3    A    
C9    C17   A    
C48   C49   A    
C77   C86   S    
C80   H55   S    
C64   H40   S    
C55   C57   A    
C17   C74   S    
C59   H38   S    
N14   Ni4   S    
C69   C79   S    
C8    H4    S    
C42   C43   A    
C54   H32   S    
C52   C53   A    
C48   H28   S    
C18   N17   S    
C44   C50   A    
C34   H33   S    
C54   C55   A    
N16   Ni1   S    
C58   H35   S    
C22   H13   S    
C68   H49   S    
C7    C16   A    
C80   C81   A    
N9    Ni2   S    
C44   H27   S    
C65   H43   S    
N1    N15   A    
N3    Ni3   S    
C3    C63   S    
N7    N16   A    
C59   C63   S    
C8    C17   A    
C13   H8    S    
C60   C64   S    
C32   C33   A    
C19   C20   A    
C13   C15   A    
C25   C26   A    
C38   C43   A    
C88   C89   S    
C81   H56   S    
C21   H12   S    
N10   N12   A    
C67   N14   A    
C11   H7    S    
C72   H47   S    
C38   C39   A    
C27   C37   S    
C40   C50   S    
C23   H22   S    
C33   C35   A    
C61   H42   S    
C22   C24   A    
C69   C70   A    
C46   C47   A    
C89   C90   S    
C63   C64   S    
C6    N2    A    
C61   C65   S    
C71   C72   A    
C20   C21   A    
C36   C37   A    
C90   H67   S    
C41   H25   S    
C27   C28   A    
C40   C41   A    
N4    N5    A    
C82   C83   A    
N9    N14   A    
N13   Ni1   S    
C19   H10   S    
C88   H73   S    
N2    Ni2   S    
