data_str_m3_o40_o41_f0_fof.sym.218
_audit_creation_date              2012-12-10T16:37:59-0500
_audit_creation_method            fapswitch 2.2
_symmetry_space_group_name_H-M    P1
_symmetry_Int_Tables_number       1
_space_group_crystal_system       triclinic
_cell_length_a                    28.038308
_cell_length_b                    18.361992
_cell_length_c                    16.889049
_cell_angle_alpha                 90.074802
_cell_angle_beta                  60.911141
_cell_angle_gamma                 90.159575
_cell_volume                      7598.36817376

loop_
_atom_site_label
_atom_site_type_symbol
_atom_type_description
_atom_site_fract_x
_atom_site_fract_y
_atom_site_fract_z
_atom_type_partial_charge
C1    C     C_R   0.704055 0.274318 0.675297 0.972600
C2    C     C_R   0.300642 0.737086 0.322423 0.930021
C3    C     C_R   0.300622 0.263009 0.322062 0.963045
C4    C     C_R   0.703962 0.725731 0.675389 0.994287
C5    C     C_R   0.204064 0.774332 0.675284 0.978294
C6    C     C_R   0.800655 0.237104 0.322416 0.935636
C7    C     C_R   0.800635 0.762901 0.322384 0.916566
C8    C     C_R   0.199463 0.236840 0.677920 0.927225
C9    C     C_R   0.918672 0.500161 0.444927 0.074775
C10   C     C_R   0.083227 0.499842 0.546120 0.064121
C11   C     C_R   0.405857 0.997741 0.480857 0.089712
C12   C     C_R   0.594431 0.001831 0.517557 0.073017
C13   C     C_R   0.077230 0.368352 0.556451 -0.204859
C14   C     C_R   0.924485 0.631656 0.434502 -0.176361
C15   C     C_R   0.924765 0.368771 0.432428 -0.176043
C16   C     C_R   0.076861 0.631214 0.558717 -0.203649
C17   C     C_R   0.621031 0.885082 0.440472 -0.230350
C18   C     C_R   0.378953 0.114051 0.558933 -0.216198
C19   C     C_R   0.430100 0.877844 0.411241 -0.186611
C20   C     C_R   0.570182 0.121768 0.587039 -0.214281
C21   C     C_R   0.724448 0.279825 0.952401 0.041677
C22   C     C_R   0.286400 0.749876 0.040584 0.041038
C23   C     C_R   0.283261 0.259153 0.041969 0.039586
C24   C     C_R   0.723874 0.721103 0.952810 0.040345
C25   C     C_R   0.224303 0.779550 0.952519 0.041504
C26   C     C_R   0.786597 0.250218 0.040395 0.040889
C27   C     C_R   0.786133 0.750343 0.040735 0.042283
C28   C     C_R   0.217931 0.239027 0.956860 0.041317
C29   C     C_R   0.779181 0.256372 0.901676 -0.004798
C30   C     C_R   0.235310 0.785126 0.087859 -0.008012
C31   C     C_R   0.235314 0.216829 0.084943 -0.008733
C32   C     C_R   0.778855 0.743844 0.901963 -0.005330
C33   C     C_R   0.279011 0.756015 0.901857 -0.005286
C34   C     C_R   0.735519 0.285494 0.087677 -0.009354
C35   C     C_R   0.734634 0.715861 0.088324 -0.006688
C36   C     C_R   0.265973 0.281185 0.913757 -0.006196
C37   C     C_R   0.808242 0.234420 0.947245 0.079046
C38   C     C_R   0.201716 0.792631 0.046467 0.076070
C39   C     C_R   0.201355 0.209555 0.044172 0.079543
C40   C     C_R   0.808034 0.765681 0.947434 0.078354
C41   C     C_R   0.308032 0.734021 0.947458 0.077439
C42   C     C_R   0.701902 0.292975 0.046324 0.074885
C43   C     C_R   0.701030 0.708615 0.046927 0.077953
C44   C     C_R   0.299942 0.288431 0.954536 0.080927
C45   C     C_R   0.638861 0.317891 0.957096 0.046629
C46   C     C_R   0.364997 0.691260 0.042202 0.044888
C47   C     C_R   0.363246 0.313331 0.043003 0.047176
C48   C     C_R   0.638146 0.683410 0.957541 0.049679
C49   C     C_R   0.138788 0.817774 0.957111 0.048144
C50   C     C_R   0.865133 0.191451 0.042072 0.045393
C51   C     C_R   0.865176 0.808260 0.042027 0.045429
C52   C     C_R   0.137531 0.185639 0.956393 0.044786
C53   C     C_R   0.610217 0.336015 0.908886 -0.182078
C54   C     C_R   0.391270 0.667271 0.092378 -0.199825
C55   C     C_R   0.390937 0.333820 0.092100 -0.202506
C56   C     C_R   0.609611 0.664819 0.909317 -0.187156
C57   C     C_R   0.110193 0.835992 0.908866 -0.184430
C58   C     C_R   0.891347 0.167353 0.092308 -0.202101
C59   C     C_R   0.891466 0.832371 0.092151 -0.203691
C60   C     C_R   0.109466 0.165760 0.907670 -0.202210
C61   C     C_R   0.628224 0.308831 0.822970 0.181159
C62   C     C_R   0.376911 0.698657 0.176141 0.193147
C63   C     C_R   0.376788 0.301624 0.175306 0.187757
C64   C     C_R   0.627827 0.691538 0.823148 0.181570
C65   C     C_R   0.128230 0.808873 0.822916 0.183163
C66   C     C_R   0.876950 0.198665 0.176131 0.194255
C67   C     C_R   0.876963 0.801206 0.176025 0.194858
C68   C     C_R   0.123464 0.198251 0.824702 0.189805
C69   C     C_R   0.683513 0.292558 0.770679 -0.171359
C70   C     C_R   0.327550 0.735694 0.222318 -0.162323
C71   C     C_R   0.327290 0.264869 0.221464 -0.166730
C72   C     C_R   0.683203 0.707667 0.770862 -0.181948
C73   C     C_R   0.183520 0.792575 0.770651 -0.174243
C74   C     C_R   0.827606 0.235742 0.222288 -0.164250
C75   C     C_R   0.827403 0.764364 0.222348 -0.156486
C76   C     C_R   0.173031 0.234783 0.778413 -0.153447
C77   C     C_R   0.717773 0.290442 0.812495 -0.044520
C78   C     C_R   0.299706 0.759669 0.174298 -0.045552
C79   C     C_R   0.299386 0.241775 0.172794 -0.046414
C80   C     C_R   0.717367 0.709871 0.812812 -0.044326
C81   C     C_R   0.217757 0.790382 0.812506 -0.044465
C82   C     C_R   0.799835 0.259836 0.174199 -0.047160
C83   C     C_R   0.799301 0.740595 0.174516 -0.050707
C84   C     C_R   0.201298 0.257318 0.826710 -0.041804
C85   C     C_R   0.690683 0.129832 0.537522 0.897689
C86   C     C_R   0.309519 0.869971 0.461467 0.930469
C87   C     C_R   0.303192 0.127571 0.482687 0.916073
C88   C     C_R   0.696993 0.872357 0.516683 0.910691
C89   C     C_R   0.190932 0.629380 0.535638 0.903037
C90   C     C_R   0.809343 0.370355 0.462734 0.940515
C91   C     C_R   0.809307 0.629598 0.462884 0.943856
C92   C     C_R   0.191005 0.370692 0.535346 0.909840
C93   C     C_R   0.693231 0.293934 0.907756 0.039055
C94   C     C_R   0.316830 0.733043 0.086033 0.034376
C95   C     C_R   0.315083 0.271792 0.086299 0.032123
C96   C     C_R   0.692679 0.706962 0.908129 0.040951
C97   C     C_R   0.193156 0.793798 0.907796 0.040106
C98   C     C_R   0.816990 0.233284 0.085886 0.034979
C99   C     C_R   0.816675 0.766942 0.086092 0.033950
C100  C     C_R   0.185831 0.226901 0.912903 0.031223
C101  C     C_R   0.615489 0.324074 0.052068 -0.129464
C102  C     C_R   0.386786 0.678757 0.948269 -0.131922
C103  C     C_R   0.383718 0.329138 0.950030 -0.128698
C104  C     C_R   0.614505 0.677848 0.052577 -0.132494
C105  C     C_R   0.115357 0.823850 0.052103 -0.131085
C106  C     C_R   0.886957 0.179026 0.948109 -0.132592
C107  C     C_R   0.887229 0.820314 0.947988 -0.131798
C108  C     C_R   0.117301 0.169528 0.049227 -0.126982
C109  C     C_R   0.646607 0.313454 0.095448 -0.206637
C110  C     C_R   0.358907 0.699026 0.902377 -0.204388
C111  C     C_R   0.352177 0.319475 0.907911 -0.220150
C112  C     C_R   0.645517 0.688793 0.096128 -0.212392
C113  C     C_R   0.146420 0.813113 0.095554 -0.210918
C114  C     C_R   0.859134 0.199456 0.902155 -0.210008
C115  C     C_R   0.859284 0.800039 0.902101 -0.210432
C116  C     C_R   0.149103 0.178608 0.090935 -0.214482
C117  C     C_R   0.775435 0.287380 0.764453 0.300453
C118  C     C_R   0.257502 0.812797 0.207601 0.316382
C119  C     C_R   0.259235 0.185949 0.202697 0.312680
C120  C     C_R   0.775037 0.712376 0.764856 0.297941
C121  C     C_R   0.275430 0.787122 0.764525 0.298478
C122  C     C_R   0.757694 0.313040 0.207475 0.316809
C123  C     C_R   0.756542 0.687978 0.208175 0.314990
C124  C     C_R   0.241638 0.312931 0.796714 0.306835
C125  C     C_R   0.804610 0.263530 0.806979 -0.239911
C126  C     C_R   0.222622 0.818844 0.170467 -0.247582
C127  C     C_R   0.225860 0.177402 0.162890 -0.246802
C128  C     C_R   0.804345 0.736077 0.807330 -0.237595
C129  C     C_R   0.304496 0.763159 0.807169 -0.229105
C130  C     C_R   0.722851 0.319210 0.170283 -0.242784
C131  C     C_R   0.721520 0.682472 0.171244 -0.263350
C132  C     C_R   0.275373 0.320791 0.835955 -0.262277
C133  C     C_R   0.070746 0.104559 0.937544 0.947242
C134  C     C_R   0.929505 0.894950 0.062271 0.934357
C135  C     C_R   0.929374 0.104897 0.062450 0.938930
C136  C     C_R   0.069670 0.894557 0.938950 0.940175
C137  C     C_R   0.569308 0.605787 0.939336 0.940917
C138  C     C_R   0.429409 0.395309 0.062333 0.935722
C139  C     C_R   0.429313 0.604842 0.062511 0.932420
C140  C     C_R   0.569684 0.394569 0.938944 0.944772
C141  C     C_R   0.521529 0.119438 0.582624 0.105137
C142  C     C_R   0.478597 0.879921 0.416186 0.111113
C143  C     C_R   0.425413 0.115198 0.569181 0.112238
C144  C     C_R   0.574564 0.883919 0.430187 0.113078
C145  C     C_R   0.038392 0.632103 0.528837 0.097147
C146  C     C_R   0.963826 0.367873 0.461058 0.117086
C147  C     C_R   0.963466 0.632362 0.463331 0.116504
C148  C     C_R   0.038798 0.367674 0.526467 0.097202
C149  C     C_R   0.483270 0.175900 0.619204 -0.181623
C150  C     C_R   0.516725 0.823273 0.380035 -0.182368
C151  C     C_R   0.435290 0.173481 0.613246 -0.193074
C152  C     C_R   0.564612 0.825545 0.386316 -0.197661
C153  C     C_R   0.018753 0.698191 0.514377 -0.193534
C154  C     C_R   0.983233 0.301792 0.475946 -0.172975
C155  C     C_R   0.982686 0.698340 0.479394 -0.174821
C156  C     C_R   0.019328 0.301684 0.510871 -0.193119
C157  C     C_R   0.463128 0.057878 0.533258 0.035555
C158  C     C_R   0.536941 0.941371 0.465792 0.034986
C159  C     C_R   0.510828 0.059595 0.540951 0.030504
C160  C     C_R   0.489284 0.939723 0.457937 0.033613
C161  C     C_R   0.981822 0.566152 0.480055 0.040059
C162  C     C_R   0.020782 0.433865 0.509133 0.036216
C163  C     C_R   0.020572 0.566041 0.510330 0.035816
C164  C     C_R   0.982020 0.433964 0.478884 0.039888
C165  C     C_R   0.961805 0.500108 0.465686 -0.037243
C166  C     C_R   0.040706 0.499901 0.523775 -0.042774
C167  C     C_R   0.452654 0.998263 0.491056 -0.035479
C168  C     C_R   0.547502 0.001109 0.507724 -0.044404
C169  C     C_R   0.896247 0.433647 0.436808 0.071234
C170  C     C_R   0.105149 0.566342 0.555618 0.055393
C171  C     C_R   0.105341 0.433330 0.554601 0.051884
C172  C     C_R   0.896101 0.566681 0.437719 0.072538
C173  C     C_R   0.392856 0.936137 0.444888 0.079465
C174  C     C_R   0.607558 0.063638 0.553052 0.056732
C175  C     C_R   0.629003 0.940991 0.490735 0.047029
C176  C     C_R   0.371195 0.058494 0.508061 0.051687
C177  C     C_R   0.844778 0.434571 0.438616 -0.097496
C178  C     C_R   0.155649 0.565299 0.557424 -0.113025
C179  C     C_R   0.155759 0.434593 0.556864 -0.103137
C180  C     C_R   0.844703 0.565536 0.439075 -0.097897
C181  C     C_R   0.342197 0.935448 0.445022 -0.104196
C182  C     C_R   0.658211 0.064365 0.552967 -0.114726
C183  C     C_R   0.669998 0.938462 0.516758 -0.104668
C184  C     C_R   0.330302 0.061316 0.481873 -0.119885
C185  C     C_R   0.821708 0.500000 0.434673 -0.229983
C186  C     C_R   0.178146 0.499993 0.562972 -0.258787
C187  C     C_R   0.315936 0.999861 0.451545 -0.232040
C188  C     C_R   0.684515 0.000061 0.546455 -0.278415
H1    H     H_    0.033152 0.250076 0.523316 0.150130
H2    H     H_    0.968507 0.749938 0.467655 0.150639
H3    H     H_    0.969171 0.250281 0.463353 0.151193
H4    H     H_    0.032440 0.749703 0.527718 0.149708
H5    H     H_    0.593403 0.781037 0.358267 0.146256
H6    H     H_    0.406411 0.217869 0.641556 0.147606
H7    H     H_    0.509489 0.777210 0.347057 0.164280
H8    H     H_    0.490497 0.221954 0.652203 0.163721
H9    H     H_    0.782355 0.499904 0.437065 0.222505
H10   H     H_    0.216699 0.500082 0.563405 0.212305
H11   H     H_    0.281204 0.000744 0.439731 0.227437
H12   H     H_    0.719283 0.999283 0.558167 0.197455
H13   H     H_    0.084259 0.317394 0.580735 0.198370
H14   H     H_    0.916428 0.682658 0.411633 0.191285
H15   H     H_    0.916616 0.317986 0.408955 0.190914
H16   H     H_    0.083958 0.681923 0.583689 0.198316
H17   H     H_    0.650901 0.842578 0.407676 0.168591
H18   H     H_    0.348965 0.156353 0.592114 0.168284
H19   H     H_    0.422580 0.832099 0.378192 0.182394
H20   H     H_    0.577626 0.167502 0.620186 0.190279
H21   H     H_    0.572556 0.335649 0.094333 0.188169
H22   H     H_    0.427189 0.657211 0.906574 0.191914
H23   H     H_    0.425341 0.345992 0.906340 0.189078
H24   H     H_    0.571484 0.666346 0.094607 0.185910
H25   H     H_    0.072421 0.835443 0.094317 0.187993
H26   H     H_    0.927339 0.157390 0.906472 0.193436
H27   H     H_    0.927830 0.841579 0.906382 0.190771
H28   H     H_    0.075643 0.153016 0.093251 0.191699
H29   H     H_    0.626260 0.319189 0.168352 0.153779
H30   H     H_    0.377624 0.685288 0.831306 0.151946
H31   H     H_    0.370625 0.333564 0.836950 0.143897
H32   H     H_    0.624991 0.683656 0.169118 0.144625
H33   H     H_    0.126035 0.818771 0.168471 0.150480
H34   H     H_    0.877884 0.185830 0.831044 0.147382
H35   H     H_    0.878211 0.813345 0.830886 0.146733
H36   H     H_    0.130774 0.164310 0.161814 0.148240
H37   H     H_    0.848532 0.260945 0.766418 0.175595
H38   H     H_    0.189702 0.857863 0.200417 0.174766
H39   H     H_    0.195822 0.134252 0.188767 0.175814
H40   H     H_    0.848297 0.738134 0.766872 0.175467
H41   H     H_    0.348410 0.760431 0.766668 0.177102
H42   H     H_    0.689967 0.358282 0.200209 0.177197
H43   H     H_    0.688150 0.643927 0.201516 0.177433
H44   H     H_    0.305567 0.363746 0.809968 0.175632
O1    O     O_R   0.746490 0.236330 0.638080 -0.621553
O2    O     O_R   0.253510 0.763670 0.361920 -0.610276
O3    O     O_R   0.253510 0.236330 0.361920 -0.607560
O4    O     O_R   0.746490 0.763670 0.638080 -0.616177
O5    O     O_R   0.246490 0.736330 0.638080 -0.610710
O6    O     O_R   0.753510 0.263670 0.361920 -0.608009
O7    O     O_R   0.753510 0.736330 0.361920 -0.627976
O8    O     O_R   0.246490 0.263670 0.638080 -0.623001
O9    O     O_R   0.674170 0.186160 0.516270 -0.625174
O10   O     O_R   0.325830 0.813840 0.483730 -0.599381
O11   O     O_R   0.325830 0.186160 0.483730 -0.631137
O12   O     O_R   0.674170 0.813840 0.516270 -0.621791
O13   O     O_R   0.174170 0.686160 0.516270 -0.640404
O14   O     O_R   0.825830 0.313840 0.483730 -0.614828
O15   O     O_R   0.825830 0.686160 0.483730 -0.616101
O16   O     O_R   0.174170 0.313840 0.516270 -0.648599
O17   O     O_R   0.739960 0.127620 0.525000 -0.625507
O18   O     O_R   0.260040 0.872380 0.475000 -0.601672
O19   O     O_R   0.260040 0.127620 0.475000 -0.599362
O20   O     O_R   0.739960 0.872380 0.525000 -0.632521
O21   O     O_R   0.239960 0.627620 0.525000 -0.617126
O22   O     O_R   0.760040 0.372380 0.475000 -0.599525
O23   O     O_R   0.760040 0.627620 0.475000 -0.599668
O24   O     O_R   0.239960 0.372380 0.525000 -0.596136
O25   O     O_R   0.680700 0.294870 0.629350 -0.578244
O26   O     O_R   0.319300 0.705130 0.370650 -0.581741
O27   O     O_R   0.319300 0.294870 0.370650 -0.570412
O28   O     O_R   0.680700 0.705130 0.629350 -0.566154
O29   O     O_R   0.180700 0.794870 0.629350 -0.581539
O30   O     O_R   0.819300 0.205130 0.370650 -0.582879
O31   O     O_R   0.819300 0.794870 0.370650 -0.589475
O32   O     O_R   0.180700 0.205130 0.629350 -0.586213
O33   O     O_R   0.062020 0.072840 0.007170 -0.637074
O34   O     O_R   0.937980 0.927160 0.992830 -0.638998
O35   O     O_R   0.937980 0.072840 0.992830 -0.638394
O36   O     O_R   0.062020 0.927160 0.007170 -0.632842
O37   O     O_R   0.562020 0.572840 0.007170 -0.628988
O38   O     O_R   0.437980 0.427160 0.992830 -0.639257
O39   O     O_R   0.437980 0.572840 0.992830 -0.639624
O40   O     O_R   0.562020 0.427160 0.007170 -0.631409
O41   O     O_R   0.947860 0.073950 0.109290 -0.566205
O42   O     O_R   0.052140 0.926050 0.890710 -0.569769
O43   O     O_R   0.052140 0.073950 0.890710 -0.567998
O44   O     O_R   0.947860 0.926050 0.109290 -0.567191
O45   O     O_R   0.447860 0.573950 0.109290 -0.566611
O46   O     O_R   0.552140 0.426050 0.890710 -0.567209
O47   O     O_R   0.552140 0.573950 0.890710 -0.568894
O48   O     O_R   0.447860 0.426050 0.109290 -0.569651
Zn1   Zn    Zn3+2 0.792340 0.208750 0.507670 1.015836
Zn2   Zn    Zn3+2 0.207660 0.791250 0.492330 1.040721
Zn3   Zn    Zn3+2 0.207660 0.208750 0.492330 1.039888
Zn4   Zn    Zn3+2 0.792340 0.791250 0.507670 1.014607
Zn5   Zn    Zn3+2 0.292340 0.708750 0.507670 1.049899
Zn6   Zn    Zn3+2 0.707660 0.291250 0.492330 1.056455
Zn7   Zn    Zn3+2 0.707660 0.708750 0.492330 1.056010
Zn8   Zn    Zn3+2 0.292340 0.291250 0.507670 1.047875
Zn9   Zn    Zn3+2 0.505960 0.500000 0.080520 1.026401
Zn10  Zn    Zn3+2 0.494040 0.500000 0.919480 1.013950
Zn11  Zn    Zn3+2 0.005960 1.000000 0.080520 1.017127
Zn12  Zn    Zn3+2 0.994040 1.000000 0.919480 1.010610
Br1   Br    Br    0.574572 0.289655 0.784053 -0.532685
Br2   Br    Br    0.428828 0.700946 0.221181 -0.532346
Br3   Br    Br    0.428907 0.298329 0.219821 -0.482210
Br4   Br    Br    0.574379 0.709951 0.783785 -0.482980
Br5   Br    Br    0.074591 0.789737 0.783963 -0.513874
Br6   Br    Br    0.928812 0.200817 0.221285 -0.518066
Br7   Br    Br    0.928848 0.799142 0.221114 -0.520745
Br8   Br    Br    0.071135 0.202195 0.780634 -0.508084
Br9   Br    Br    0.816748 0.346927 0.660466 -0.497460
Br10  Br    Br    0.257971 0.896300 0.276718 -0.453986
Br11  Br    Br    0.260332 0.103718 0.272722 -0.439527
Br12  Br    Br    0.815877 0.652501 0.661103 -0.500439
Br13  Br    Br    0.317134 0.846087 0.660054 -0.517716
Br14  Br    Br    0.758244 0.396452 0.276653 -0.446404
Br15  Br    Br    0.756414 0.604127 0.277061 -0.445389
Br16  Br    Br    0.240276 0.395939 0.727851 -0.503714

loop_
_geom_bond_atom_site_label_1
_geom_bond_atom_site_label_2
_ccdc_geom_bond_type
C135  O35   A    
C154  H3    S    
C85   C182  S    
C4    O4    A    
C9    C169  A    
C34   C42   A    
C181  C187  A    
C6    O6    A    
C27   C99   A    
C170  C178  A    
C175  C183  A    
C42   C109  A    
C24   C96   A    
C149  H8    S    
C118  Br10  S    
C3    O3    A    
C1    O1    A    
C8    O32   A    
C147  C155  A    
O11   Zn8   S    
C88   O20   A    
C143  C151  A    
C90   C177  S    
C4    O28   A    
C5    O29   A    
C82   C98   A    
C76   C84   A    
C126  H38   S    
C73   C81   A    
C161  C163  A    
C162  C164  A    
O22   Zn6   S    
C84   C100  A    
C140  O46   A    
C57   C65   A    
C137  O37   A    
C37   C114  A    
C27   C35   A    
C10   C171  A    
C21   C29   A    
O3    Zn3   S    
C81   C121  A    
C23   C31   A    
C24   C32   A    
O10   Zn5   S    
O38   Zn10  S    
O15   Zn4   S    
C146  C154  A    
C86   O10   A    
C63   Br3   S    
C64   Br4   S    
C113  H33   S    
C5    O5    A    
C63   C71   A    
C36   C44   A    
C103  H23   S    
C12   C174  A    
C138  O38   A    
C176  C184  A    
O7    Zn7   S    
C121  Br13  S    
C48   C96   A    
C138  O48   A    
C139  O45   A    
C15   H15   S    
C133  O33   A    
C52   C100  A    
O48   Zn9   S    
C148  C162  A    
C183  C188  A    
C108  C116  A    
C21   C93   A    
C127  H39   S    
C3    O27   A    
O25   Zn6   S    
C62   Br2   S    
C89   O13   A    
O27   Zn8   S    
C49   C97   A    
C21   C42   A    
C40   C115  A    
C107  H27   S    
C51   C107  A    
O33   Zn11  S    
O32   Zn3   S    
O34   Zn12  S    
O41   Zn11  S    
C185  H9    S    
C16   H16   S    
O42   Zn12  S    
C82   C122  A    
C161  C165  A    
C17   C175  A    
C18   C176  A    
O1    Zn1   S    
C85   O17   A    
C29   C125  A    
C69   C77   A    
C31   C127  A    
C45   C93   A    
C174  C182  A    
C71   C79   A    
C92   O16   A    
C179  C186  A    
C87   O19   A    
C68   Br8   S    
C62   C70   A    
C11   C176  A    
C91   O23   A    
C17   C144  A    
C151  H6    S    
C105  C113  A    
O35   Zn12  S    
C78   C118  A    
C78   C94   A    
O43   Zn12  S    
C149  C151  A    
C25   C38   A    
O30   Zn1   S    
O45   Zn9   S    
C188  H12   S    
C66   C74   A    
C8    C76   S    
C49   C57   A    
C124  C132  A    
O14   Zn1   S    
C52   C60   A    
C59   C67   A    
C53   C61   A    
C141  C159  A    
C20   C174  A    
C23   C95   A    
C55   C63   A    
C86   C181  S    
C56   C64   A    
C7    O31   A    
C35   C43   A    
C10   C166  A    
C156  H1    S    
C90   O22   A    
C45   C53   A    
C22   C94   A    
C171  C179  A    
C111  H31   S    
C169  C177  A    
C8    O8    A    
C106  H26   S    
C50   C98   A    
C65   Br5   S    
C104  C112  A    
O19   Zn3   S    
C145  C163  A    
C101  H21   S    
C146  C164  A    
C14   C147  A    
C66   Br6   S    
O31   Zn4   S    
C16   C145  A    
C135  O41   A    
C178  C186  A    
O37   Zn9   S    
O40   Zn9   S    
C54   C139  S    
C46   C94   A    
C27   C40   A    
C128  H40   S    
C91   C180  S    
C112  H32   S    
C6    O30   A    
C182  C188  A    
C89   C178  S    
C60   C68   A    
C25   C97   A    
C124  Br16  S    
C67   C75   A    
C104  H24   S    
C29   C37   A    
C131  H43   S    
C24   C43   A    
C137  O47   A    
C22   C30   A    
C67   Br7   S    
C20   C141  A    
C15   C146  A    
C58   C135  S    
C68   C76   A    
C59   C134  S    
C184  C187  A    
C136  O36   A    
C119  Br11  S    
C32   C128  A    
C17   H17   S    
C72   C80   A    
C56   C137  S    
C14   H14   S    
C5    C73   S    
C150  H7    S    
C109  H29   S    
C13   C171  A    
C122  Br14  S    
C117  C125  A    
C25   C33   A    
C119  C127  A    
C11   C167  A    
C134  O34   A    
C133  O43   A    
O4    Zn4   S    
O5    Zn5   S    
C157  C167  A    
C80   C120  A    
C158  C168  A    
O17   Zn1   S    
O26   Zn5   S    
C115  H35   S    
C164  C165  A    
C22   C41   A    
C130  H42   S    
C101  C109  A    
O23   Zn7   S    
C177  C185  A    
O24   Zn8   S    
C103  C111  A    
C34   C130  A    
C162  C166  A    
O44   Zn11  S    
C2    O2    A    
O2    Zn2   S    
C79   C119  A    
C153  C155  A    
C154  C156  A    
C172  C180  A    
C173  C181  A    
C157  C159  A    
C83   C99   A    
C158  C160  A    
C74   C82   A    
C125  H37   S    
C6    C74   S    
C1    O25   A    
O46   Zn10  S    
C91   O15   A    
C47   C103  A    
C50   C58   A    
O8    Zn8   S    
C163  C166  A    
C147  C161  A    
C38   C113  A    
C49   C105  A    
C54   C62   A    
C28   C39   A    
C1    C69   S    
C23   C44   A    
C187  H11   S    
C116  H36   S    
C3    C71   S    
C19   C173  A    
C79   C95   A    
C92   C179  S    
O47   Zn10  S    
C46   C54   A    
C85   O9    A    
C114  H34   S    
O36   Zn11  S    
C108  H28   S    
C45   C101  A    
C92   O24   A    
C19   C142  A    
C61   Br1   S    
C102  C110  A    
C35   C131  A    
C4    C72   S    
C33   C129  A    
C18   C143  A    
C36   C132  A    
C123  C131  A    
C136  O42   A    
C121  C129  A    
C88   O12   A    
C120  C128  A    
C26   C37   A    
C10   C170  A    
C33   C41   A    
C142  C150  A    
C9    C165  A    
C75   C83   A    
C90   O14   A    
C77   C93   A    
C44   C111  A    
C16   C170  A    
C28   C36   A    
C144  C152  A    
C39   C116  A    
C117  Br9   S    
C50   C106  A    
C186  H10   S    
C9    C172  A    
C148  C156  A    
C83   C123  A    
C2    C70   S    
C60   C133  S    
C120  Br12  S    
O16   Zn3   S    
C86   O18   A    
C30   C126  A    
C70   C78   A    
C53   C140  S    
C134  O44   A    
C141  C149  A    
C46   C102  A    
C55   C138  S    
C152  H5    S    
C106  C114  A    
C155  H2    S    
C77   C117  A    
O20   Zn4   S    
O21   Zn5   S    
C48   C104  A    
C129  H41   S    
C65   C73   A    
C159  C168  A    
C15   C169  A    
C123  Br15  S    
C160  C167  A    
C26   C34   A    
C31   C39   A    
C57   C136  S    
O9    Zn6   S    
C80   C96   A    
O39   Zn10  S    
O6    Zn6   S    
C145  C153  A    
C28   C100  A    
C32   C40   A    
C89   O21   A    
C19   H19   S    
O18   Zn2   S    
C132  H44   S    
C58   C66   A    
C143  C157  A    
C51   C99   A    
C11   C173  A    
C105  H25   S    
C14   C172  A    
C87   C184  S    
C102  H22   S    
C88   C183  S    
C7    C75   S    
C139  O39   A    
C140  O40   A    
C87   O11   A    
C107  C115  A    
C26   C98   A    
C12   C175  A    
C2    O26   A    
C7    O7    A    
C41   C110  A    
C150  C152  A    
C51   C59   A    
C43   C112  A    
C20   H20   S    
C144  C158  A    
C47   C55   A    
C61   C69   A    
C48   C56   A    
C142  C160  A    
C12   C168  A    
C84   C124  A    
C13   C148  A    
C18   H18   S    
C81   C97   A    
C13   H13   S    
C64   C72   A    
C110  H30   S    
O28   Zn7   S    
C180  C185  A    
O29   Zn2   S    
C52   C108  A    
O12   Zn7   S    
O13   Zn2   S    
C47   C95   A    
C118  C126  A    
C30   C38   A    
C122  C130  A    
C153  H4    S    
