data_str_m3_o10_o29_f0_pcu.sym.36
_audit_creation_date              2012-12-10T16:59:20-0500
_audit_creation_method            fapswitch 2.2
_symmetry_space_group_name_H-M    P1
_symmetry_Int_Tables_number       1
_space_group_crystal_system       triclinic
_cell_length_a                    7.800637
_cell_length_b                    8.539885
_cell_length_c                    27.651592
_cell_angle_alpha                 91.942522
_cell_angle_beta                  85.013933
_cell_angle_gamma                 93.90503
_cell_volume                      1830.09686792

loop_
_atom_site_label
_atom_site_type_symbol
_atom_type_description
_atom_site_fract_x
_atom_site_fract_y
_atom_site_fract_z
_atom_type_partial_charge
C1    C     C_R   0.545809 0.794649 0.498770 0.948763
C2    C     C_R   0.373213 0.583140 0.131273 -0.014147
C3    C     C_R   0.500209 0.490934 0.646170 -0.104514
C4    C     C_R   0.495835 0.498454 0.354284 -0.083836
C5    C     C_R   0.377396 0.584109 0.029126 0.042331
C6    C     C_R   0.571098 0.363763 0.972155 0.042790
C7    C     C_R   0.581161 0.373889 0.023018 0.043207
C8    C     C_R   0.388825 0.590162 0.977886 0.043343
C9    C     C_R   0.479623 0.480604 0.051369 0.066814
C10   C     C_R   0.481007 0.476430 0.949697 0.067885
C11   C     C_R   0.266508 0.677859 0.059063 -0.215534
C12   C     C_R   0.454188 0.205348 0.501197 0.946824
C13   C     C_R   0.647686 0.244231 0.942820 -0.221725
C14   C     C_R   0.264432 0.676917 0.109251 -0.145874
C15   C     C_R   0.644550 0.241390 0.892715 -0.143577
C16   C     C_R   0.500638 0.498845 0.593762 0.867020
C17   C     C_R   0.498921 0.499673 0.406406 0.862073
C18   C     C_R   0.313504 0.708026 0.953726 -0.220911
C19   C     C_R   0.691738 0.282600 0.046567 -0.218026
C20   C     C_2   0.569838 0.958364 0.497987 -0.382916
C21   C     C_2   0.430154 0.041630 0.501928 -0.382510
C22   C     C_R   0.412410 0.592426 0.824871 0.492923
C23   C     C_R   0.483813 0.475812 0.898485 -0.054430
C24   C     C_R   0.591926 0.397880 0.175459 0.487666
C25   C     C_R   0.566628 0.359411 0.819605 0.476308
C26   C     C_R   0.376841 0.585215 0.181703 0.491492
C27   C     C_R   0.353940 0.410077 0.723354 0.180677
C28   C     C_R   0.592863 0.612368 0.277060 0.193335
C29   C     C_R   0.356794 0.420375 0.672871 -0.229196
C30   C     C_R   0.599585 0.608922 0.327246 -0.263773
C31   C     C_R   0.642394 0.553075 0.669379 -0.248918
C32   C     C_R   0.386444 0.388349 0.331798 -0.254308
C33   C     C_R   0.641611 0.549492 0.719715 0.190657
C34   C     C_R   0.480942 0.484439 0.102503 -0.056244
C35   C     C_R   0.381925 0.384800 0.281487 0.181844
C36   C     C_R   0.496800 0.477535 0.746624 0.241950
C37   C     C_R   0.486333 0.497375 0.254021 0.266096
C38   C     C_3   0.951826 0.304268 0.420256 -0.158943
C39   C     C_3   0.049313 0.696260 0.579666 -0.159909
C40   C     C_3   0.795273 0.625152 0.743638 -0.418739
C41   C     C_3   0.793976 0.803886 0.744454 -0.790912
C42   C     C_3   0.266390 0.259305 0.258271 -0.413707
C43   C     C_3   0.076813 0.293563 0.267881 -0.796001
C44   C     C_3   0.696255 0.742015 0.249384 -0.442151
C45   C     C_R   0.404983 0.593379 0.875535 -0.017907
C46   C     C_3   0.884182 0.704712 0.239201 -0.762761
C47   C     C_3   0.201740 0.330871 0.753671 -0.398260
C48   C     C_3   0.066255 0.239003 0.725181 -0.847515
C49   C     C_R   0.590565 0.390136 0.124933 -0.017635
C50   C     C_R   0.322148 0.709646 0.903446 -0.145929
C51   C     C_R   0.696560 0.291229 0.096616 -0.143798
C52   C     C_R   0.565919 0.357935 0.870143 -0.015089
H1    H     H_    0.752479 0.607903 0.648377 0.158313
H2    H     H_    0.707484 0.148527 0.957650 0.143454
H3    H     H_    0.251464 0.803991 0.972687 0.142633
H4    H     H_    0.780499 0.206680 0.027131 0.141691
H5    H     H_    0.701654 0.009747 0.494179 0.195536
H6    H     H_    0.298338 0.990249 0.505730 0.195286
H7    H     H_    0.951160 0.410690 0.398159 0.157409
H8    H     H_    0.820968 0.247310 0.427476 0.180404
H9    H     H_    0.028845 0.218532 0.398398 0.124957
H10   H     H_    0.179306 0.754592 0.572116 0.183921
H11   H     H_    0.052304 0.590002 0.601700 0.146369
H12   H     H_    0.307697 0.302732 0.353432 0.152001
H13   H     H_    0.971789 0.781062 0.601806 0.128345
H14   H     H_    0.907041 0.856129 0.762483 0.257679
H15   H     H_    0.801422 0.847765 0.706920 0.248477
H16   H     H_    0.674636 0.842247 0.765002 0.297249
H17   H     H_    0.798382 0.586653 0.781429 0.221325
H18   H     H_    0.916392 0.589365 0.723402 0.209949
H19   H     H_    0.037682 0.297275 0.307444 0.234947
H20   H     H_    0.054600 0.407720 0.252368 0.286763
H21   H     H_    0.995428 0.199912 0.250437 0.272229
H22   H     H_    0.297069 0.248848 0.218426 0.218439
H23   H     H_    0.263146 0.802689 0.886537 0.187490
H24   H     H_    0.286746 0.143276 0.273119 0.215315
H25   H     H_    0.942197 0.684875 0.273596 0.266676
H26   H     H_    0.894106 0.598798 0.214976 0.278916
H27   H     H_    0.957403 0.805045 0.220754 0.267030
H28   H     H_    0.643265 0.762616 0.214394 0.225412
H29   H     H_    0.689280 0.854266 0.270834 0.213754
H30   H     H_    0.998733 0.319136 0.703631 0.253504
H31   H     H_    0.127088 0.148417 0.700894 0.257986
H32   H     H_    0.968601 0.178594 0.750980 0.290888
H33   H     H_    0.251754 0.246585 0.777887 0.227622
H34   H     H_    0.783833 0.219508 0.113037 0.184750
H35   H     H_    0.136646 0.421328 0.777028 0.223828
H36   H     H_    0.681803 0.695328 0.345474 0.152358
H37   H     H_    0.249213 0.372448 0.653694 0.169164
H38   H     H_    0.177678 0.751033 0.130733 0.180864
H39   H     H_    0.705363 0.147763 0.871698 0.186874
H40   H     H_    0.176278 0.750584 0.044778 0.141853
N1    N     N_R   0.492113 0.476461 0.798280 -0.355150
N2    N     N_R   0.485450 0.493886 0.202472 -0.349807
N3    N     N_2   0.950320 0.457960 0.486880 0.193940
N4    N     N_2   0.049680 0.542040 0.513120 0.193517
O1    O     O_R   0.389250 0.738570 0.503220 -0.632643
O2    O     O_2   0.697340 0.309628 0.197611 -0.592177
O3    O     O_2   0.274989 0.679112 0.209902 -0.600744
O4    O     O_2   0.641612 0.245798 0.791839 -0.585920
O5    O     O_3   0.030221 0.338983 0.463400 -0.524551
O6    O     O_3   0.969604 0.660657 0.536767 -0.524918
O7    O     O_R   0.610750 0.261430 0.496780 -0.632556
O8    O     O_R   0.678390 0.711630 0.494810 -0.574943
O9    O     O_R   0.321610 0.288370 0.505190 -0.576053
O10   O     O_R   0.355440 0.513440 0.575450 -0.663631
O11   O     O_R   0.644560 0.486560 0.424550 -0.659269
O12   O     O_R   0.644590 0.486500 0.567040 -0.587625
O13   O     O_R   0.355410 0.513500 0.432960 -0.584721
O14   O     O_2   0.340283 0.705753 0.802193 -0.577793
Zn1   Zn    Zn3+2 0.306940 0.517990 0.505620 1.024039
Zn2   Zn    Zn3+2 0.693060 0.482010 0.494380 1.025043

loop_
_geom_bond_atom_site_label_1
_geom_bond_atom_site_label_2
_ccdc_geom_bond_type
C19   H4    S    
C43   H21   S    
C26   N2    A    
C43   H20   S    
C23   C45   A    
N4    O6    S    
C27   C29   A    
O11   Zn2   S    
C6    C7    A    
N3    N4    D    
C29   H37   S    
C41   H15   S    
C25   N1    A    
C40   H18   S    
C24   O2    S    
C47   H33   S    
C35   C37   A    
C5    C11   A    
C38   O5    S    
N3    Zn2   S    
C17   O11   A    
C46   H27   S    
O1    Zn1   S    
C11   C14   A    
C33   C36   A    
C3    C29   A    
C35   C42   S    
C14   H38   S    
C11   H40   S    
C22   O14   S    
C31   C33   A    
C16   O10   A    
C26   O3    S    
C38   H9    S    
C2    C34   A    
O9    Zn1   S    
C39   H13   S    
C36   N1    S    
C51   H34   S    
C44   C46   S    
C41   H16   S    
O10   Zn1   S    
N4    Zn1   S    
C42   H22   S    
C33   C40   S    
C40   H17   S    
C32   C35   A    
C44   H28   S    
C32   H12   S    
C12   O7    A    
C44   H29   S    
C1    O1    A    
O8    Zn2   S    
C49   C51   A    
C12   C21   S    
C28   C44   S    
C8    C18   A    
O12   Zn2   S    
O7    Zn2   S    
C47   H35   S    
C5    C9    A    
C24   N2    A    
C5    C8    A    
C48   H32   S    
C25   O4    S    
C47   C48   S    
C2    C26   A    
C15   C52   A    
C31   H1    S    
C3    C31   A    
C1    O8    A    
C4    C32   A    
C18   H3    S    
C38   H8    S    
C4    C17   S    
C40   C41   S    
C7    C19   A    
C13   C15   A    
C9    C34   A    
C10   C23   A    
C22   N1    A    
C42   C43   S    
C30   H36   S    
C18   C50   A    
C39   O6    S    
C46   H26   S    
C13   H2    S    
C27   C47   S    
C24   C49   A    
C7    C9    A    
C39   H10   S    
C34   C49   A    
C43   H19   S    
C1    C20   S    
C17   O13   A    
C6    C10   A    
C46   H25   S    
C41   H14   S    
C27   C36   A    
C39   H11   S    
C42   H24   S    
C48   H31   S    
O13   Zn1   S    
C25   C52   A    
C21   H6    S    
C50   H23   S    
C6    C13   A    
C45   C50   A    
C23   C52   A    
C12   O9    A    
C28   C37   A    
C28   C30   A    
C48   H30   S    
C37   N2    S    
C2    C14   A    
C16   O12   A    
C15   H39   S    
C38   H7    S    
C19   C51   A    
C22   C45   A    
C20   C21   D    
C8    C10   A    
C20   H5    S    
C4    C30   A    
C3    C16   S    
N3    O5    S    
