data_str_m3_o1_o25_f0_pcu.sym.47
_audit_creation_date              2012-12-10T18:52:17-0500
_audit_creation_method            fapswitch 2.2
_symmetry_space_group_name_H-M    P1
_symmetry_Int_Tables_number       1
_space_group_crystal_system       triclinic
_cell_length_a                    15.675361
_cell_length_b                    10.664388
_cell_length_c                    9.95723
_cell_angle_alpha                 89.582542
_cell_angle_beta                  90.499526
_cell_angle_gamma                 89.845302
_cell_volume                      1664.41774007

loop_
_atom_site_label
_atom_site_type_symbol
_atom_type_description
_atom_site_fract_x
_atom_site_fract_y
_atom_site_fract_z
_atom_type_partial_charge
C1    C     C_R   0.503165 0.260643 0.500187 0.933542
C2    C     C_R   0.426535 0.478439 0.070605 0.299375
C3    C     C_R   0.338214 0.498119 0.499478 0.921422
C4    C     C_R   0.661783 0.500717 0.500445 0.913871
C5    C     C_3   0.972561 0.381651 0.522616 0.537399
C6    C     C_3   0.027240 0.612123 0.475980 0.473039
C7    C     C_3   0.028059 0.419589 0.402210 -0.252696
C8    C     C_3   0.971809 0.574141 0.596377 -0.288340
C9    C     C_1   0.249292 0.496887 0.498772 -0.123334
C10   C     C_1   0.750654 0.499433 0.500741 -0.080636
C11   C     C_3   0.028937 0.456666 0.620474 -0.276807
C12   C     C_R   0.496781 0.739489 0.499943 0.941937
C13   C     C_3   0.970907 0.537056 0.378138 -0.314785
C14   C     C_3   0.083102 0.496613 0.499672 0.015236
C15   C     C_3   0.916778 0.497184 0.498944 0.003867
C16   C     C_1   0.173946 0.496533 0.499392 0.032693
C17   C     C_1   0.825970 0.498170 0.499628 0.048158
C18   C     C_R   0.561942 0.061139 0.420285 0.400749
C19   C     C_R   0.439507 0.939444 0.582522 0.484441
C20   C     C_3   0.660910 0.689282 0.129739 0.128239
C21   C     C_3   0.738980 0.723192 0.213697 -0.763571
C22   C     C_3   0.338422 0.311328 0.870763 0.108868
C23   C     C_R   0.556084 0.932293 0.420155 -0.335945
C24   C     C_3   0.260525 0.277814 0.786225 -0.712963
C25   C     C_3   0.704709 0.438145 0.882728 0.178246
C26   C     C_3   0.796588 0.483236 0.876103 -0.755516
C27   C     C_3   0.295434 0.562625 0.117107 0.184351
C28   C     C_3   0.203452 0.517810 0.122550 -0.760023
C29   C     C_R   0.444719 0.068224 0.581127 -0.323206
C30   C     C_R   0.495850 0.872268 0.500206 -0.207486
C31   C     C_R   0.504581 0.128083 0.500647 -0.207781
C32   C     C_R   0.572158 0.529193 0.072721 0.354799
C33   C     C_R   0.427829 0.470857 0.927277 0.344114
C34   C     C_R   0.573455 0.521645 0.929400 0.301743
H1    H     H_    0.052605 0.355393 0.324144 0.193182
H2    H     H_    0.264704 0.725209 0.652880 0.400598
H3    H     H_    0.605329 0.744416 0.165907 0.138503
H4    H     H_    0.674093 0.716446 0.023936 0.182557
H5    H     H_    0.793076 0.659971 0.189732 0.243400
H6    H     H_    0.758278 0.821065 0.191508 0.256851
H7    H     H_    0.724333 0.714760 0.322193 0.238227
H8    H     H_    0.324683 0.284810 0.976552 0.184929
H9    H     H_    0.393903 0.255463 0.835479 0.142073
H10   H     H_    0.275936 0.284242 0.677866 0.236346
H11   H     H_    0.240055 0.180745 0.809777 0.262921
H12   H     H_    0.947297 0.638368 0.674441 0.189796
H13   H     H_    0.206926 0.342577 0.808240 0.241614
H14   H     H_    0.693773 0.368536 0.801939 0.177179
H15   H     H_    0.696741 0.388405 0.980727 0.180530
H16   H     H_    0.810207 0.547124 0.961115 0.247350
H17   H     H_    0.840879 0.401949 0.882382 0.245263
H18   H     H_    0.807510 0.534487 0.780565 0.247724
H19   H     H_    0.303894 0.612749 0.019429 0.167723
H20   H     H_    0.306112 0.631883 0.198323 0.182533
H21   H     H_    0.191950 0.466589 0.217927 0.253950
H22   H     H_    0.159308 0.599239 0.115719 0.240271
H23   H     H_    0.945666 0.570924 0.279833 0.169216
H24   H     H_    0.190166 0.453996 0.037353 0.247327
H25   H     H_    0.054101 0.422588 0.718742 0.181431
H26   H     H_    0.600114 0.877897 0.360846 0.189808
H27   H     H_    0.400877 0.122842 0.640530 0.190329
H28   H     H_    0.992370 0.050664 0.612592 0.424778
H29   H     H_    0.956688 0.822451 0.320892 0.351432
H30   H     H_    0.569943 0.143034 0.142960 0.335325
N1    N     N_R   0.499980 0.499970 0.857200 -0.174170
N2    N     N_R   0.500020 0.500030 0.142800 -0.175050
O1    O     O_R   0.499990 0.316750 0.614620 -0.646975
O2    O     O_2   0.888813 0.180181 0.430345 -0.194989
O3    O     O_3   0.018004 0.132619 0.588997 -0.499899
O4    O     O_2   0.105962 0.816854 0.570498 -0.225712
O5    O     O_2   0.128039 0.766953 0.333428 -0.292041
O6    O     O_3   0.981400 0.860409 0.402926 -0.486212
O7    O     O_2   0.689273 0.227765 0.413420 -0.246714
O8    O     O_2   0.708207 0.038734 0.280295 -0.287544
O9    O     O_3   0.602586 0.208173 0.191557 -0.531732
O10   O     O_2   0.401062 0.801893 0.800419 -0.314780
O11   O     O_2   0.298349 0.964180 0.733520 -0.297432
O12   O     O_R   0.500010 0.683250 0.385380 -0.646882
O13   O     O_3   0.305778 0.763546 0.589779 -0.537452
O14   O     O_3   0.645925 0.559191 0.141817 -0.550973
O15   O     O_3   0.354013 0.441220 0.858136 -0.564762
O16   O     O_3   0.649137 0.542014 0.862972 -0.584857
O17   O     O_3   0.350795 0.458529 0.137040 -0.584810
O18   O     O_R   0.500000 0.316780 0.385290 -0.552084
O19   O     O_R   0.500000 0.683220 0.614710 -0.549304
O20   O     O_R   0.376780 0.499970 0.614640 -0.542429
O21   O     O_R   0.623220 0.500030 0.385360 -0.524100
O22   O     O_R   0.376780 0.500000 0.385310 -0.582571
O23   O     O_R   0.623220 0.500000 0.614690 -0.592090
O24   O     O_2   0.874454 0.228374 0.669952 -0.315942
S1    S     S_3+6 0.934609 0.226905 0.553289 0.070671
S2    S     S_3+6 0.064303 0.767453 0.445268 0.057880
S3    S     S_3+6 0.644264 0.133903 0.326588 0.066219
S4    S     S_3+6 0.359875 0.867726 0.682535 0.045776
Zn1   Zn    Zn3+2 0.500000 0.499980 0.653120 1.053151
Zn2   Zn    Zn3+2 0.500000 0.500020 0.346880 1.061646

loop_
_geom_bond_atom_site_label_1
_geom_bond_atom_site_label_2
_ccdc_geom_bond_type
O22   Zn2   S    
O7    S3    D    
C28   H22   S    
C27   H20   S    
C33   N1    A    
C4    O21   A    
C1    O18   A    
C12   O19   A    
C24   H11   S    
C32   N2    A    
C9    C16   T    
C5    C11   S    
C26   H16   S    
O6    S2    S    
C11   C14   S    
C32   O14   S    
C10   C17   T    
O11   S4    D    
C1    C31   S    
O2    S1    D    
O18   Zn2   S    
O10   S4    D    
C7    C14   S    
O5    S2    D    
O12   Zn2   S    
C12   O12   A    
C3    O20   A    
O1    Zn1   S    
O8    S3    D    
C2    O17   S    
C11   H25   S    
C34   N1    A    
C28   H21   S    
C25   H15   S    
C23   H26   S    
C29   H27   S    
C20   O14   S    
C18   C23   A    
C22   O15   S    
O13   S4    S    
C5    C7    S    
C6    C8    S    
C25   C26   S    
H28   O3    S    
C32   C34   A    
O23   Zn1   S    
C23   C30   A    
C3    C9    S    
C26   H18   S    
C6    C14   S    
C20   H4    S    
C22   H9    S    
C21   H5    S    
C7    C13   S    
O21   Zn2   S    
H29   O6    S    
C25   H14   S    
C5    S1    S    
C19   S4    S    
C21   H7    S    
C2    C33   A    
C8    C15   S    
C13   C15   S    
C25   O16   S    
C24   H10   S    
C14   C16   S    
C4    C10   S    
C19   C29   A    
O9    S3    S    
N2    Zn2   S    
C4    O23   A    
C15   C17   S    
C12   C30   S    
C3    O22   A    
C24   H13   S    
C7    H1    S    
O4    S2    D    
C2    N2    A    
H2    O13   S    
C27   H19   S    
C28   H24   S    
C27   O17   S    
C29   C31   A    
C26   H17   S    
C6    C13   S    
C20   H3    S    
O19   Zn1   S    
O24   S1    D    
C22   H8    S    
C21   H6    S    
C8    C11   S    
C6    S2    S    
C1    O1    A    
H30   O9    S    
C22   C24   S    
C8    H12   S    
C5    C15   S    
O20   Zn1   S    
N1    Zn1   S    
C13   H23   S    
C20   C21   S    
C27   C28   S    
C18   S3    S    
C18   C31   A    
C34   O16   S    
O3    S1    S    
C19   C30   A    
C33   O15   S    
