data_str_m2_o10_o13_f0_pcu.sym.108
_audit_creation_date              2012-12-10T16:42:55-0500
_audit_creation_method            fapswitch 2.2
_symmetry_space_group_name_H-M    P1
_symmetry_Int_Tables_number       1
_space_group_crystal_system       triclinic
_cell_length_a                    7.624884
_cell_length_b                    8.703303
_cell_length_c                    12.973646
_cell_angle_alpha                 84.666145
_cell_angle_beta                  77.944042
_cell_angle_gamma                 103.637339
_cell_volume                      809.015182868

loop_
_atom_site_label
_atom_site_type_symbol
_atom_type_description
_atom_site_fract_x
_atom_site_fract_y
_atom_site_fract_z
_atom_type_partial_charge
C1    C     C_R   0.452026 0.199730 0.503334 0.900983
C2    C     C_R   0.547974 0.800270 0.496666 0.900983
C3    C     C_R   0.464764 0.495954 0.701412 0.825445
C4    C     C_R   0.535236 0.504046 0.298588 0.825445
C5    C     C_R   0.555316 0.507036 0.184060 -0.051483
C6    C     C_R   0.444684 0.492963 0.815940 -0.051483
C7    C     C_R   0.251902 0.459438 0.994312 -0.211140
C8    C     C_R   0.748098 0.540562 0.005688 -0.211140
C9    C     C_R   0.268538 0.463515 0.885231 -0.183131
C10   C     C_R   0.731462 0.536485 0.114769 -0.183131
C11   C     C_R   0.604237 0.518597 0.856503 -0.247594
C12   C     C_R   0.395763 0.481403 0.143497 -0.247594
C13   C     C_R   0.588771 0.514910 0.965291 0.169737
C14   C     C_R   0.411229 0.485090 0.034709 0.169737
C15   C     C_2   0.426588 0.030761 0.504806 -0.349904
C16   C     C_2   0.573411 0.969239 0.495194 -0.349904
Cu1   Cu    Cu3+1 0.686350 0.517570 0.488220 1.008972
Cu2   Cu    Cu3+1 0.313650 0.482430 0.511780 1.008972
H1    H     H_    0.258887 0.458457 0.196314 0.158387
H2    H     H_    0.741113 0.541543 0.803686 0.158387
H3    H     H_    0.856136 0.557232 0.144674 0.168892
H4    H     H_    0.143864 0.442768 0.855326 0.168892
H5    H     H_    0.114985 0.435863 0.046977 0.137348
H6    H     H_    0.885016 0.564137 0.953023 0.137348
H7    H     H_    0.286271 0.956818 0.513774 0.184449
H8    H     H_    0.713729 0.043182 0.486226 0.184449
N1    N     N_2   0.033570 0.455950 0.529530 -0.220800
N2    N     N_2   0.966430 0.544050 0.470470 -0.220800
O1    O     O_R   0.621060 0.286250 0.492350 -0.550597
O2    O     O_R   0.378940 0.713750 0.507650 -0.550597
O3    O     O_R   0.306310 0.256580 0.512240 -0.569755
O4    O     O_R   0.693690 0.743420 0.487760 -0.569754
O5    O     O_R   0.631800 0.512400 0.642670 -0.564775
O6    O     O_R   0.368200 0.487600 0.357330 -0.564775
O7    O     O_R   0.317060 0.482730 0.662570 -0.572545
O8    O     O_R   0.682940 0.517270 0.337430 -0.572545
C17   C     C_2   0.930400 0.330137 0.616389 1.017496
O9    O     O_2   0.018116 0.263553 0.665888 -0.601935
O10   O     O_R   0.738739 0.276216 0.647485 -0.750644
H9    H     H_    0.692308 0.186187 0.710084 0.302595
C18   C     C_2   0.069599 0.669863 0.383611 1.017495
O11   O     O_2   0.981884 0.736447 0.334112 -0.601935
O12   O     O_R   0.261261 0.723784 0.352515 -0.750644
H10   H     H_    0.307692 0.813813 0.289916 0.302595

loop_
_geom_bond_atom_site_label_1
_geom_bond_atom_site_label_2
_ccdc_geom_bond_type
O12   H10   S    
C4    O8    A    
C17   O9    D    
C1    C15   S    
Cu1   O8    S    
C2    C16   S    
C11   C13   A    
C18   O11   D    
C3    O7    A    
C2    O2    A    
C3    C6    S    
C6    C9    A    
C1    O1    A    
Cu1   Cu2   S    
C5    C10   A    
C17   O10   S    
C13   C14   A    
C18   O12   S    
C6    C11   A    
C8    C13   A    
Cu1   O5    S    
N1    C17   S    
C7    H5    S    
C12   H1    S    
C2    O4    A    
C8    H6    S    
C12   C14   A    
Cu2   O6    S    
C10   H3    S    
C16   H8    S    
Cu2   O2    S    
C11   H2    S    
C4    O6    A    
C9    H4    S    
C15   H7    S    
C3    O5    A    
C15   C16   D    
N2    C18   S    
C1    O3    A    
Cu1   O1    S    
C5    C12   A    
C8    C10   A    
Cu2   O7    S    
O10   H9    S    
C7    C9    A    
Cu1   O4    S    
Cu2   O3    S    
Cu1   N2    S    
C7    C14   A    
Cu2   N1    S    
C4    C5    S    
N1    N2    D    
