data_str_m9_o2_o16_f0_sra.sym.42
_audit_creation_date              2012-12-11T16:25:30-0500
_audit_creation_method            fapswitch 2.2
_symmetry_space_group_name_H-M    P1
_symmetry_Int_Tables_number       1
_space_group_crystal_system       triclinic
_cell_length_a                    20.15568
_cell_length_b                    7.274412
_cell_length_c                    13.431957
_cell_angle_alpha                 89.14136
_cell_angle_beta                  103.179197
_cell_angle_gamma                 90.976784
_cell_volume                      1917.12932642

loop_
_atom_site_label
_atom_site_type_symbol
_atom_type_description
_atom_site_fract_x
_atom_site_fract_y
_atom_site_fract_z
_atom_type_partial_charge
O1    O     O_R   0.449520 0.506760 0.599710 -0.539692
O2    O     O_R   0.550480 0.006760 0.400290 -0.534172
O3    O     O_R   0.587930 0.180200 0.595790 -0.535266
O4    O     O_R   0.412070 0.680200 0.404210 -0.535396
C1    C     C_R   0.614426 0.345027 0.617361 0.691336
C2    C     C_R   0.385577 0.843688 0.382664 0.690980
O5    O     O_R   0.452350 0.177380 0.611700 -0.538575
O6    O     O_R   0.547650 0.677380 0.388300 -0.543564
O7    O     O_R   0.413930 0.001760 0.416320 -0.531845
O8    O     O_R   0.586070 0.501760 0.583680 -0.532026
C3    C     C_R   0.436616 0.343728 0.638391 0.696700
C4    C     C_R   0.563372 0.847487 0.361801 0.696146
O9    O     O_3   0.487550 0.337460 0.435880 -0.378114
O10   O     O_3   0.512450 0.837460 0.564120 -0.377885
V1    V     V_3+5 0.502310 0.064670 0.511900 1.449866
V2    V     V_3+5 0.497690 0.564670 0.488100 1.441318
C5    C     C_R   0.615134 0.997223 0.122220 -0.166546
C6    C     C_R   0.385946 0.238213 0.884736 -0.167602
H1    H     H_    0.522516 0.004368 0.174867 0.105441
H2    H     H_    0.478498 0.219951 0.832684 0.105264
H3    H     H_    0.699959 0.042573 0.999680 0.146307
H4    H     H_    0.301370 0.213506 0.008765 0.145098
H5    H     H_    0.592290 0.063788 0.050079 0.114234
H6    H     H_    0.409200 0.183561 0.959894 0.114478
C7    C     C_R   0.602414 0.865352 0.282764 -0.042049
C8    C     C_R   0.397840 0.341945 0.718163 -0.041740
C9    C     C_R   0.928868 0.782435 0.312637 -0.208838
C10   C     C_R   0.070643 0.421950 0.683914 -0.208861
C11   C     C_R   0.894132 0.765565 0.390270 -0.130889
C12   C     C_R   0.105316 0.426155 0.605953 -0.133202
C13   C     C_R   0.824927 0.806095 0.373112 0.135357
C14   C     C_R   0.174893 0.389215 0.625231 0.135746
C15   C     C_R   0.787397 0.851745 0.271782 0.022279
C16   C     C_R   0.212747 0.360217 0.728388 0.023271
C17   C     C_R   0.825335 0.883607 0.194799 0.038349
C18   C     C_R   0.174974 0.341102 0.806514 0.038492
C19   C     C_R   0.714930 0.873486 0.243322 0.072256
C20   C     C_R   0.285404 0.342899 0.757924 0.073964
C21   C     C_R   0.684595 0.953928 0.146774 0.135510
C22   C     C_R   0.316236 0.278333 0.858074 0.135668
C23   C     C_R   0.723336 0.988309 0.074843 -0.197412
C24   C     C_R   0.277706 0.256220 0.931314 -0.194362
C25   C     C_R   0.792117 0.949226 0.097298 -0.187553
C26   C     C_R   0.208660 0.291952 0.906902 -0.188715
C27   C     C_R   0.670591 0.811992 0.304630 -0.194019
C28   C     C_R   0.329410 0.393291 0.693839 -0.194072
C29   C     C_R   0.575057 0.960607 0.192049 -0.179769
C30   C     C_R   0.425746 0.261952 0.813362 -0.179491
C31   C     C_R   0.896107 0.848941 0.216480 -0.069578
C32   C     C_R   0.103903 0.372008 0.783058 -0.069259
H7    H     H_    0.687431 0.721245 0.368857 0.149799
H8    H     H_    0.312098 0.473459 0.625401 0.149406
H9    H     H_    0.982424 0.749207 0.328929 0.114554
H10   H     H_    0.016790 0.452232 0.665915 0.115270
H11   H     H_    0.922348 0.726408 0.466042 0.146157
H12   H     H_    0.076822 0.452747 0.528567 0.146986
H13   H     H_    0.819330 0.974822 0.037596 0.134071
H14   H     H_    0.181624 0.276375 0.967547 0.134557
H15   H     H_    0.098557 0.861595 0.475561 0.114065
H16   H     H_    0.901637 0.309543 0.526357 0.114689
C33   C     C_R   0.234225 0.825078 0.035207 -0.141858
C34   C     C_R   0.765539 0.414686 0.962653 -0.142699
C35   C     C_R   0.291103 0.805939 0.993721 -0.105135
C36   C     C_R   0.708587 0.442178 0.002879 -0.108568
C37   C     C_R   0.356109 0.805728 0.057085 -0.139931
C38   C     C_R   0.643606 0.435852 0.939484 -0.140416
C39   C     C_R   0.364692 0.822174 0.162549 -0.141404
C40   C     C_R   0.635127 0.404512 0.835154 -0.141042
C41   C     C_R   0.307848 0.837901 0.207068 0.069994
C42   C     C_R   0.692049 0.380004 0.791797 0.070212
C43   C     C_R   0.241309 0.840780 0.142059 0.058297
C44   C     C_R   0.758552 0.383609 0.856932 0.059010
C45   C     C_R   0.316371 0.848705 0.314572 -0.164857
C46   C     C_R   0.683664 0.354509 0.685204 -0.164385
C47   C     C_R   0.258304 0.854804 0.357291 0.082692
C48   C     C_R   0.741781 0.339989 0.643176 0.082212
C49   C     C_R   0.191867 0.861022 0.292206 0.083786
C50   C     C_R   0.808191 0.340230 0.708512 0.083818
C51   C     C_R   0.183452 0.857604 0.184552 -0.167428
C52   C     C_R   0.816488 0.358353 0.815587 -0.167481
C53   C     C_R   0.264977 0.850793 0.464542 -0.090343
C54   C     C_R   0.735161 0.328780 0.536209 -0.089554
C55   C     C_R   0.207698 0.851517 0.506344 -0.059819
C56   C     C_R   0.792484 0.320030 0.494845 -0.059003
C57   C     C_R   0.142857 0.859766 0.442726 -0.075495
C58   C     C_R   0.857310 0.317989 0.558797 -0.076650
C59   C     C_R   0.134831 0.866018 0.336863 -0.097598
C60   C     C_R   0.865289 0.326447 0.664499 -0.098979
H17   H     H_    0.184772 0.826440 0.982662 0.111375
H18   H     H_    0.814971 0.418852 0.015240 0.111286
H19   H     H_    0.284718 0.793107 0.911859 0.127966
H20   H     H_    0.714897 0.466742 0.083838 0.128724
H21   H     H_    0.400154 0.792682 0.024375 0.118393
H22   H     H_    0.599506 0.455566 0.971268 0.118599
H23   H     H_    0.416231 0.820743 0.208751 0.086612
H24   H     H_    0.583623 0.401847 0.788788 0.087331
H25   H     H_    0.314339 0.844737 0.517155 0.102086
H26   H     H_    0.685804 0.329366 0.483386 0.103346
H27   H     H_    0.213691 0.846729 0.588520 0.122192
H28   H     H_    0.786532 0.313263 0.412799 0.124096
H29   H     H_    0.083542 0.872766 0.290342 0.080300
H30   H     H_    0.916595 0.323897 0.711288 0.081502
O11   O     O_R   0.913760 0.203480 0.916370 -0.535021
O12   O     O_R   0.086240 0.703480 0.083630 -0.531564
O13   O     O_R   0.047590 0.535230 0.888250 -0.539954
O14   O     O_R   0.952410 0.035230 0.111750 -0.540028
C61   C     C_R   0.064211 0.370650 0.862320 0.678373
C62   C     C_R   0.935961 0.866141 0.137711 0.678364
O15   O     O_R   0.912020 0.532880 0.904260 -0.533269
O16   O     O_R   0.087980 0.032880 0.095740 -0.536866
O17   O     O_R   0.949590 0.708460 0.099750 -0.537711
O18   O     O_R   0.050410 0.208460 0.900250 -0.538412
C63   C     C_R   0.885777 0.364694 0.883502 0.681290
C64   C     C_R   0.114223 0.865233 0.116488 0.680425
O19   O     O_3   0.012370 0.375360 0.064120 -0.375023
O20   O     O_3   0.987630 0.875360 0.935880 -0.374701
V3    V     V_3+5 0.997700 0.648160 0.988110 1.443678
V4    V     V_3+5 0.002300 0.148160 0.011890 1.436000
I1    I     I_    0.793437 0.832859 0.514007 -0.502115
I2    I     I_    0.206720 0.341592 0.486359 -0.501770

loop_
_geom_bond_atom_site_label_1
_geom_bond_atom_site_label_2
_ccdc_geom_bond_type
C38   C40   A    
C35   C37   A    
C9    C11   A    
C54   H26   S    
C61   O18   A    
O1    C3    A    
O2    C4    A    
O16   V4    S    
C2    O7    A    
C43   C51   A    
O15   V3    S    
C21   C23   A    
O5    C3    A    
O13   C61   A    
C40   H24   S    
C46   C48   A    
C6    H6    S    
O11   C63   A    
C56   C58   A    
C58   C60   A    
C27   H7    S    
C28   H8    S    
O20   V3    S    
C41   C43   A    
C5    C21   A    
C1    C46   S    
C33   C35   A    
C6    C22   A    
C34   C36   A    
C59   H29   S    
C10   C32   A    
C26   H14   S    
C37   C39   A    
C17   C31   A    
C13   C15   A    
C41   C45   A    
C17   C25   A    
C7    C29   A    
C16   C18   A    
O15   C63   A    
C38   H22   S    
C33   C43   A    
C22   C24   A    
O6    V2    S    
C20   C22   A    
C55   H27   S    
O14   V4    S    
C39   H23   S    
C45   C47   A    
O13   V3    S    
C24   C26   A    
C14   I2    S    
C11   C13   A    
C53   C55   A    
C33   H17   S    
C51   C64   S    
C31   C62   S    
C49   C51   A    
C57   C59   A    
C56   H28   S    
O4    C2    A    
C48   C54   A    
C10   H10   S    
C47   C53   A    
C11   H11   S    
C3    C8    S    
C12   H12   S    
C15   C19   A    
C44   C52   A    
C39   C41   A    
C36   C38   A    
O4    V2    S    
H15   C57   S    
C42   C46   A    
O18   V4    S    
C25   H13   S    
O6    C4    A    
O19   V4    S    
C50   C52   A    
C34   C44   A    
O1    V2    S    
C5    H5    S    
O2    V1    S    
C47   C49   A    
C13   I1    S    
H2    C30   S    
H3    C23   S    
C55   C57   A    
C54   C56   A    
C32   C61   S    
O12   C64   A    
C18   C26   A    
O11   V4    S    
C36   H20   S    
C19   C27   A    
C7    C27   A    
C18   C32   A    
C2    C45   S    
O12   V3    S    
C50   C60   A    
O16   C64   A    
H16   C58   S    
C16   C20   A    
C23   C25   A    
C5    C29   A    
C48   C50   A    
O3    C1    A    
C6    C30   A    
C60   H30   S    
C9    H9    S    
C8    C30   A    
C62   O17   A    
C4    C7    S    
O17   V3    S    
C10   C12   A    
O7    V1    S    
C1    O8    A    
C19   C21   A    
O8    V2    S    
C12   C14   A    
H4    C24   S    
O14   C62   A    
C34   H18   S    
O5    V1    S    
C37   H21   S    
C15   C17   A    
H1    C29   S    
C20   C28   A    
C8    C28   A    
C52   C63   S    
C49   C59   A    
C40   C42   A    
O9    V2    S    
C35   H19   S    
C53   H25   S    
O10   V1    S    
O3    V1    S    
C42   C44   A    
C9    C31   A    
C14   C16   A    
