data_str_m2_o4_o9_f0_pcu.sym.57
_audit_creation_date              2012-10-26T19:00:12-0400
_audit_creation_method            fapswitch 2.2
_symmetry_space_group_name_H-M    P1
_symmetry_Int_Tables_number       1
_space_group_crystal_system       triclinic
_cell_length_a                    10.825896
_cell_length_b                    10.823175
_cell_length_c                    9.539753
_cell_angle_alpha                 89.963762
_cell_angle_beta                  90.026663
_cell_angle_gamma                 90.203895
_cell_volume                      1117.77084633

loop_
_atom_site_label
_atom_site_type_symbol
_atom_type_description
_atom_site_fract_x
_atom_site_fract_y
_atom_site_fract_z
_atom_type_partial_charge
C1    C     C_R   0.501796 0.262420 0.500000 0.542936
C2    C     C_R   0.840434 0.352531 0.980683 -0.120916
C3    C     C_R   0.771355 0.245516 0.955584 -0.104144
C4    C     C_R   0.262374 0.503149 0.499896 0.543637
C5    C     C_R   0.756820 0.201861 0.818697 -0.100306
C6    C     C_R   0.810487 0.265597 0.706424 -0.056592
C7    C     C_R   0.879418 0.373725 0.730861 0.052892
C8    C     C_R   0.503782 0.063889 0.625465 0.011748
C9    C     C_R   0.512784 0.129523 0.500183 0.005655
C10   C     C_R   0.537711 0.064960 0.375717 -0.169172
C11   C     C_R   0.537198 0.936206 0.375875 -0.170269
C12   C     C_R   0.235008 0.757746 0.053114 -0.099483
C13   C     C_R   0.512250 0.871123 0.500363 0.006012
C14   C     C_R   0.504078 0.936768 0.625861 0.014313
C15   C     C_3   0.408589 0.930747 0.738711 -0.273809
C16   C     C_R   0.501571 0.737776 0.499979 0.542700
C17   C     C_3   0.408452 0.070950 0.738025 -0.269891
C18   C     C_R   0.600154 0.542556 0.073400 0.160835
C19   C     C_R   0.407207 0.445391 0.074448 -0.003960
C20   C     C_R   0.407104 0.445518 0.925538 -0.016263
C21   C     C_R   0.600386 0.541889 0.926141 0.183112
C22   C     C_3   0.656736 0.667224 0.918319 -0.276367
C23   C     C_R   0.933459 0.550851 0.389676 -0.156478
C24   C     C_3   0.654449 0.669296 0.077371 -0.283490
C25   C     C_R   0.737648 0.496316 0.500300 0.542892
C26   C     C_R   0.248237 0.799365 0.190977 -0.098563
C27   C     C_R   0.191263 0.735302 0.300759 -0.053328
C28   C     C_R   0.121154 0.628548 0.272906 0.052702
C29   C     C_R   0.108143 0.587577 0.134104 -0.110253
C30   C     C_R   0.164970 0.652057 0.024592 -0.120425
C31   C     C_R   0.871630 0.493527 0.500958 -0.003872
C32   C     C_R   0.938697 0.440895 0.613100 -0.032077
C33   C     C_R   0.066774 0.448759 0.611530 -0.158418
C34   C     C_R   0.128444 0.505888 0.499990 -0.003968
C35   C     C_R   0.061403 0.559341 0.388643 -0.032289
C36   C     C_R   0.894368 0.416450 0.868802 -0.106441
Cu1   Cu    Cu3+1 0.499990 0.499980 0.640670 0.936935
Cu2   Cu    Cu3+1 0.500010 0.500020 0.359330 0.935536
H1    H     H_    0.729281 0.196321 0.042195 0.103918
H2    H     H_    0.748152 0.670929 0.124661 0.117900
H3    H     H_    0.588910 0.738293 0.119528 0.140478
H4    H     H_    0.055768 0.504672 0.111501 0.091691
H5    H     H_    0.155480 0.619660 0.917771 0.107813
H6    H     H_    0.881719 0.593515 0.305444 0.120802
H7    H     H_    0.946371 0.500109 0.889000 0.091307
H8    H     H_    0.851264 0.386507 0.086708 0.110113
H9    H     H_    0.278720 0.807457 0.968363 0.101296
H10   H     H_    0.704567 0.118193 0.799868 0.109166
H11   H     H_    0.550890 0.888587 0.277807 0.119866
H12   H     H_    0.798815 0.230648 0.600847 0.094800
H13   H     H_    0.319997 0.111331 0.700735 0.133995
H14   H     H_    0.445863 0.111999 0.836136 0.133455
H15   H     H_    0.751706 0.664895 0.874207 0.129817
H16   H     H_    0.202063 0.768398 0.407229 0.089980
H17   H     H_    0.118775 0.406267 0.695915 0.118662
H18   H     H_    0.552129 0.113236 0.277516 0.129580
H19   H     H_    0.320110 0.889162 0.702341 0.132739
H20   H     H_    0.446060 0.891880 0.837561 0.120855
H21   H     H_    0.331021 0.403061 0.130041 0.122357
H22   H     H_    0.302418 0.881359 0.212709 0.102948
H23   H     H_    0.330794 0.403324 0.869993 0.108139
H24   H     H_    0.594626 0.736405 0.869879 0.146910
N1    N     N_R   0.500790 0.500930 0.147930 -0.229688
N2    N     N_R   0.500790 0.500890 0.852020 -0.230488
O1    O     O_R   0.500000 0.319640 0.618810 -0.497078
O2    O     O_R   0.500010 0.319680 0.381230 -0.511529
O3    O     O_R   0.319640 0.499990 0.618790 -0.520612
O4    O     O_R   0.319650 0.500030 0.381210 -0.493266
O5    O     O_R   0.499990 0.680320 0.618770 -0.503235
O6    O     O_R   0.500000 0.680360 0.381190 -0.504285
O7    O     O_R   0.680350 0.499970 0.618790 -0.488015
O8    O     O_R   0.680360 0.500010 0.381210 -0.511525

loop_
_geom_bond_atom_site_label_1
_geom_bond_atom_site_label_2
_ccdc_geom_bond_type
C25   C31   S    
C4    O3    A    
C1    O1    A    
Cu2   O6    S    
C33   H17   S    
C29   C30   A    
C25   O7    A    
Cu1   O5    S    
C29   H4    S    
C22   H24   S    
C18   C21   A    
C10   H18   S    
C9    C10   A    
C19   C20   A    
C8    C17   S    
C34   C35   A    
C12   C30   A    
C32   C33   A    
C17   H13   S    
C22   C24   S    
C2    C3    A    
C27   H16   S    
C3    H1    S    
C36   H7    S    
C25   O8    A    
C21   C22   S    
C6    H12   S    
C20   N2    A    
C15   H19   S    
C26   C27   A    
C6    C7    A    
C24   H3    S    
C12   H9    S    
C18   C24   S    
C5    C6    A    
Cu1   O3    S    
C17   H14   S    
C28   C29   A    
C15   H20   S    
Cu1   Cu2   S    
Cu2   O4    S    
C1    O2    A    
C22   H15   S    
C23   C35   A    
Cu1   O7    S    
C4    C34   S    
C33   C34   A    
C18   N1    A    
C5    H10   S    
Cu2   O8    S    
C30   H5    S    
C10   C11   A    
C16   O5    A    
C2    C36   A    
C23   C31   A    
C1    C9    S    
C3    C5    A    
C11   C13   A    
Cu1   N2    S    
C16   O6    A    
C11   H11   S    
C4    O4    A    
Cu2   N1    S    
C7    C36   A    
C13   C16   S    
C12   C26   A    
C20   H23   S    
C15   C17   S    
C14   C15   S    
C24   H2    S    
C21   N2    A    
C8    C14   A    
C7    C32   S    
C19   H21   S    
C13   C14   A    
C26   H22   S    
C31   C32   A    
C2    H8    S    
C23   H6    S    
Cu2   O2    S    
C28   C35   S    
C19   N1    A    
C8    C9    A    
C27   C28   A    
Cu1   O1    S    
