data_str_m2_o5_o26_f0_pcu.sym.22
_audit_creation_date              2012-10-26T20:14:29-0400
_audit_creation_method            fapswitch 2.2
_symmetry_space_group_name_H-M    P1
_symmetry_Int_Tables_number       1
_space_group_crystal_system       triclinic
_cell_length_a                    7.948118
_cell_length_b                    9.069631
_cell_length_c                    17.233214
_cell_angle_alpha                 90.017744
_cell_angle_beta                  88.07738
_cell_angle_gamma                 89.997544
_cell_volume                      1241.58263058

loop_
_atom_site_label
_atom_site_type_symbol
_atom_type_description
_atom_site_fract_x
_atom_site_fract_y
_atom_site_fract_z
_atom_type_partial_charge
C1    C     C_R   0.500006 0.779279 0.499932 0.561419
C2    C     C_R   0.360490 0.502674 0.229156 0.244379
C3    C     C_R   0.655038 0.521075 0.846545 0.266187
C4    C     C_R   0.347287 0.435179 0.156520 0.256772
C5    C     C_R   0.510297 0.526373 0.894848 -0.038359
C6    C     C_R   0.491087 0.429527 0.107406 -0.029383
C7    C     C_R   0.354954 0.557482 0.863311 -0.146335
C8    C     C_R   0.646570 0.472116 0.136205 -0.141597
C9    C     C_R   0.340849 0.565517 0.782483 -0.068336
C10   C     C_R   0.660494 0.509146 0.214652 -0.073687
C11   C     C_2   0.525958 0.529631 0.978611 -0.081808
C12   C     C_R   0.499999 0.220701 0.500039 0.546342
C13   C     C_2   0.473441 0.417670 0.023235 -0.032774
C14   C     C_3   0.814895 0.588496 0.239257 -0.201281
C15   C     C_3   0.776510 0.750885 0.257257 -0.336878
C16   C     C_3   0.187567 0.635895 0.750483 -0.198164
C17   C     C_3   0.228171 0.788350 0.716315 -0.340880
C18   C     C_1   0.499998 0.934394 0.500003 0.006865
C19   C     C_1   0.500000 0.065532 0.500041 -0.004204
C20   C     C_R   0.481374 0.511955 0.649937 0.553939
C21   C     C_R   0.518748 0.503543 0.349612 0.552259
C22   C     C_R   0.484137 0.535392 0.734867 -0.004666
C23   C     C_R   0.516693 0.498820 0.263951 0.000623
C24   C     C_R   0.640721 0.556865 0.768118 0.245521
Cu1   Cu    Cu3+1 0.330920 0.500000 0.500000 1.116135
Cu2   Cu    Cu3+1 0.669080 0.500000 0.500000 1.125247
H1    H     H_    0.248299 0.581273 0.901849 0.211843
H2    H     H_    0.894345 0.813371 0.265453 0.230895
H3    H     H_    0.710622 0.802335 0.208258 0.185146
H4    H     H_    0.869713 0.531662 0.289102 0.241866
H5    H     H_    0.909968 0.585447 0.191411 0.267087
H6    H     H_    0.307620 0.778955 0.662477 0.176600
H7    H     H_    0.111094 0.846836 0.701615 0.227571
H8    H     H_    0.294457 0.856661 0.759243 0.181981
H9    H     H_    0.131379 0.562145 0.707464 0.242469
H10   H     H_    0.092973 0.651877 0.797765 0.268429
H11   H     H_    0.754139 0.482888 0.096516 0.221373
H12   H     H_    0.408914 0.324682 0.998056 0.203386
H13   H     H_    0.588754 0.624240 0.003424 0.155468
H14   H     H_    0.935370 0.267493 0.189160 0.373084
H15   H     H_    0.064065 0.341458 0.833639 0.373284
H16   H     H_    0.755131 0.838557 0.840563 0.363924
H17   H     H_    0.246821 0.745672 0.125963 0.363022
H18   H     H_    0.697344 0.761663 0.311197 0.175318
N1    N     N_1   0.923170 0.500000 0.500010 -0.045728
N2    N     N_1   0.076830 0.500000 0.499990 -0.048662
O1    O     O_R   0.357240 0.711600 0.500000 -0.493440
O2    O     O_2   0.188273 0.212753 0.088139 -0.257836
O3    O     O_3   0.031684 0.324927 0.208150 -0.534897
O4    O     O_2   0.933687 0.582093 0.922221 -0.278112
O5    O     O_2   0.815092 0.335098 0.939635 -0.244760
O6    O     O_3   0.969436 0.391500 0.808513 -0.536017
O7    O     O_2   0.873430 0.672208 0.669761 -0.271033
O8    O     O_2   0.627528 0.822336 0.699371 -0.320860
O9    O     O_3   0.847126 0.802267 0.805348 -0.509615
O10   O     O_2   0.130014 0.655011 0.312434 -0.272522
O11   O     O_2   0.375680 0.790234 0.265585 -0.306647
O12   O     O_R   0.642760 0.288400 0.500000 -0.498338
O13   O     O_3   0.155036 0.726209 0.164925 -0.503813
O14   O     O_R   0.642760 0.711600 0.500000 -0.476656
O15   O     O_R   0.357240 0.288400 0.500000 -0.499317
O16   O     O_R   0.340660 0.500000 0.613590 -0.530551
O17   O     O_R   0.659340 0.500000 0.386410 -0.532516
O18   O     O_R   0.626230 0.500000 0.613600 -0.447388
O19   O     O_R   0.373770 0.500000 0.386400 -0.449393
O20   O     O_2   0.069980 0.460205 0.074551 -0.254517
S1    S     S_3+6 0.155040 0.356939 0.128884 0.025208
S2    S     S_3+6 0.847712 0.457358 0.882185 0.023904
S3    S     S_3+6 0.749709 0.715577 0.733238 0.010377
S4    S     S_3+6 0.252694 0.671660 0.245056 0.013049

loop_
_geom_bond_atom_site_label_1
_geom_bond_atom_site_label_2
_ccdc_geom_bond_type
C20   O18   A    
C4    S1    S    
C2    C4    A    
Cu2   O17   S    
C5    C7    A    
C5    C11   S    
O11   S4    D    
C11   C13   D    
Cu1   O1    S    
H15   O6    S    
C3    S2    S    
O6    S2    S    
C7    H1    S    
H17   O13   S    
C14   H5    S    
Cu1   O16   S    
C12   O12   A    
Cu2   O14   S    
O20   S1    D    
C15   H2    S    
O7    S3    D    
O2    S1    D    
Cu1   O15   S    
N1    N2    T    
C16   H10   S    
C6    C13   S    
C11   H13   S    
C12   O15   A    
Cu2   O12   S    
C1    C18   S    
O9    S3    S    
O8    S3    D    
C17   H7    S    
C14   H4    S    
C12   C19   S    
C4    C6    A    
C9    C16   S    
C13   H12   S    
C24   S3    S    
C15   H3    S    
O10   S4    D    
O5    S2    D    
C21   C23   S    
C16   H9    S    
C20   O16   A    
C15   H18   S    
H16   O9    S    
C22   C24   A    
C9    C22   A    
C21   O17   A    
C17   H8    S    
O13   S4    S    
H14   O3    S    
Cu1   O19   S    
C8    C10   A    
C18   C19   T    
C8    H11   S    
C1    O14   A    
C2    C23   A    
C7    C9    A    
C17   H6    S    
Cu2   O18   S    
C14   C15   S    
C1    O1    A    
C10   C23   A    
C6    C8    A    
O3    S1    S    
Cu2   N1    S    
C21   O19   A    
Cu1   Cu2   S    
C2    S4    S    
O4    S2    D    
Cu1   N2    S    
C3    C24   A    
C20   C22   S    
C16   C17   S    
C3    C5    A    
C10   C14   S    
