data_str_m3_o10_o29_f0_pcu.sym.83
_audit_creation_date              2012-12-10T16:59:22-0500
_audit_creation_method            fapswitch 2.2
_symmetry_space_group_name_H-M    P1
_symmetry_Int_Tables_number       1
_space_group_crystal_system       triclinic
_cell_length_a                    7.732421
_cell_length_b                    8.557303
_cell_length_c                    27.776712
_cell_angle_alpha                 90.981697
_cell_angle_beta                  86.194702
_cell_angle_gamma                 93.68365
_cell_volume                      1829.95431885

loop_
_atom_site_label
_atom_site_type_symbol
_atom_type_description
_atom_site_fract_x
_atom_site_fract_y
_atom_site_fract_z
_atom_type_partial_charge
C1    C     C_R   0.545916 0.794867 0.498735 0.971040
C2    C     C_R   0.535101 0.640391 0.127460 -0.022882
C3    C     C_R   0.509158 0.500427 0.646694 -0.039717
C4    C     C_R   0.490844 0.499616 0.353310 -0.039652
C5    C     C_R   0.539448 0.642618 0.025580 0.047807
C6    C     C_R   0.460418 0.357652 0.974422 0.047804
C7    C     C_R   0.458565 0.357844 0.025499 0.047833
C8    C     C_R   0.541330 0.642422 0.974503 0.047827
C9    C     C_R   0.498098 0.500324 0.050721 0.072238
C10   C     C_R   0.501787 0.499943 0.949281 0.072241
C11   C     C_R   0.577729 0.780789 0.052698 -0.226725
C12   C     C_R   0.454084 0.205133 0.501265 0.971076
C13   C     C_R   0.422095 0.219487 0.947305 -0.226723
C14   C     C_R   0.575395 0.779290 0.102567 -0.140229
C15   C     C_R   0.424423 0.220986 0.897436 -0.140231
C16   C     C_R   0.503231 0.500559 0.593990 0.886939
C17   C     C_R   0.496769 0.499435 0.406011 0.886985
C18   C     C_R   0.581647 0.780379 0.947462 -0.225987
C19   C     C_R   0.418292 0.219878 0.052538 -0.225988
C20   C     C_2   0.570224 0.958304 0.498003 -0.370513
C21   C     C_2   0.429776 0.041695 0.501997 -0.370515
C22   C     C_R   0.544882 0.636720 0.822276 0.508899
C23   C     C_R   0.503595 0.499759 0.898206 -0.049727
C24   C     C_R   0.455105 0.363524 0.177724 0.508873
C25   C     C_R   0.467238 0.362321 0.822193 0.509213
C26   C     C_R   0.532625 0.637945 0.177810 0.509185
C27   C     C_R   0.350886 0.490427 0.724988 -0.100826
C28   C     C_R   0.649080 0.510390 0.275018 -0.100759
C29   C     C_R   0.351413 0.491091 0.675081 -0.257674
C30   C     C_R   0.648574 0.509637 0.324925 -0.257718
C31   C     C_R   0.668223 0.509650 0.669415 0.078716
C32   C     C_R   0.331781 0.489793 0.330592 0.078620
C33   C     C_R   0.665631 0.508991 0.719692 -0.148232
C34   C     C_R   0.496302 0.500505 0.101796 -0.049733
C35   C     C_R   0.334345 0.490572 0.280317 -0.148140
C36   C     C_R   0.507737 0.499435 0.747177 0.306682
C37   C     C_R   0.492221 0.500800 0.252828 0.306484
C38   C     C_R   0.544185 0.639466 0.872622 -0.022983
C39   C     C_R   0.455765 0.360788 0.127378 -0.022958
C40   C     C_R   0.582844 0.778523 0.897595 -0.141813
C41   C     C_R   0.417126 0.221728 0.102405 -0.141815
C42   C     C_R   0.464759 0.359876 0.872543 -0.022899
H1    H     H_    0.014225 0.383272 0.463463 0.199502
H2    H     H_    0.228671 0.483274 0.746518 0.141210
H3    H     H_    0.605889 0.888219 0.121568 0.194602
H4    H     H_    0.393901 0.112061 0.878437 0.194601
H5    H     H_    0.610698 0.893347 0.036835 0.141262
H6    H     H_    0.389087 0.106935 0.963169 0.141277
H7    H     H_    0.613530 0.893044 0.963380 0.140727
H8    H     H_    0.386436 0.107209 0.036620 0.140712
H9    H     H_    0.702833 0.009444 0.494191 0.180655
H10   H     H_    0.297166 0.990556 0.505808 0.180653
H11   H     H_    0.901087 0.623462 0.652642 0.185794
H12   H     H_    0.985775 0.616726 0.536538 0.199450
H13   H     H_    0.901870 0.425879 0.650701 0.186953
H14   H     H_    0.099460 0.374990 0.347329 0.186037
H15   H     H_    0.097668 0.572512 0.349353 0.186787
H16   H     H_    0.786479 0.516025 0.737495 0.135625
H17   H     H_    0.213483 0.483078 0.262519 0.135739
H18   H     H_    0.614695 0.887315 0.878650 0.192949
H19   H     H_    0.385310 0.112929 0.121348 0.192943
H20   H     H_    0.772183 0.517549 0.341245 0.166260
H21   H     H_    0.227801 0.483660 0.658763 0.166306
H22   H     H_    0.771289 0.518054 0.253489 0.141325
N1    N     N_R   0.506734 0.499460 0.798393 -0.356753
N2    N     N_R   0.493201 0.500791 0.201610 -0.356724
N3    N     N_2   0.950320 0.457960 0.486880 -0.171284
N4    N     N_2   0.049680 0.542040 0.513120 -0.171282
N5    N     N_3   0.832046 0.520991 0.641983 -0.437396
N6    N     N_3   0.167996 0.477681 0.358027 -0.437520
O1    O     O_R   0.389250 0.738570 0.503220 -0.613632
O2    O     O_2   0.417764 0.230286 0.202709 -0.534894
O3    O     O_2   0.568429 0.771311 0.202916 -0.533093
O4    O     O_2   0.431357 0.228969 0.797088 -0.533079
O5    O     O_R   0.610750 0.261430 0.496780 -0.613616
O6    O     O_R   0.678390 0.711630 0.494810 -0.631000
O7    O     O_R   0.321610 0.288370 0.505190 -0.630968
O8    O     O_R   0.355440 0.513440 0.575450 -0.629289
O9    O     O_R   0.644560 0.486560 0.424550 -0.629289
O10   O     O_R   0.644590 0.486500 0.567040 -0.598467
O11   O     O_R   0.355410 0.513500 0.432960 -0.598494
O12   O     O_2   0.582322 0.769935 0.797286 -0.534863
Zn1   Zn    Zn3+2 0.306940 0.517990 0.505620 0.958125
Zn2   Zn    Zn3+2 0.693060 0.482010 0.494380 0.958128

loop_
_geom_bond_atom_site_label_1
_geom_bond_atom_site_label_2
_ccdc_geom_bond_type
C29   H21   S    
C33   H16   S    
C40   H18   S    
C27   C29   A    
C11   H5    S    
C41   H19   S    
O10   Zn2   S    
H11   N5    S    
O6    Zn2   S    
C39   C41   A    
C1    O1    A    
C23   C42   A    
C22   O12   S    
C35   C37   A    
C5    C11   A    
C20   H9    S    
O9    Zn2   S    
C11   C14   A    
O5    Zn2   S    
H12   N4    S    
O7    Zn1   S    
C22   C38   A    
C17   O9    A    
C26   O3    S    
C35   H17   S    
C25   O4    S    
C3    C29   A    
C18   C40   A    
O8    Zn1   S    
C31   C33   A    
C33   C36   A    
H15   N6    S    
C16   O8    A    
C24   N2    A    
C2    C34   A    
N3    Zn2   S    
C37   N2    S    
C1    O6    A    
C27   H2    S    
O11   Zn1   S    
C14   H3    S    
O1    Zn1   S    
N3    N4    D    
C26   N2    A    
C32   C35   A    
C25   N1    A    
C36   N1    S    
C32   N6    S    
C12   C21   S    
C8    C18   A    
C34   C39   A    
C16   O10   A    
C22   N1    A    
C5    C9    A    
C5    C8    A    
C12   O7    A    
C2    C26   A    
C4    C32   A    
C3    C31   A    
H13   N5    S    
C4    C17   S    
C28   H22   S    
H1    N3    S    
H14   N6    S    
C30   H20   S    
C9    C34   A    
C27   C36   A    
C24   O2    S    
C7    C9    A    
C1    C20   S    
N4    Zn1   S    
C15   C42   A    
C25   C42   A    
C6    C10   A    
C13   H6    S    
C6    C7    A    
C10   C23   A    
C23   C38   A    
C7    C19   A    
C13   C15   A    
C6    C13   A    
C38   C40   A    
C19   H8    S    
C28   C37   A    
C28   C30   A    
C17   O11   A    
C2    C14   A    
C31   N5    S    
C20   C21   D    
C8    C10   A    
C12   O5    A    
C15   H4    S    
C24   C39   A    
C21   H10   S    
C4    C30   A    
C3    C16   S    
C19   C41   A    
C18   H7    S    
