data_str_m3_o10_o28_f0_pcu.sym.11
_audit_creation_date              2012-12-10T16:58:23-0500
_audit_creation_method            fapswitch 2.2
_symmetry_space_group_name_H-M    P1
_symmetry_Int_Tables_number       1
_space_group_crystal_system       triclinic
_cell_length_a                    7.832699
_cell_length_b                    8.763145
_cell_length_c                    22.559927
_cell_angle_alpha                 90.812626
_cell_angle_beta                  85.342205
_cell_angle_gamma                 93.250379
_cell_volume                      1540.82440665

loop_
_atom_site_label
_atom_site_type_symbol
_atom_type_description
_atom_site_fract_x
_atom_site_fract_y
_atom_site_fract_z
_atom_type_partial_charge
C1    C     C_R   0.544754 0.793652 0.499221 0.885377
C2    C     C_R   0.362810 0.359390 0.306287 0.055662
C3    C     C_R   0.455399 0.673155 0.763350 0.159161
C4    C     C_R   0.288291 0.376483 0.252648 0.178014
C5    C     C_R   0.358509 0.550195 0.793496 0.153276
C6    C     C_R   0.365824 0.483129 0.210415 0.163796
C7    C     C_2   0.568891 0.955437 0.495738 -0.042205
C8    C     C_2   0.431183 0.044657 0.505491 -0.038023
C9    C     C_R   0.501045 0.501441 0.611195 0.848500
C10   C     C_R   0.497535 0.494604 0.388632 0.850667
C11   C     C_R   0.272904 0.373812 0.117117 0.508486
C12   C     C_R   0.455247 0.206340 0.501139 0.878707
C13   C     C_R   0.253319 0.698612 0.883714 0.584056
C14   C     C_R   0.292133 0.643849 0.130291 0.509933
C15   C     C_R   0.171026 0.439599 0.877106 0.504440
C16   C     C_R   0.275873 0.665089 0.069150 -0.017557
C17   C     C_R   0.168552 0.421021 0.939000 -0.027009
C18   C     C_R   0.236368 0.535276 0.034267 -0.045505
C19   C     C_R   0.220088 0.549107 0.973065 -0.051504
C20   C     C_R   0.219028 0.390232 0.060040 -0.020807
C21   C     C_R   0.251465 0.691935 0.945738 -0.038760
C22   C     C_R   0.302953 0.809556 0.041532 0.090735
C23   C     C_R   0.380355 0.402867 0.768258 -0.147960
C24   C     C_R   0.125336 0.279499 0.967413 0.116307
C25   C     C_R   0.289330 0.821626 0.980144 -0.222383
C26   C     C_R   0.155364 0.264993 0.027480 -0.226714
C27   C     C_3   0.793992 0.003719 0.417228 -0.756002
C28   C     C_3   0.202165 0.006992 0.583635 -0.773825
C29   C     C_3   0.003143 0.520946 0.382875 -0.607907
C30   C     C_3   0.001766 0.547024 0.620965 -0.608687
C31   C     C_R   0.508269 0.576332 0.225755 -0.102947
C32   C     C_R   0.445769 0.382087 0.709781 0.053832
C33   C     C_R   0.556646 0.581698 0.283710 0.036637
C34   C     C_R   0.498801 0.510915 0.675553 -0.124089
C35   C     C_R   0.483317 0.472674 0.324774 -0.181580
C36   C     C_R   0.514224 0.655323 0.703145 -0.020327
H1    H     H_    0.317221 0.931211 0.958943 0.166315
H2    H     H_    0.325781 0.184801 0.684831 0.193803
H3    H     H_    0.605128 0.767556 0.334831 0.181582
H4    H     H_    0.777337 0.662538 0.316340 0.191365
H5    H     H_    0.712189 0.762566 0.653778 0.192043
H6    H     H_    0.515661 0.803354 0.634741 0.177047
H7    H     H_    0.265646 0.257618 0.383853 0.202403
H8    H     H_    0.424599 0.167468 0.346097 0.175668
H9    H     H_    0.471957 0.903786 0.772386 0.242763
H10   H     H_    0.645512 0.815083 0.791542 0.200529
H11   H     H_    0.059892 0.345351 0.213092 0.195082
H12   H     H_    0.127616 0.155875 0.048729 0.158864
H13   H     H_    0.146999 0.182042 0.234265 0.259394
H14   H     H_    0.829345 0.975652 0.506315 0.227527
H15   H     H_    0.928017 0.050750 0.408916 0.223133
H16   H     H_    0.709603 0.068642 0.390728 0.242020
H17   H     H_    0.791022 0.882377 0.402554 0.228553
H18   H     H_    0.172253 0.018249 0.493482 0.230440
H19   H     H_    0.070094 0.956250 0.592638 0.220003
H20   H     H_    0.198776 0.130583 0.594731 0.238848
H21   H     H_    0.287487 0.951596 0.612704 0.241647
H22   H     H_    0.985255 0.305014 0.419350 0.211497
H23   H     H_    0.346762 0.300175 0.793384 0.201364
H24   H     H_    0.128184 0.556776 0.359685 0.229474
H25   H     H_    0.943045 0.626271 0.400248 0.222875
H26   H     H_    0.925096 0.464245 0.349040 0.212082
H27   H     H_    0.972707 0.725438 0.562766 0.203805
H28   H     H_    0.884317 0.545979 0.651833 0.212604
H29   H     H_    0.101516 0.620900 0.641328 0.222803
H30   H     H_    0.041287 0.427319 0.616094 0.236114
H31   H     H_    0.572607 0.655624 0.193752 0.188722
H32   H     H_    0.246757 0.974932 0.100007 0.259183
H33   H     H_    0.399466 0.031587 0.046604 0.197929
H34   H     H_    0.164545 0.110645 0.907250 0.236681
H35   H     H_    0.020816 0.059437 0.963734 0.182261
H36   H     H_    0.510895 0.226233 0.643208 0.182555
N1    N     N_R   0.304178 0.499734 0.152134 -0.341808
N2    N     N_3   0.314010 0.226182 0.341445 -0.447255
N3    N     N_3   0.511389 0.808718 0.794100 -0.391686
N4    N     N_3   0.125981 0.295854 0.245599 -0.439485
N5    N     N_2   0.740162 0.015533 0.479956 -0.278943
N6    N     N_2   0.260093 0.984570 0.521682 -0.277032
N7    N     N_2   0.024733 0.414956 0.430205 -0.200541
N8    N     N_2   0.966111 0.608140 0.564327 -0.198749
N9    N     N_R   0.257285 0.565563 0.850999 -0.321497
N10   N     N_2   0.950330 0.457950 0.484560 0.034063
N11   N     N_2   0.049670 0.542050 0.515440 0.041143
N12   N     N_3   0.356307 0.941515 0.074879 -0.362968
N13   N     N_3   0.061850 0.148926 0.934892 -0.372588
N14   N     N_3   0.452083 0.228795 0.686418 -0.449667
N15   N     N_3   0.669081 0.706343 0.300564 -0.437872
N16   N     N_3   0.588181 0.785926 0.670642 -0.469934
O1    O     O_R   0.389250 0.738570 0.503790 -0.580258
O2    O     O_2   0.237441 0.833643 0.857634 -0.573438
O3    O     O_2   0.297344 0.765180 0.167687 -0.546151
O4    O     O_2   0.085357 0.337074 0.843768 -0.542941
O5    O     O_R   0.610750 0.261430 0.496210 -0.582346
O6    O     O_R   0.678390 0.711620 0.493890 -0.636154
O7    O     O_R   0.321610 0.288380 0.506110 -0.632230
O8    O     O_R   0.355400 0.513520 0.588790 -0.617608
O9    O     O_R   0.644600 0.486480 0.411210 -0.618957
O10   O     O_R   0.644550 0.486570 0.578900 -0.595764
O11   O     O_R   0.355450 0.513430 0.421100 -0.600531
O12   O     O_2   0.301052 0.233689 0.136316 -0.596909
Zn1   Zn    Zn3+2 0.306930 0.518000 0.506610 0.965335
Zn2   Zn    Zn3+2 0.693070 0.482000 0.493390 0.959993

loop_
_geom_bond_atom_site_label_1
_geom_bond_atom_site_label_2
_ccdc_geom_bond_type
C2    C35   A    
C9    O10   A    
C30   H28   S    
C13   O2    S    
H3    N15   S    
C28   H20   S    
C7    C8    D    
C15   N9    A    
C28   H21   S    
C36   N16   S    
C23   H23   S    
H2    N14   S    
H4    N15   S    
C19   C21   A    
C24   C26   A    
H11   N4    S    
C13   N9    A    
C18   C19   A    
C25   H1    S    
C15   O4    S    
H35   N13   S    
C1    O6    A    
C22   C25   A    
C29   N7    S    
C1    O1    A    
C31   C33   A    
C12   O7    A    
C10   C35   S    
C28   N6    S    
C24   N13   S    
C18   C20   A    
O9    Zn2   S    
C2    N2    S    
C26   H12   S    
C7    N5    S    
C30   N8    S    
H7    N2    S    
C6    C31   A    
O8    Zn1   S    
C8    N6    S    
N8    N11   S    
H10   N3    S    
C28   H19   S    
C27   H15   S    
H27   N8    S    
C29   H25   S    
C11   C20   A    
C17   C24   A    
H32   N12   S    
C14   N1    A    
C4    C6    A    
C11   N1    A    
C17   C19   A    
C3    C5    A    
O10   Zn2   S    
C11   O12   S    
C22   N12   S    
C10   O9    A    
C2    C4    A    
C5    N9    S    
C5    C23   A    
C29   H24   S    
C8    C12   S    
C32   N14   S    
N10   Zn2   S    
H13   N4    S    
C13   C21   A    
H8    N2    S    
C9    O8    A    
C30   H30   S    
H22   N7    S    
O11   Zn1   S    
C9    C34   S    
C14   C16   A    
C12   O5    A    
H6    N16   S    
H14   N5    S    
C3    N3    S    
C27   H16   S    
C6    N1    S    
C15   C17   A    
H5    N16   S    
C21   C25   A    
C29   H26   S    
C16   C22   A    
N11   Zn1   S    
O1    Zn1   S    
C1    C7    S    
C27   N5    S    
O5    Zn2   S    
N7    N10   S    
H36   N14   S    
C27   H17   S    
H9    N3    S    
C23   C32   A    
C33   N15   S    
H33   N12   S    
C20   C26   A    
C3    C36   A    
C33   C35   A    
C34   C36   A    
C10   O11   A    
C14   O3    S    
C4    N4    S    
C30   H29   S    
C31   H31   S    
O6    Zn2   S    
C16   C18   A    
N10   N11   D    
H34   N13   S    
O7    Zn1   S    
C32   C34   A    
H18   N6    S    
