data_str_m2_o5_o17_f0_pcu.sym.24
_audit_creation_date              2012-10-26T18:44:00-0400
_audit_creation_method            fapswitch 2.2
_symmetry_space_group_name_H-M    P1
_symmetry_Int_Tables_number       1
_space_group_crystal_system       triclinic
_cell_length_a                    15.064618
_cell_length_b                    9.256343
_cell_length_c                    7.779632
_cell_angle_alpha                 89.996834
_cell_angle_beta                  90.001728
_cell_angle_gamma                 89.995097
_cell_volume                      1084.81733003

loop_
_atom_site_label
_atom_site_type_symbol
_atom_type_description
_atom_site_fract_x
_atom_site_fract_y
_atom_site_fract_z
_atom_type_partial_charge
C1    C     C_R   0.500001 0.219743 0.500003 0.606300
C2    C     C_R   0.232627 0.500024 0.500003 0.010907
C3    C     C_R   0.906266 0.368066 0.488196 -0.037431
C4    C     C_R   0.093743 0.631985 0.488329 -0.037518
C5    C     C_R   0.906243 0.631952 0.511830 -0.037421
C6    C     C_R   0.093755 0.368078 0.511720 -0.037498
C7    C     C_R   0.952938 0.500015 0.500011 -0.130895
C8    C     C_R   0.047063 0.500025 0.500016 -0.130865
C9    C     C_R   0.955412 0.239481 0.476081 0.322529
C10   C     C_R   0.044597 0.760565 0.476196 0.322485
C11   C     C_R   0.955368 0.760543 0.523994 0.322541
C12   C     C_R   0.499999 0.780257 0.499997 0.606321
C13   C     C_R   0.044637 0.239492 0.523897 0.322562
C14   C     C_1   0.500001 0.065036 0.500003 0.060833
C15   C     C_1   0.500000 0.934964 0.499997 0.060846
C16   C     C_3   0.913614 0.123929 0.232655 -0.031822
C17   C     C_3   0.086610 0.876074 0.232815 -0.031777
C18   C     C_3   0.913558 0.876038 0.767436 -0.031834
C19   C     C_3   0.086617 0.124194 0.767439 -0.031927
C20   C     C_R   0.328755 0.500005 0.499999 0.627963
C21   C     C_R   0.671246 0.499987 0.500003 0.628057
C22   C     C_R   0.812715 0.631776 0.505512 0.176487
C23   C     C_R   0.187280 0.368222 0.505259 0.176406
C24   C     C_R   0.812739 0.368227 0.494501 0.176448
C25   C     C_R   0.187274 0.631844 0.494763 0.176324
C26   C     C_R   0.767377 0.499996 0.500006 0.011014
Cl1   Cl    Cl    0.750038 0.793788 0.487542 -0.507882
Cl2   Cl    Cl    0.249917 0.206163 0.486737 -0.507952
Cl3   Cl    Cl    0.750096 0.206212 0.512484 -0.507897
Cl4   Cl    Cl    0.249934 0.793955 0.513271 -0.507887
Cu1   Cu    Cu3+1 0.500000 0.500000 0.669080 1.134552
Cu2   Cu    Cu3+1 0.500000 0.500000 0.330920 1.134537
H1    H     H_    0.980039 0.143758 0.174506 0.057727
H2    H     H_    0.020244 0.143962 0.825732 0.057717
H3    H     H_    0.133769 0.210069 0.808168 0.133445
H4    H     H_    0.112005 0.020262 0.818548 0.160548
H5    H     H_    0.866423 0.209707 0.191668 0.133579
H6    H     H_    0.888358 0.019848 0.181659 0.160422
H7    H     H_    0.020239 0.856256 0.174415 0.057601
H8    H     H_    0.133837 0.790284 0.192074 0.133594
H9    H     H_    0.111952 0.980116 0.181838 0.160584
H10   H     H_    0.979993 0.856362 0.825556 0.057937
H11   H     H_    0.866458 0.790158 0.808428 0.133414
H12   H     H_    0.888204 0.980035 0.818440 0.160536
N1    N     N_1   0.500000 0.500000 0.076820 -0.075289
N2    N     N_1   0.500000 0.500000 0.923180 -0.075288
O1    O     O_R   0.500000 0.288390 0.642760 -0.490771
O2    O     O_3   0.081402 0.886112 0.413678 -0.411157
O3    O     O_3   0.918549 0.886046 0.586572 -0.411144
O4    O     O_3   0.081456 0.114003 0.586577 -0.411160
O5    O     O_R   0.500000 0.711610 0.357240 -0.490771
O6    O     O_R   0.500000 0.711610 0.642760 -0.490669
O7    O     O_R   0.500000 0.288390 0.357240 -0.490680
O8    O     O_R   0.370260 0.500000 0.642800 -0.488899
O9    O     O_R   0.629740 0.500000 0.357200 -0.488873
O10   O     O_R   0.629740 0.500000 0.642800 -0.488870
O11   O     O_R   0.370260 0.500000 0.357200 -0.488911
O12   O     O_3   0.918615 0.113950 0.413533 -0.411127

loop_
_geom_bond_atom_site_label_1
_geom_bond_atom_site_label_2
_ccdc_geom_bond_type
C21   O10   A    
C21   C26   S    
C12   C15   S    
Cu2   O5    S    
C3    C9    A    
C18   H12   S    
Cu1   O10   S    
C5    C7    A    
Cu2   N1    S    
C16   H5    S    
Cu2   O9    S    
Cu1   Cu2   S    
C14   C15   T    
C17   O2    S    
Cu1   O6    S    
C4    C8    A    
C4    C25   A    
C16   O12   S    
C7    C8    A    
Cu1   O1    S    
N1    N2    T    
C6    C13   A    
C1    O7    A    
C19   O4    S    
C3    C24   A    
C22   C26   A    
Cu2   O11   S    
C11   O3    S    
C6    C23   A    
C12   O6    A    
C24   C26   A    
C19   H3    S    
C5    C11   A    
C2    C25   A    
C3    C7    A    
C19   H4    S    
C18   H10   S    
Cu1   O8    S    
C10   O2    S    
C22   Cl1   S    
C16   H1    S    
C17   H9    S    
C23   Cl2   S    
C10   C11   A    
C2    C20   S    
C13   O4    S    
Cu2   O7    S    
C2    C23   A    
C12   O5    A    
C20   O8    A    
C9    O12   S    
C17   H7    S    
C25   Cl4   S    
C21   O9    A    
C9    C13   A    
C24   Cl3   S    
C1    O1    A    
C6    C8    A    
C1    C14   S    
C20   O11   A    
C18   H11   S    
C4    C10   A    
C17   H8    S    
C19   H2    S    
C5    C22   A    
C18   O3    S    
C16   H6    S    
Cu1   N2    S    
