data_str_m9_o18_o18_f0_sra.sym.51
_audit_creation_date              2012-12-11T15:26:39-0500
_audit_creation_method            fapswitch 2.2
_symmetry_space_group_name_H-M    P1
_symmetry_Int_Tables_number       1
_space_group_crystal_system       triclinic
_cell_length_a                    7.214581
_cell_length_b                    11.96583
_cell_length_c                    29.374953
_cell_angle_alpha                 89.745045
_cell_angle_beta                  87.838264
_cell_angle_gamma                 90.41496
_cell_volume                      2533.9946712

loop_
_atom_site_label
_atom_site_type_symbol
_atom_type_description
_atom_site_fract_x
_atom_site_fract_y
_atom_site_fract_z
_atom_type_partial_charge
O1    O     O_R   0.647170 0.849180 0.201220 -0.540840
O2    O     O_R   0.352830 0.150820 0.798780 -0.540595
O3    O     O_R   0.352830 0.150820 0.701220 -0.530829
O4    O     O_R   0.647170 0.849180 0.298780 -0.530151
O5    O     O_R   0.147170 0.650820 0.298780 -0.533368
O6    O     O_R   0.852830 0.349180 0.701220 -0.524939
O7    O     O_R   0.852830 0.349180 0.798780 -0.542520
O8    O     O_R   0.147170 0.650820 0.201220 -0.532345
O9    O     O_R   0.317430 0.862210 0.298450 -0.541691
O10   O     O_R   0.682570 0.137790 0.701550 -0.535583
O11   O     O_R   0.682570 0.137790 0.798450 -0.532761
O12   O     O_R   0.317430 0.862210 0.201550 -0.523244
O13   O     O_R   0.817430 0.637790 0.201550 -0.531885
O14   O     O_R   0.182570 0.362210 0.798450 -0.530643
O15   O     O_R   0.182570 0.362210 0.701550 -0.538522
O16   O     O_R   0.817430 0.637790 0.298450 -0.530910
H1    H     H_    0.925006 0.208649 0.454584 0.141204
H2    H     H_    0.178341 0.751810 0.534060 0.144801
H3    H     H_    0.813576 0.748446 0.962293 0.145687
H4    H     H_    0.186118 0.234427 0.044729 0.141033
H5    H     H_    0.786227 0.210073 0.030667 0.145025
H6    H     H_    0.297070 0.727060 0.956024 0.143407
H7    H     H_    0.587388 0.715964 0.546184 0.141805
H8    H     H_    0.408763 0.266475 0.460927 0.141240
C1    C     C_R   0.482877 0.882951 0.315520 0.732880
C2    C     C_R   0.516227 0.110006 0.687166 0.756417
C3    C     C_R   0.510323 0.108765 0.812881 0.745513
C4    C     C_R   0.488613 0.883708 0.184364 0.740611
C5    C     C_R   0.988295 0.610240 0.187149 0.740394
C6    C     C_R   0.012338 0.384840 0.814962 0.710810
C7    C     C_R   0.017701 0.385435 0.684823 0.727913
C8    C     C_R   0.983164 0.608482 0.312714 0.748397
H9    H     H_    0.871735 0.251639 0.377119 0.162904
H10   H     H_    0.102739 0.730493 0.612086 0.159390
H11   H     H_    0.833059 0.719468 0.883384 0.167356
H12   H     H_    0.167974 0.267360 0.125023 0.135982
H13   H     H_    0.685814 0.206975 0.108212 0.156810
H14   H     H_    0.236157 0.787871 0.880414 0.148298
H15   H     H_    0.569773 0.750023 0.626636 0.154858
H16   H     H_    0.402078 0.233224 0.382277 0.155315
H17   H     H_    0.031699 0.320622 0.597168 0.103640
H18   H     H_    0.094250 0.640230 0.394786 0.104052
H19   H     H_    0.922759 0.647788 0.102348 0.100061
H20   H     H_    0.076406 0.336484 0.901923 0.101347
H21   H     H_    0.679631 0.103380 0.890788 0.110953
H22   H     H_    0.479038 0.812969 0.097081 0.104057
H23   H     H_    0.536461 0.830940 0.402405 0.101329
H24   H     H_    0.488530 0.155638 0.601507 0.102045
O17   O     O_3   0.480630 0.680630 0.250000 -0.368294
O18   O     O_3   0.519370 0.319370 0.750000 -0.372613
O19   O     O_3   0.980630 0.819370 0.250000 -0.377342
O20   O     O_3   0.019370 0.180630 0.750000 -0.373692
V1    V     V_3+5 0.205800 0.762860 0.250000 1.546327
V2    V     V_3+5 0.794200 0.237140 0.750000 1.526214
V3    V     V_3+5 0.705800 0.737140 0.250000 1.540993
V4    V     V_3+5 0.294200 0.262860 0.750000 1.535239
H25   H     H_    0.987301 0.265098 0.530329 0.132088
H26   H     H_    0.172917 0.686419 0.458519 0.125747
H27   H     H_    0.855013 0.691373 0.037808 0.130155
H28   H     H_    0.139789 0.290248 0.968137 0.130605
H29   H     H_    0.759403 0.144036 0.955485 0.123806
H30   H     H_    0.397749 0.767961 0.030731 0.134177
H31   H     H_    0.567434 0.776409 0.469220 0.130424
H32   H     H_    0.438205 0.206827 0.536635 0.129325
C9    C     C_R   0.983048 0.522743 0.349688 -0.104702
C10   C     C_R   0.022688 0.458558 0.643073 -0.100360
C11   C     C_R   0.995815 0.461093 0.854992 -0.107244
C12   C     C_R   0.007219 0.528248 0.149837 -0.078616
C13   C     C_R   0.510297 0.952659 0.141516 -0.095157
C14   C     C_R   0.487470 0.021359 0.849318 -0.102514
C15   C     C_R   0.516596 0.027235 0.649925 -0.104803
C16   C     C_R   0.483459 0.960638 0.355125 -0.105980
C17   C     C_R   0.921329 0.336733 0.380986 -0.187854
C18   C     C_R   0.088482 0.640538 0.608688 -0.213767
C19   C     C_R   0.885979 0.635541 0.888037 -0.209705
C20   C     C_R   0.111385 0.349920 0.119573 -0.243646
C21   C     C_R   0.641816 0.120327 0.105706 -0.235864
C22   C     C_R   0.333167 0.857088 0.883042 -0.184159
C23   C     C_R   0.550506 0.838674 0.620625 -0.205158
C24   C     C_R   0.430295 0.145045 0.387169 -0.213999
C25   C     C_R   0.915385 0.411880 0.344178 -0.016334
C26   C     C_R   0.031322 0.576150 0.646321 -0.014832
C27   C     C_R   0.927801 0.570160 0.850184 -0.019667
C28   C     C_R   0.075191 0.419540 0.156966 -0.070044
C29   C     C_R   0.555248 0.067500 0.143283 -0.028007
C30   C     C_R   0.353211 0.933926 0.846997 -0.023015
C31   C     C_R   0.538517 0.911540 0.657772 -0.005393
C32   C     C_R   0.443891 0.074891 0.349587 -0.010314
C33   C     C_R   0.047653 0.554888 0.392295 -0.236885
C34   C     C_R   0.041127 0.410460 0.599160 -0.241461
C35   C     C_R   0.027646 0.421093 0.899267 -0.233777
C36   C     C_R   0.971558 0.563451 0.105574 -0.235924
C37   C     C_R   0.516624 0.900355 0.098257 -0.247931
C38   C     C_R   0.583563 0.034202 0.889903 -0.217525
C39   C     C_R   0.502597 0.066612 0.605246 -0.243750
C40   C     C_R   0.509164 0.919040 0.399459 -0.245698
C41   C     C_R   0.041312 0.481098 0.430494 0.088147
C42   C     C_R   0.069748 0.478500 0.559241 0.092086
C43   C     C_R   0.990400 0.488781 0.938530 0.093027
C44   C     C_R   0.006844 0.493453 0.067336 0.093486
C45   C     C_R   0.571558 0.961187 0.057799 0.093443
C46   C     C_R   0.542907 0.965762 0.929001 0.078884
C47   C     C_R   0.512549 0.993445 0.567317 0.095698
C48   C     C_R   0.494580 0.990142 0.438377 0.094068
C49   C     C_R   0.979887 0.370320 0.423683 0.097288
C50   C     C_R   0.105723 0.593626 0.565635 0.107009
C51   C     C_R   0.915949 0.596492 0.931585 0.100067
C52   C     C_R   0.081065 0.386273 0.075192 0.134346
C53   C     C_R   0.649788 0.068745 0.063336 0.118332
C54   C     C_R   0.423688 0.872821 0.923818 0.106693
C55   C     C_R   0.541672 0.878569 0.575862 0.103345
C56   C     C_R   0.455171 0.104452 0.430872 0.106596
C57   C     C_R   0.082655 0.515391 0.475682 0.059177
C58   C     C_R   0.056481 0.438823 0.513381 0.052235
C59   C     C_R   0.021671 0.453959 0.984343 0.058787
C60   C     C_R   0.975025 0.527328 0.021621 0.055141
C61   C     C_R   0.543389 0.923162 0.012206 0.047430
C62   C     C_R   0.602186 0.991929 0.973838 0.054898
C63   C     C_R   0.495754 0.030653 0.521317 0.058097
C64   C     C_R   0.514478 0.952538 0.484407 0.054994
C65   C     C_R   0.006072 0.327588 0.503993 -0.196848
C66   C     C_R   0.139583 0.625656 0.484724 -0.195698
C67   C     C_R   0.897825 0.632364 0.012062 -0.194744
C68   C     C_R   0.099071 0.349129 0.994200 -0.204999
C69   C     C_R   0.703349 0.090377 0.982175 -0.188478
C70   C     C_R   0.442990 0.824514 0.003802 -0.198444
C71   C     C_R   0.550351 0.839773 0.494920 -0.199478
C72   C     C_R   0.457754 0.143291 0.511166 -0.196312
C73   C     C_R   0.969408 0.294209 0.459964 -0.185752
C74   C     C_R   0.147073 0.664150 0.528804 -0.191017
C75   C     C_R   0.871093 0.666259 0.967969 -0.190101
C76   C     C_R   0.127268 0.316111 0.038752 -0.206133
C77   C     C_R   0.722498 0.128941 0.026040 -0.193969
C78   C     C_R   0.383965 0.800263 0.960410 -0.183856
C79   C     C_R   0.562525 0.803800 0.539736 -0.196307
C80   C     C_R   0.438853 0.179030 0.466926 -0.187015
C81   C     C_2   0.955300 0.637787 0.685494 0.810618
O21   O     O_2   0.816635 0.602430 0.706098 -0.553571
O22   O     O_R   0.030342 0.742844 0.695408 -0.632587
H33   H     H_    0.954399 0.786565 0.718607 0.305341
C82   C     C_2   0.837753 0.368910 0.301325 0.806645
O23   O     O_2   0.787989 0.432158 0.271510 -0.557588
O24   O     O_R   0.817816 0.253668 0.295506 -0.639950
H34   H     H_    0.763318 0.234296 0.265313 0.350623
C83   C     C_2   0.107785 0.374769 0.202940 0.791783
O25   O     O_2   0.186428 0.431726 0.230772 -0.546635
O26   O     O_R   0.051218 0.266376 0.214955 -0.619482
H35   H     H_    0.975852 0.228158 0.191042 0.296930
C84   C     C_2   0.906512 0.622962 0.806202 0.809858
O27   O     O_2   0.034800 0.620991 0.777977 -0.551030
O28   O     O_R   0.746074 0.684400 0.799201 -0.653585
H36   H     H_    0.753476 0.730540 0.770518 0.315412
C85   C     C_2   0.221022 0.922998 0.809596 0.782571
O29   O     O_2   0.266219 0.949015 0.770511 -0.541594
O30   O     O_R   0.041140 0.883511 0.819603 -0.668686
H37   H     H_    0.960364 0.885363 0.792148 0.311673
C86   C     C_2   0.483288 0.140256 0.179682 0.792384
O31   O     O_2   0.333043 0.118710 0.198328 -0.532706
O32   O     O_R   0.576974 0.239858 0.189118 -0.675019
H38   H     H_    0.505712 0.290140 0.210958 0.307889
C87   C     C_2   0.422866 0.125800 0.304833 0.799515
O33   O     O_2   0.512116 0.090017 0.272106 -0.563401
O34   O     O_R   0.308049 0.218509 0.300697 -0.639979
H39   H     H_    0.312488 0.250920 0.269025 0.353139
C88   C     C_2   0.543642 0.862793 0.704007 0.786764
O35   O     O_2   0.623168 0.911524 0.734202 -0.583175
O36   O     O_R   0.455431 0.760086 0.712949 -0.618326
H40   H     H_    0.452733 0.738759 0.746370 0.338260

loop_
_geom_bond_atom_site_label_1
_geom_bond_atom_site_label_2
_ccdc_geom_bond_type
C7    C10   S    
O14   V4    S    
C19   C51   A    
C88   O35   D    
C60   C67   A    
C4    C13   S    
C44   C60   A    
C19   C27   A    
C20   C28   A    
C23   C31   A    
O4    C1    A    
C64   C71   A    
O9    C1    A    
C10   C34   A    
C28   C83   S    
C9    C33   A    
C81   O22   S    
H11   C19   S    
C86   O31   D    
H6    C78   S    
O8    C5    A    
O13   C5    A    
C14   C38   A    
C30   C85   S    
C56   C80   A    
C26   C81   S    
C13   C37   A    
C84   O28   S    
C43   C59   A    
C42   C58   A    
C18   C50   A    
C45   C53   A    
O24   H34   S    
C68   C76   A    
C47   C55   A    
H5    C77   S    
H28   C68   S    
H12   C20   S    
C16   C32   A    
C58   C65   A    
C9    C25   A    
C57   C66   A    
O26   H35   S    
O20   V2    S    
H32   C72   S    
O1    C4    A    
H23   C40   S    
H16   C24   S    
O2    C3    A    
C62   C69   A    
C85   O30   S    
C61   C70   A    
C6    C11   S    
C46   C62   A    
O5    C8    A    
C41   C49   A    
C63   C72   A    
H8    C80   S    
C25   C82   S    
H17   C34   S    
C21   C29   A    
C20   C52   A    
O7    C6    A    
H3    C75   S    
C2    C15   S    
C88   O36   S    
C82   O23   D    
C29   C86   S    
H4    C76   S    
H21   C38   S    
C17   C25   A    
C87   O34   S    
C39   C47   A    
C83   O25   D    
H27   C67   S    
O22   H33   S    
C44   C52   A    
H26   C66   S    
C83   O26   S    
C53   C77   A    
C12   C28   A    
C27   C84   S    
C51   C75   A    
H24   C39   S    
C37   C45   A    
O36   H40   S    
C48   C56   A    
C49   C73   A    
H14   C22   S    
O17   V3    S    
H13   C21   S    
O18   V4    S    
C33   C41   A    
O19   V1    S    
C82   O24   S    
H15   C23   S    
C10   C26   A    
C5    C12   S    
O3    V4    S    
C17   C49   A    
O32   H38   S    
O11   C3    A    
O28   H36   S    
C69   C77   A    
C24   C56   A    
C11   C35   A    
O10   C2    A    
C22   C54   A    
C1    C16   S    
C11   C27   A    
C21   C53   A    
C3    C14   S    
C38   C46   A    
H20   C35   S    
H10   C18   S    
C15   C31   A    
H9    C17   S    
O12   C4    A    
O6    V2    S    
C40   C48   A    
O4    V3    S    
C46   C54   A    
O9    V1    S    
C41   C57   A    
C14   C30   A    
C13   C29   A    
C36   C44   A    
H30   C70   S    
C57   C58   A    
C18   C26   A    
O5    V1    S    
C50   C74   A    
C54   C78   A    
C65   C73   A    
C59   C68   A    
C67   C75   A    
O3    C2    A    
C47   C63   A    
O12   V1    S    
C71   C79   A    
O8    V1    S    
C63   C64   A    
O15   C7    A    
H7    C79   S    
O16   C8    A    
C43   C51   A    
C81   O21   D    
H19   C36   S    
C42   C50   A    
C23   C55   A    
H18   C33   S    
C45   C61   A    
O15   V4    S    
C72   C80   A    
O1    V3    S    
O16   V3    S    
O14   C6    A    
C24   C32   A    
O2    V4    S    
C84   O27   D    
C55   C79   A    
C59   C60   A    
C31   C88   S    
H22   C37   S    
C87   O33   D    
C12   C36   A    
C34   C42   A    
O6    C7    A    
O10   V2    S    
O13   V3    S    
C52   C76   A    
O34   H39   S    
H2    C74   S    
H25   C65   S    
C16   C40   A    
C15   C39   A    
C70   C78   A    
C86   O32   S    
C22   C30   A    
O11   V2    S    
O30   H37   S    
H29   C69   S    
O7    V2    S    
C35   C43   A    
C85   O29   D    
C61   C62   A    
C66   C74   A    
H1    C73   S    
H31   C71   S    
C32   C87   S    
C8    C9    S    
C48   C64   A    
