data_str_m9_o16_o22_f0_sra.sym.53
_audit_creation_date              2012-12-11T15:11:47-0500
_audit_creation_method            fapswitch 2.2
_symmetry_space_group_name_H-M    P1
_symmetry_Int_Tables_number       1
_space_group_crystal_system       triclinic
_cell_length_a                    20.067083
_cell_length_b                    7.234306
_cell_length_c                    14.095173
_cell_angle_alpha                 90.000012
_cell_angle_beta                  103.619343
_cell_angle_gamma                 90.0
_cell_volume                      1988.67985843

loop_
_atom_site_label
_atom_site_type_symbol
_atom_type_description
_atom_site_fract_x
_atom_site_fract_y
_atom_site_fract_z
_atom_type_partial_charge
O1    O     O_R   0.449830 0.506740 0.599960 -0.543679
O2    O     O_R   0.550170 0.006740 0.400040 -0.543679
O3    O     O_R   0.588980 0.179860 0.596720 -0.561067
O4    O     O_R   0.411020 0.679860 0.403280 -0.561067
C1    C     C_R   0.616154 0.344409 0.618144 0.637748
C2    C     C_R   0.383846 0.844409 0.381856 0.637751
O5    O     O_R   0.452740 0.177340 0.612040 -0.544224
O6    O     O_R   0.547260 0.677340 0.387960 -0.544225
O7    O     O_R   0.412960 0.002070 0.415460 -0.513034
O8    O     O_R   0.587040 0.502070 0.584540 -0.513037
C3    C     C_R   0.436303 0.345880 0.635228 0.668335
C4    C     C_R   0.563697 0.845880 0.364772 0.668334
O9    O     O_3   0.487110 0.337570 0.435490 -0.375782
O10   O     O_3   0.512890 0.837570 0.564510 -0.375785
V1    V     V_3+5 0.502390 0.064650 0.511970 1.460310
V2    V     V_3+5 0.497610 0.564650 0.488030 1.460309
C5    C     C_R   0.601975 0.882952 0.122291 -0.138278
C6    C     C_R   0.398025 0.382952 0.877709 -0.138277
H1    H     H_    0.511852 0.897891 0.177190 0.109943
H2    H     H_    0.488147 0.397891 0.822810 0.109943
H3    H     H_    0.672805 0.853426 0.996574 0.141792
H4    H     H_    0.327195 0.353427 0.003426 0.141792
H5    H     H_    0.572708 0.894180 0.047300 0.125975
H6    H     H_    0.427292 0.394180 0.952699 0.125975
C7    C     C_R   0.603103 0.856576 0.291518 -0.081030
C8    C     C_R   0.396896 0.356576 0.708482 -0.081030
C9    C     C_R   0.929522 0.894914 0.304196 -0.194475
C10   C     C_R   0.070478 0.394914 0.695804 -0.194475
C11   C     C_R   0.895174 0.933512 0.375991 -0.068690
C12   C     C_R   0.104826 0.433512 0.624009 -0.068690
C13   C     C_R   0.824257 0.933319 0.353897 -0.027254
C14   C     C_R   0.175743 0.433320 0.646103 -0.027253
C15   C     C_R   0.785320 0.882062 0.260485 0.070540
C16   C     C_R   0.214680 0.382063 0.739515 0.070540
C17   C     C_R   0.819619 0.866906 0.181712 0.049844
C18   C     C_R   0.180381 0.366906 0.818288 0.049844
C19   C     C_R   0.712271 0.862921 0.242449 0.068694
C20   C     C_R   0.287729 0.362922 0.757551 0.068693
C21   C     C_R   0.673607 0.869805 0.145141 0.115628
C22   C     C_R   0.326393 0.369805 0.854859 0.115628
C23   C     C_R   0.705670 0.861394 0.069542 -0.228714
C24   C     C_R   0.294330 0.361394 0.930457 -0.228714
C25   C     C_R   0.776915 0.857888 0.083829 -0.017309
C26   C     C_R   0.223085 0.357889 0.916171 -0.017309
C27   C     C_R   0.675162 0.835551 0.316249 -0.075401
C28   C     C_R   0.324838 0.335551 0.683751 -0.075400
C29   C     C_R   0.567227 0.884114 0.195612 -0.172010
C30   C     C_R   0.432772 0.384114 0.804388 -0.172011
C31   C     C_R   0.893590 0.867143 0.207370 -0.069743
C32   C     C_R   0.106409 0.367143 0.792630 -0.069744
H7    H     H_    0.985138 0.898816 0.323247 0.109564
H8    H     H_    0.014862 0.398816 0.676753 0.109565
H9    H     H_    0.800402 0.978734 0.410860 0.139048
H10   H     H_    0.199598 0.478735 0.589140 0.139048
H11   H     H_    0.923745 0.967757 0.449055 0.135368
H12   H     H_    0.076255 0.467758 0.550945 0.135368
C33   C     C_3   0.214440 0.653804 0.209059 -0.111361
C34   C     C_3   0.785560 0.153803 0.790941 -0.111360
H13   H     H_    0.211932 0.598866 0.136537 0.228203
H14   H     H_    0.788068 0.098866 0.863462 0.228203
C35   C     C_3   0.290800 0.654216 0.268657 -0.189902
C36   C     C_3   0.709200 0.154215 0.731343 -0.189902
H15   H     H_    0.295431 0.558089 0.330854 0.140544
H16   H     H_    0.704568 0.058089 0.669146 0.140545
H17   H     H_    0.142499 0.867595 0.322306 0.153262
H18   H     H_    0.857500 0.367595 0.677694 0.153263
C37   C     C_3   0.184076 0.934580 0.294744 -0.387729
C38   C     C_3   0.815924 0.434580 0.705256 -0.387728
C39   C     C_3   0.237088 0.977400 0.152315 -0.185585
C40   C     C_3   0.762911 0.477400 0.847685 -0.185583
C41   C     C_3   0.185557 0.854902 0.192655 -0.041328
C42   C     C_3   0.814443 0.354902 0.807345 -0.041328
H19   H     H_    0.216030 0.117749 0.152066 0.148455
H20   H     H_    0.783969 0.617749 0.847934 0.148454
C43   C     C_3   0.312049 0.850051 0.312686 -0.068354
C44   C     C_3   0.687951 0.350051 0.687314 -0.068355
C45   C     C_3   0.256031 0.914807 0.367871 -0.113954
C46   C     C_3   0.743969 0.414806 0.632128 -0.113953
C47   C     C_3   0.310248 0.977137 0.222242 -0.141114
C48   C     C_3   0.689752 0.477137 0.777759 -0.141114
H21   H     H_    0.347952 0.922344 0.183084 0.095370
H22   H     H_    0.652048 0.422343 0.816916 0.095369
H23   H     H_    0.169930 0.083035 0.288060 0.209991
H24   H     H_    0.830070 0.583035 0.711939 0.209990
H25   H     H_    0.270199 0.051726 0.401206 0.197115
H26   H     H_    0.729801 0.551725 0.598794 0.197115
O11   O     O_R   0.912980 0.203550 0.915410 -0.507082
O12   O     O_R   0.087020 0.703550 0.084590 -0.507083
O13   O     O_R   0.047270 0.535570 0.887960 -0.528185
O14   O     O_R   0.952730 0.035570 0.112040 -0.528185
C49   C     C_R   0.063157 0.368567 0.862529 0.750085
C50   C     C_R   0.936843 0.868567 0.137471 0.750085
O15   O     O_R   0.911030 0.532970 0.903270 -0.525571
O16   O     O_R   0.088970 0.032970 0.096730 -0.525570
O17   O     O_R   0.949820 0.708150 0.099970 -0.535777
O18   O     O_R   0.050180 0.208150 0.900030 -0.535777
C51   C     C_R   0.885704 0.363826 0.878423 0.698203
C52   C     C_R   0.114296 0.863826 0.121577 0.698203
O19   O     O_3   0.012900 0.375230 0.064480 -0.345518
O20   O     O_3   0.987100 0.875230 0.935520 -0.345516
V3    V     V_3+5 0.997610 0.648190 0.988040 1.678739
V4    V     V_3+5 0.002390 0.148190 0.011960 1.678740
C53   C     C_2   0.340633 0.586539 0.209252 0.315856
H27   H     H_    0.389845 0.529766 0.246138 0.107254
O21   O     O_2   0.329015 0.605920 0.120955 -0.562215
C54   C     C_2   0.659367 0.086538 0.790748 0.315860
H28   H     H_    0.610155 0.029765 0.753862 0.107252
O22   O     O_2   0.670985 0.105918 0.879045 -0.562215
C55   C     C_2   0.252908 0.789776 0.453248 0.377420
H29   H     H_    0.294157 0.693715 0.482420 0.020166
O23   O     O_2   0.205525 0.801257 0.493670 -0.505504
C56   C     C_2   0.747092 0.289775 0.546752 0.377419
H30   H     H_    0.705842 0.193716 0.517579 0.020166
O24   O     O_2   0.794475 0.301256 0.506330 -0.505504
C57   C     C_2   0.241879 0.934636 0.048294 0.407369
H31   H     H_    0.279434 0.007597 0.018299 0.033318
O25   O     O_2   0.205168 0.820702 0.997250 -0.517255
C58   C     C_2   0.758121 0.434635 0.951706 0.407368
H32   H     H_    0.720566 0.507598 0.981701 0.033318
O26   O     O_2   0.794832 0.320702 0.002749 -0.517255
C59   C     C_2   0.336707 0.168608 0.245404 0.324977
H33   H     H_    0.365505 0.232166 0.198009 0.021658
O27   O     O_2   0.326808 0.252053 0.315696 -0.556668
C60   C     C_2   0.663292 0.668607 0.754595 0.324981
H34   H     H_    0.634491 0.732164 0.801989 0.021656
O28   O     O_2   0.673195 0.752054 0.684306 -0.556671
C61   C     C_2   0.707357 0.758629 0.414028 0.328352
H35   H     H_    0.688406 0.796789 0.477356 0.047803
O29   O     O_2   0.753682 0.645945 0.423731 -0.497753
C62   C     C_2   0.292643 0.258630 0.585972 0.328351
H36   H     H_    0.311594 0.296790 0.522644 0.047804
O30   O     O_2   0.246318 0.145946 0.576269 -0.497753
C63   C     C_2   0.795825 0.853195 0.988275 0.378254
H37   H     H_    0.754984 0.840679 0.923293 0.038063
O31   O     O_2   0.852779 0.871504 0.975206 -0.499761
C64   C     C_2   0.204175 0.353196 0.011724 0.378256
H38   H     H_    0.245016 0.340679 0.076707 0.038061
O32   O     O_2   0.147221 0.371504 0.024793 -0.499761
C65   C     C_2   0.171334 0.529300 0.257822 0.337391
H39   H     H_    0.169001 0.552002 0.332883 0.069275
O33   O     O_2   0.139509 0.399621 0.214002 -0.508610
C66   C     C_2   0.828666 0.029300 0.742178 0.337393
H40   H     H_    0.830997 0.051999 0.667115 0.069274
O34   O     O_2   0.860493 0.899625 0.785999 -0.508607

loop_
_geom_bond_atom_site_label_1
_geom_bond_atom_site_label_2
_ccdc_geom_bond_type
C26   C64   S    
H18   C38   S    
C34   C36   S    
O18   V4    S    
C9    C11   A    
C10   H8    S    
O1    C3    A    
O2    C4    A    
C2    O7    A    
C56   O24   D    
O12   V3    S    
O3    V1    S    
C2    C43   S    
C21   C23   A    
C35   C43   S    
C37   H23   S    
C47   C59   S    
C5    H5    S    
C6    H6    S    
C35   C53   S    
C44   C46   S    
C55   O23   D    
H1    C29   S    
C33   H13   S    
C54   H28   S    
O16   C52   A    
C34   H14   S    
C57   H31   S    
C33   C65   S    
C35   H15   S    
C5    C21   A    
C39   C41   S    
C6    C22   A    
C58   H32   S    
O14   V4    S    
C36   H16   S    
C49   O18   A    
C10   C32   A    
C66   H40   S    
H17   C37   S    
C37   C45   S    
C40   H20   S    
C13   C15   A    
C39   H19   S    
O13   C49   A    
C17   C25   A    
C7    C29   A    
C16   C18   A    
C8    C30   A    
C46   H26   S    
C22   C24   A    
C45   H25   S    
O6    V2    S    
C23   C25   A    
C36   C44   S    
C24   C26   A    
C14   H10   S    
C56   H30   S    
C9    H7    S    
O5    C3    A    
C42   C51   S    
C38   C46   S    
C41   C52   S    
C59   O27   D    
C40   C48   S    
C38   H24   S    
C44   C48   S    
C48   H22   S    
O15   V3    S    
C47   H21   S    
C11   H11   S    
C3    C8    S    
C57   O25   D    
C12   H12   S    
C50   O17   A    
C15   C19   A    
C38   C42   S    
C14   C16   A    
O4    V2    S    
C62   O30   D    
C61   O29   D    
C17   C31   A    
C12   C14   A    
O11   V4    S    
C34   C66   S    
O15   C51   A    
O14   C50   A    
O6    C4    A    
O20   V4    S    
C53   O21   D    
O1    V2    S    
C13   H9    S    
C45   C55   S    
O2    V1    S    
C43   C45   S    
C59   H33   S    
H2    C30   S    
H3    C23   S    
C64   O32   D    
O19   V3    S    
C25   C63   S    
C63   H37   S    
C66   O34   D    
C39   C47   S    
O4    C2    A    
C31   C50   S    
C19   C27   A    
C61   H35   S    
C7    C27   A    
C18   C32   A    
C60   O28   D    
C48   C60   S    
C39   C57   S    
O13   V3    S    
C16   C20   A    
C5    C29   A    
C64   H38   S    
O3    C1    A    
C6    C30   A    
C28   C62   S    
C40   C42   S    
C65   H39   S    
C33   C35   S    
C36   C54   S    
C4    C7    S    
C1    C44   S    
C10   C12   A    
C62   H36   S    
O7    V1    S    
C1    O8    A    
C11   C13   A    
O8    V2    S    
C55   H29   S    
C20   C22   A    
C65   O33   D    
C34   C42   S    
H4    C24   S    
C54   O22   D    
C27   C61   S    
O5    V1    S    
O20   V3    S    
C15   C17   A    
C37   C41   S    
C58   O26   D    
C20   C28   A    
C18   C26   A    
C8    C28   A    
O17   V3    S    
C32   C49   S    
C40   C58   S    
O19   V4    S    
O16   V4    S    
C19   C21   A    
C33   C41   S    
O9    V2    S    
C53   H27   S    
C63   O31   D    
O10   V1    S    
C46   C56   S    
C43   C47   S    
O12   C52   A    
C9    C31   A    
C60   H34   S    
O11   C51   A    
