data_str_m2_o4_o16_f0_pcu.sym.215
_audit_creation_date              2012-12-10T19:00:15-0500
_audit_creation_method            fapswitch 2.2
_symmetry_space_group_name_H-M    P1
_symmetry_Int_Tables_number       1
_space_group_crystal_system       triclinic
_cell_length_a                    9.536269
_cell_length_b                    10.856278
_cell_length_c                    13.382053
_cell_angle_alpha                 90.480679
_cell_angle_beta                  71.939446
_cell_angle_gamma                 90.14056
_cell_volume                      1317.1154007

loop_
_atom_site_label
_atom_site_type_symbol
_atom_type_description
_atom_site_fract_x
_atom_site_fract_y
_atom_site_fract_z
_atom_type_partial_charge
C1    C     C_R   0.500175 0.737275 0.500245 0.798579
C2    C     C_R   0.432951 0.495560 0.981366 0.046773
C3    C     C_R   0.460033 0.461121 0.875072 -0.021942
C4    C     C_R   0.539416 0.466936 0.031919 0.044909
C5    C     C_R   0.662300 0.391044 0.980471 0.051123
C6    C     C_R   0.679564 0.344747 0.878967 0.452854
C7    C     C_R   0.575083 0.377098 0.829162 -0.270454
C8    C     C_R   0.527594 0.513116 0.132505 -0.216642
C9    C     C_R   0.745393 0.402202 0.135084 -0.223546
C10   C     C_R   0.369914 0.509614 0.817572 -0.198329
C11   C     C_R   0.380459 0.937342 0.496757 0.099075
C12   C     C_R   0.420006 0.501341 0.701029 0.796751
C13   C     C_R   0.501983 0.869791 0.500252 -0.126365
C14   C     C_R   0.628428 0.935732 0.503183 -0.202200
C15   C     C_R   0.628292 0.064904 0.502963 -0.216419
C16   C     C_R   0.501684 0.130026 0.499817 -0.092865
C17   C     C_R   0.380083 0.061586 0.496688 0.063726
C18   C     C_3   0.225559 0.070933 0.493111 -0.461411
C19   C     C_3   0.225246 0.928748 0.493524 0.077238
C20   C     C_R   0.947868 0.408518 0.449403 0.244515
C21   C     C_R   0.901118 0.584452 0.556753 -0.090457
C22   C     C_R   0.050082 0.584604 0.556494 -0.121398
C23   C     C_R   0.500081 0.262663 0.499902 0.805857
C24   C     C_R   0.095572 0.408669 0.449150 0.252281
C25   C     C_3   0.150052 0.379999 0.334228 -0.482999
C26   C     C_3   0.990850 0.378836 0.335004 -0.514003
C27   C     C_R   0.579281 0.496709 0.299664 0.796624
C28   C     C_R   0.765444 0.361189 0.032581 -0.162745
C29   C     C_R   0.624015 0.475924 0.186011 -0.046535
C30   C     C_R   0.239466 0.576001 0.872198 0.221615
C31   C     C_R   0.202259 0.593259 0.981236 0.284359
C32   C     C_R   0.298406 0.554544 0.034418 -0.303821
Cu1   Cu    Cu3+1 0.359330 0.500020 0.500010 0.925573
Cu2   Cu    Cu3+1 0.640670 0.499980 0.499990 0.927457
H1    H     H_    0.820588 0.371558 0.175922 0.146238
H2    H     H_    0.726840 0.112991 0.505451 0.159368
H3    H     H_    0.150377 0.112265 0.566308 0.161546
H4    H     H_    0.219063 0.112967 0.419424 0.199586
H5    H     H_    0.147773 0.889326 0.566369 0.101591
H6    H     H_    0.826144 0.654130 0.601310 0.144451
H7    H     H_    0.087186 0.654935 0.600051 0.138971
H8    H     H_    0.214211 0.456707 0.287129 0.214239
H9    H     H_    0.203957 0.288363 0.317029 0.188699
H10   H     H_    0.965257 0.454575 0.288036 0.210399
H11   H     H_    0.951867 0.286066 0.319789 0.192432
H12   H     H_    0.859977 0.303422 0.995408 0.184829
H13   H     H_    0.442470 0.577441 0.172671 0.133685
H14   H     H_    0.263016 0.570740 0.118049 0.135980
H15   H     H_    0.581405 0.332491 0.755509 0.170862
H16   H     H_    0.727011 0.888304 0.505808 0.167011
N1    N     N_R   0.852320 0.499070 0.499340 -0.182353
N2    N     N_R   0.148230 0.499110 0.499340 -0.181269
O1    O     O_R   0.381190 0.680360 0.500000 -0.589088
O2    O     O_R   0.618780 0.680320 0.499990 -0.582961
O3    O     O_R   0.323230 0.500000 0.650990 -0.576310
O4    O     O_R   0.560820 0.499960 0.650980 -0.580343
O5    O     O_R   0.381220 0.319680 0.500010 -0.576456
O6    O     O_R   0.618810 0.319640 0.500000 -0.593982
O7    O     O_R   0.439180 0.500040 0.349020 -0.580826
O8    O     O_R   0.676770 0.500000 0.349010 -0.579222
N3    N     N_2   0.209621 0.872926 0.397823 -0.403547
H17   H     H_    0.168837 0.784352 0.408806 0.263258
C33   C     C_3   0.326575 0.887165 0.298927 -0.635059
H18   H     H_    0.287169 0.854015 0.233601 0.207975
H19   H     H_    0.424077 0.831368 0.298888 0.216737
H20   H     H_    0.359065 0.985185 0.284464 0.228675
O9    O     O_3   0.793234 0.261368 0.834392 -0.588606
C34   C     C_3   0.858791 0.280306 0.725447 -0.334504
H21   H     H_    0.866045 0.379486 0.703979 0.163910
H22   H     H_    0.798438 0.227892 0.680044 0.172234
H23   H     H_    0.973152 0.244254 0.702317 0.180653
N4    N     N_2   0.146544 0.630594 0.819523 -0.422850
H24   H     H_    0.198420 0.672713 0.749023 0.246554
C35   C     C_3   0.017062 0.559494 0.822077 -0.605974
H25   H     H_    0.945897 0.613349 0.786776 0.200095
H26   H     H_    0.951645 0.538508 0.904278 0.251415
H27   H     H_    0.049704 0.472028 0.777500 0.233229
N5    N     N_2   0.068852 0.654195 0.037841 -0.414086
H28   H     H_    0.020968 0.620301 0.112529 0.241898
C36   C     C_3   0.079220 0.787129 0.037595 -0.646427
H29   H     H_    0.969222 0.827048 0.079000 0.225461
H30   H     H_    0.115580 0.822306 0.955862 0.247609
H31   H     H_    0.158413 0.817500 0.078743 0.207098

loop_
_geom_bond_atom_site_label_1
_geom_bond_atom_site_label_2
_ccdc_geom_bond_type
C24   N2    A    
C23   O6    A    
C33   H19   S    
Cu1   O3    S    
C27   C29   S    
C4    C8    A    
C25   H9    S    
C26   H10   S    
Cu1   N2    S    
Cu2   O4    S    
C11   C19   S    
Cu2   N1    S    
C35   H26   S    
C8    C29   A    
C19   H5    S    
C18   H3    S    
C20   N1    A    
C3    C7    A    
C27   O8    A    
C5    C6    A    
C36   H29   S    
N5    C36   S    
C22   H7    S    
C15   C16   A    
C2    C32   A    
C18   C19   S    
N3    C33   S    
C1    O1    A    
C26   H11   S    
C20   C24   A    
C16   C17   A    
C35   H27   S    
C9    C29   A    
C33   H20   S    
Cu1   O7    S    
C13   C14   A    
Cu2   O8    S    
C32   H14   S    
C36   H31   S    
Cu1   Cu2   S    
Cu1   O1    S    
C35   H25   S    
O9    C34   S    
C24   C25   S    
C7    H15   S    
N4    C35   S    
N5    H28   S    
C34   H21   S    
C25   C26   S    
C2    C4    A    
C1    O2    A    
C5    C28   A    
C10   C30   A    
C31   C32   A    
C30   C31   A    
C28   H12   S    
C17   C18   S    
Cu2   O6    S    
C12   O4    A    
C10   C12   S    
C36   H30   S    
C6    O9    S    
Cu2   O2    S    
C16   C23   S    
C1    C13   S    
C15   H2    S    
C21   N1    A    
C31   N5    S    
C22   N2    A    
C23   O5    A    
C11   C17   A    
Cu1   O5    S    
N4    H24   S    
C25   H8    S    
C30   N4    S    
C6    C7    A    
C2    C3    A    
C18   H4    S    
C8    H13   S    
C3    C10   A    
C27   O7    A    
C11   C13   A    
C14   H16   S    
C21   H6    S    
C20   C26   S    
C19   N3    S    
C34   H23   S    
N3    H17   S    
C12   O3    A    
C33   H18   S    
C4    C5    A    
C34   H22   S    
C9    H1    S    
C14   C15   A    
C21   C22   A    
C9    C28   A    
