data_str_m9_o13_o16_f0_sra.sym.185
_audit_creation_date              2013-03-05T15:44:18-0500
_audit_creation_method            fapswitch 2.2
_symmetry_space_group_name_H-M    P1
_symmetry_Int_Tables_number       1
_space_group_crystal_system       triclinic
_cell_length_a                    20.782633
_cell_length_b                    7.094948
_cell_length_c                    16.670668
_cell_angle_alpha                 89.998838
_cell_angle_beta                  93.16923
_cell_angle_gamma                 89.999181
_cell_volume                      2454.35889326

loop_
_atom_site_label
_atom_site_type_symbol
_atom_site_description
_atom_site_fract_x
_atom_site_fract_y
_atom_site_fract_z
_atom_type_partial_charge
O1    O     O_R   0.564840 0.505290 0.579830 -0.554356
O2    O     O_R   0.435160 0.005290 0.420170 -0.554356
O3    O     O_R   0.556720 0.179930 0.409350 -0.558531
O4    O     O_R   0.443280 0.679930 0.590650 -0.558506
C1    C     C_R   0.570981 0.345120 0.382647 0.823275
C2    C     C_R   0.429018 0.845123 0.617354 0.823245
O5    O     O_R   0.572280 0.175810 0.578530 -0.566654
O6    O     O_R   0.427720 0.675810 0.421470 -0.566650
O7    O     O_R   0.450830 0.001920 0.590540 -0.557513
O8    O     O_R   0.549170 0.501920 0.409460 -0.557492
C3    C     C_R   0.590412 0.342649 0.604589 0.816538
C4    C     C_R   0.409589 0.842653 0.395410 0.816548
O9    O     O_3   0.460130 0.338030 0.503750 -0.279606
O10   O     O_3   0.539870 0.838030 0.496250 -0.279603
V1    V     V_3+5 0.507400 0.064560 0.499310 1.141297
V2    V     V_3+5 0.492600 0.564560 0.500690 1.141316
C5    C     C_R   0.141603 0.927295 0.170980 -0.071359
C6    C     C_R   0.858393 0.427310 0.829025 -0.071361
C7    C     C_R   0.354035 0.838160 0.334873 -0.102462
C8    C     C_R   0.645967 0.338150 0.665124 -0.102432
C9    C     C_R   0.285733 0.649738 0.241206 -0.038093
C10   C     C_R   0.714279 0.149720 0.758784 -0.038036
C11   C     C_R   0.341417 0.670421 0.291135 -0.075270
C12   C     C_R   0.658594 0.170399 0.708854 -0.075392
C13   C     C_R   0.310055 0.988087 0.325345 -0.114998
C14   C     C_R   0.689940 0.488090 0.674659 -0.115005
C15   C     C_R   0.253570 0.967794 0.274899 0.088063
C16   C     C_R   0.746425 0.467802 0.725105 0.088022
C17   C     C_R   0.241024 0.796555 0.233115 0.082119
C18   C     C_R   0.758979 0.296553 0.766884 0.082433
C19   C     C_R   0.184615 0.775807 0.182848 -0.036127
C20   C     C_R   0.815387 0.275813 0.817154 -0.035805
C21   C     C_R   0.154071 0.095516 0.214405 -0.060070
C22   C     C_R   0.845918 0.595540 0.785604 -0.060121
C23   C     C_R   0.209051 0.115195 0.265901 -0.056995
C24   C     C_R   0.790937 0.615217 0.734110 -0.057069
H1    H     H_    0.175773 0.644926 0.150605 0.125287
H2    H     H_    0.824231 0.144931 0.849400 0.125161
H3    H     H_    0.121651 0.214670 0.207415 0.080788
H4    H     H_    0.878333 0.714701 0.792597 0.080785
H5    H     H_    0.277528 0.518137 0.209239 0.098415
H6    H     H_    0.722490 0.018110 0.790745 0.098205
H7    H     H_    0.217261 0.247156 0.297572 0.061989
H8    H     H_    0.782720 0.747185 0.702443 0.061990
H9    H     H_    0.374412 0.552313 0.296436 0.097529
H10   H     H_    0.625605 0.052278 0.703547 0.097483
H11   H     H_    0.318668 0.117496 0.358809 0.080048
H12   H     H_    0.681321 0.617509 0.641200 0.080053
C25   C     C_R   0.387770 0.869812 0.831975 0.002049
C26   C     C_R   0.612195 0.369496 0.168018 0.002250
H13   H     H_    0.474623 0.848616 0.769667 0.080233
H14   H     H_    0.525365 0.347868 0.230344 0.080286
H15   H     H_    0.414808 0.868380 0.889331 0.145187
H16   H     H_    0.585139 0.367589 0.110684 0.145439
C27   C     C_R   0.390609 0.855007 0.688248 -0.078050
C28   C     C_R   0.609377 0.354982 0.311746 -0.078049
C29   C     C_R   0.080178 0.908719 0.737666 -0.105838
C30   C     C_R   0.919794 0.408514 0.262311 -0.105872
C31   C     C_R   0.113398 0.901632 0.667839 0.215390
C32   C     C_R   0.886572 0.401407 0.332133 0.215386
C33   C     C_R   0.180368 0.892807 0.671539 -0.049016
C34   C     C_R   0.819601 0.392728 0.328427 -0.049036
C35   C     C_R   0.216664 0.890102 0.745947 -0.014521
C36   C     C_R   0.783302 0.390228 0.254018 -0.014526
C37   C     C_R   0.182403 0.897638 0.818459 -0.109507
C38   C     C_R   0.817562 0.397816 0.181509 -0.109463
C39   C     C_R   0.285902 0.879805 0.750065 0.017815
C40   C     C_R   0.714066 0.379982 0.249900 0.017804
C41   C     C_R   0.319943 0.882126 0.826452 -0.079442
C42   C     C_R   0.680015 0.382344 0.173515 -0.079322
C43   C     C_R   0.286282 0.892161 0.896771 0.308028
C44   C     C_R   0.713661 0.392830 0.103177 0.307429
C45   C     C_R   0.218822 0.896211 0.892985 0.293278
C46   C     C_R   0.781139 0.396705 0.106980 0.293235
C47   C     C_R   0.323053 0.866079 0.680947 -0.072909
C48   C     C_R   0.676926 0.366265 0.319029 -0.072922
C49   C     C_R   0.422500 0.857115 0.763664 -0.094316
C50   C     C_R   0.577482 0.356712 0.236337 -0.094409
C51   C     C_R   0.112961 0.907564 0.813138 -0.103495
C52   C     C_R   0.887012 0.407558 0.186838 -0.103501
H17   H     H_    0.301487 0.863035 0.620730 0.040868
H18   H     H_    0.698492 0.363403 0.379247 0.040852
H19   H     H_    0.027995 0.915818 0.732940 0.078370
H20   H     H_    0.971980 0.415481 0.267041 0.078376
H21   H     H_    0.202322 0.889111 0.614645 0.084517
H22   H     H_    0.797654 0.388944 0.385323 0.084521
O11   O     O_R   0.950790 0.256670 0.090520 -0.546953
O12   O     O_R   0.049210 0.756670 0.909480 -0.546966
O13   O     O_R   0.927720 0.590370 0.921470 -0.546137
O14   O     O_R   0.072280 0.090370 0.078530 -0.546172
C53   C     C_R   0.912106 0.423480 0.892305 0.900891
C54   C     C_R   0.087895 0.923474 0.107692 0.900797
O15   O     O_R   0.943270 0.586180 0.090640 -0.555815
O16   O     O_R   0.056730 0.086180 0.909360 -0.555810
O17   O     O_R   0.064850 0.759970 0.079840 -0.547101
O18   O     O_R   0.935150 0.259970 0.920160 -0.547097
C55   C     C_R   0.928575 0.417267 0.117029 0.878135
C56   C     C_R   0.071416 0.917268 0.882962 0.877971
O19   O     O_3   0.039850 0.428050 0.996240 -0.269077
O20   O     O_3   0.960150 0.928050 0.003760 -0.269127
V3    V     V_3+5 0.992610 0.701540 0.000700 1.225464
V4    V     V_3+5 0.007390 0.201540 0.999300 1.225461
I1    I     I_    0.061697 0.905051 0.555149 -0.361869
I2    I     I_    0.938273 0.404550 0.444825 -0.361875
N1    N     N_R   0.188489 0.894722 0.967156 0.061600
O21   O     O_R   0.195111 0.041516 0.013609 -0.344980
O22   O     O_R   0.175261 0.731941 0.997979 -0.359522
N2    N     N_R   0.811508 0.395418 0.032835 0.061923
O23   O     O_R   0.804915 0.542292 0.986418 -0.344797
O24   O     O_R   0.824838 0.232716 0.002012 -0.359700
N3    N     N_R   0.320607 0.895837 0.973978 0.110343
O25   O     O_R   0.352574 0.045793 0.997099 -0.327046
O26   O     O_R   0.317179 0.753411 0.022766 -0.299602
N4    N     N_R   0.679293 0.397664 0.025981 0.110370
O27   O     O_R   0.646442 0.546731 0.003866 -0.328463
O28   O     O_R   0.683843 0.258042 0.976037 -0.298690

loop_
_geom_bond_atom_site_label_1
_geom_bond_atom_site_label_2
_geom_bond_distance
_ccdc_geom_bond_type
C35   C37   1.437468 A    
C28   C48   1.404657 A    
O18   V4    1.986812 S    
C52   C55   1.488737 S    
C15   C17   1.417476 A    
C29   C51   1.397303 A    
C1    C28   1.463895 S    
N3    O25   1.301382 A    
O1    C3    1.326672 A    
C2    C27   1.463954 S    
O2    C4    1.326676 A    
C2    O7    1.290463 A    
O12   V3    2.011708 S    
C37   C45   1.418638 A    
C37   C51   1.442729 A    
O5    C3    1.309135 A    
N1    O22   1.299642 A    
C26   H16   1.081877 S    
C11   H9    1.083292 S    
C6    C53   1.493161 S    
C36   C40   1.438580 A    
C27   C49   1.388525 A    
C29   C31   1.386754 A    
O16   C56   1.318292 A    
C30   C32   1.386707 A    
C38   C46   1.418708 A    
C44   N4    1.437305 S    
C28   C50   1.388435 A    
N2    O23   1.300637 A    
C32   C34   1.391163 A    
C41   C43   1.399778 A    
O14   V4    1.997080 S    
C34   C36   1.415864 A    
C51   C56   1.488702 S    
C53   O18   1.328974 A    
C45   N1    1.418667 S    
C8    C12   1.412682 A    
N2    O24   1.299643 A    
C43   N3    1.436885 S    
C29   H19   1.084185 S    
C20   H2    1.083564 S    
O13   C53   1.313894 A    
C23   H7    1.083748 S    
C13   H11   1.084085 S    
C22   C24   1.397718 A    
C14   H12   1.084091 S    
C27   C47   1.404734 A    
O5    V1    1.997105 S    
O6    V2    1.997068 S    
C25   C41   1.410246 A    
C5    C54   1.493164 S    
C5    C21   1.412446 A    
H14   C50   1.084029 S    
C26   C50   1.384448 A    
N4    O27   1.301046 A    
C35   C39   1.438631 A    
C3    C8    1.491193 S    
C31   C33   1.391194 A    
C44   C46   1.400578 A    
C48   H18   1.076719 S    
C43   C45   1.400208 A    
C47   H17   1.076734 S    
C15   C23   1.398876 A    
C9    C17   1.397388 A    
C54   O17   1.328963 A    
C19   H1    1.083551 S    
C39   C41   1.422241 A    
C36   C38   1.437401 A    
O4    V2    2.034629 S    
C7    C11   1.412675 A    
H13   C49   1.084029 S    
C30   H20   1.084189 S    
O11   V4    2.011714 S    
C34   H22   1.075286 S    
O14   C54   1.313898 A    
O6    C4    1.309133 A    
O20   V4    2.177766 S    
N3    O26   1.301569 A    
O1    V2    1.988064 S    
C21   H3    1.083295 S    
O2    V1    1.988082 S    
C6    C22   1.412451 A    
O16   V4    2.034570 S    
C33   H21   1.075304 S    
C9    H5    1.083898 S    
O4    C2    1.293950 A    
O19   V3    2.177744 S    
C9    C11   1.395395 A    
C13   C15   1.413104 A    
C5    C19   1.404917 A    
C22   H4    1.083298 S    
C24   H8    1.083754 S    
C6    C20   1.404925 A    
O15   V3    2.034557 S    
O15   C55   1.318288 A    
O3    V1    2.034614 S    
C10   C18   1.397395 A    
O13   V3    1.997116 S    
C33   C35   1.415826 A    
O3    C1    1.293910 A    
N4    O28   1.300853 A    
C30   C52   1.397293 A    
C40   C48   1.425374 A    
C38   C52   1.442851 A    
N1    O21   1.300611 A    
C14   C16   1.413101 A    
C31   I1    2.112127 S    
C16   C18   1.417481 A    
C26   C42   1.410333 A    
C12   H10   1.083296 S    
C1    O8    1.290471 A    
C17   C19   1.410538 A    
O8    V2    2.022489 S    
C18   C20   1.410540 A    
C10   H6    1.083903 S    
C8    C14   1.405742 A    
C25   H15   1.081974 S    
C4    C7    1.491188 S    
O20   V3    1.744755 S    
C21   C23   1.397720 A    
C25   C49   1.384491 A    
C10   C12   1.395394 A    
O7    V1    2.022487 S    
C7    C13   1.405735 A    
C46   N2    1.418628 S    
O19   V4    1.744770 S    
C39   C47   1.425356 A    
C16   C24   1.398883 A    
C40   C42   1.422318 A    
O9    V2    1.744983 S    
O10   V1    1.744966 S    
C42   C44   1.400029 A    
C32   I2    2.112135 S    
O12   C56   1.315022 A    
O17   V3    1.986832 S    
O11   C55   1.315038 A    
