data_str_m2_o10_o14_f0_pcu.sym.67
_audit_creation_date              2012-10-26T19:59:42-0400
_audit_creation_method            fapswitch 2.2
_symmetry_space_group_name_H-M    P1
_symmetry_Int_Tables_number       1
_space_group_crystal_system       triclinic
_cell_length_a                    10.756722
_cell_length_b                    8.741718
_cell_length_c                    7.444765
_cell_angle_alpha                 102.436812
_cell_angle_beta                  94.231571
_cell_angle_gamma                 92.44481
_cell_volume                      680.523893513

loop_
_atom_site_label
_atom_site_type_symbol
_atom_type_description
_atom_site_fract_x
_atom_site_fract_y
_atom_site_fract_z
_atom_type_partial_charge
C1    C     C_R   0.493992 0.200031 0.454964 0.566663
C2    C     C_R   0.499142 0.799211 0.546420 0.540875
C3    C     C_R   0.737358 0.506455 0.498645 0.531631
C4    C     C_R   0.149642 0.764094 0.743548 -0.093502
C5    C     C_R   0.094029 0.887320 0.854451 -0.110030
C6    C     C_R   0.964726 0.890880 0.846736 -0.120474
C7    C     C_R   0.890263 0.770741 0.728917 -0.100778
C8    C     C_R   0.944568 0.642495 0.618387 0.025137
C9    C     C_R   0.076053 0.639556 0.624934 0.020894
C10   C     C_R   0.129426 0.514505 0.507528 0.006461
C11   C     C_R   0.054439 0.398968 0.382605 -0.144483
C12   C     C_R   0.926249 0.401153 0.377496 -0.147047
C13   C     C_R   0.871222 0.519211 0.496928 0.004804
C14   C     C_2   0.495625 0.033497 0.433284 -0.130902
C15   C     C_2   0.485073 0.964007 0.575233 0.033180
C16   C     C_R   0.262824 0.504751 0.502954 0.535139
Cu1   Cu    Cu3+1 0.513920 0.517380 0.684380 0.985362
Cu2   Cu    Cu3+1 0.486080 0.482620 0.315620 0.985981
H1    H     H_    0.095576 0.304679 0.290718 0.129244
H2    H     H_    0.605529 0.609792 0.048315 0.241129
H3    H     H_    0.250258 0.769374 0.750289 0.164965
H4    H     H_    0.151490 0.981619 0.944990 0.141880
H5    H     H_    0.921936 0.988077 0.930804 0.120930
H6    H     H_    0.790391 0.781528 0.723026 0.139836
H7    H     H_    0.869633 0.307633 0.283703 0.132659
H8    H     H_    0.511600 0.966026 0.296997 0.129720
H9    H     H_    0.390312 0.398074 0.953932 0.262509
I1    I     I_    0.438156 0.068733 0.847974 -0.385039
N1    N     N_2   0.465100 0.456430 0.038520 -0.234080
N2    N     N_2   0.534900 0.543570 0.961480 -0.248624
O1    O     O_R   0.509050 0.286130 0.619770 -0.464849
O2    O     O_R   0.485540 0.256780 0.308360 -0.476713
O3    O     O_R   0.331410 0.514680 0.655740 -0.517522
O4    O     O_R   0.307900 0.485330 0.344330 -0.499936
O5    O     O_R   0.514460 0.743220 0.691640 -0.492089
O6    O     O_R   0.490950 0.713870 0.380230 -0.521516
O7    O     O_R   0.692100 0.514670 0.655670 -0.504931
O8    O     O_R   0.668590 0.485320 0.344260 -0.506485

loop_
_geom_bond_atom_site_label_1
_geom_bond_atom_site_label_2
_ccdc_geom_bond_type
C2    O5    A    
C11   C12   A    
C6    C7    A    
Cu1   N2    S    
C16   O3    A    
H9    N1    S    
C9    C10   A    
C3    C13   S    
C12   H7    S    
Cu1   Cu2   S    
Cu2   O8    S    
C7    C8    A    
Cu2   N1    S    
H2    N2    S    
C14   H8    S    
C4    H3    S    
C2    C15   S    
Cu2   O4    S    
C11   H1    S    
C15   I1    S    
N1    N2    D    
Cu1   O3    S    
C6    H5    S    
C5    C6    A    
Cu1   O1    S    
Cu2   O2    S    
C10   C11   A    
C7    H6    S    
C8    C13   A    
C1    O1    A    
C12   C13   A    
C3    O7    A    
C2    O6    A    
C10   C16   S    
C14   C15   D    
C8    C9    A    
Cu1   O7    S    
C1    C14   S    
Cu1   O5    S    
C16   O4    A    
C4    C9    A    
Cu2   O6    S    
C1    O2    A    
C5    H4    S    
C3    O8    A    
C4    C5    A    
