data_str_m4_o22_o24_f0_acs.sym.26
_audit_creation_date              2012-12-11T15:08:45-0500
_audit_creation_method            fapswitch 2.2
_symmetry_space_group_name_H-M    P1
_symmetry_Int_Tables_number       1
_space_group_crystal_system       triclinic
_cell_length_a                    19.411386
_cell_length_b                    11.359137
_cell_length_c                    18.722879
_cell_angle_alpha                 89.99986
_cell_angle_beta                  90.069218
_cell_angle_gamma                 90.000042
_cell_volume                      4128.32801683

loop_
_atom_site_label
_atom_site_type_symbol
_atom_type_description
_atom_site_fract_x
_atom_site_fract_y
_atom_site_fract_z
_atom_type_partial_charge
C1    C     C_R   0.272425 0.043324 0.854149 0.532010
C2    C     C_3   0.688109 0.528249 0.956458 -0.235808
C3    C     C_R   0.227408 0.546536 0.352999 0.537270
C4    C     C_R   0.468419 0.821885 0.645398 0.535869
C5    C     C_R   0.531580 0.821884 0.354601 0.535866
C6    C     C_R   0.968420 0.321885 0.645398 0.535867
C7    C     C_R   0.031580 0.321885 0.354602 0.535867
C8    C     C_R   0.260174 0.640410 0.643789 0.536153
C9    C     C_R   0.739825 0.640410 0.356212 0.536158
C10   C     C_R   0.760175 0.140410 0.643789 0.536165
C11   C     C_R   0.239825 0.140410 0.356211 0.536152
C12   C     C_3   0.479475 0.915545 0.035536 -0.109399
C13   C     C_3   0.811891 0.028250 0.043542 -0.235808
C14   C     C_3   0.520525 0.915545 0.964463 -0.109399
C15   C     C_3   0.979475 0.415545 0.035536 -0.109399
C16   C     C_3   0.020525 0.415545 0.964463 -0.109399
C17   C     C_3   0.431457 0.818247 0.006129 -0.158293
C18   C     C_3   0.568543 0.818247 0.993871 -0.158294
C19   C     C_3   0.931457 0.318246 0.006129 -0.158293
C20   C     C_3   0.068543 0.318247 0.993871 -0.158293
C21   C     C_3   0.472481 0.819866 0.935899 0.057172
C22   C     C_3   0.527520 0.819867 0.064101 0.057172
C23   C     C_3   0.972481 0.319866 0.935899 0.057172
C24   C     C_3   0.188109 0.028249 0.956458 -0.235809
C25   C     C_3   0.027519 0.319867 0.064101 0.057172
C26   C     C_1   0.145662 0.748054 0.419560 0.159323
C27   C     C_1   0.854337 0.748056 0.580440 0.159330
C28   C     C_1   0.645659 0.248052 0.419560 0.159345
C29   C     C_1   0.354335 0.248057 0.580441 0.159319
C30   C     C_3   0.067684 0.738141 0.581101 -0.309182
C31   C     C_3   0.932312 0.738151 0.418885 -0.309203
C32   C     C_3   0.567716 0.238217 0.581148 -0.309162
C33   C     C_3   0.432332 0.238111 0.418908 -0.309188
C34   C     C_3   0.321391 0.553666 0.963286 -0.234168
C35   C     C_3   0.678609 0.553666 0.036714 -0.234168
C36   C     C_3   0.821391 0.053666 0.963286 -0.234168
C37   C     C_3   0.178609 0.053666 0.036714 -0.234167
C38   C     C_3   0.179917 0.523346 0.025849 -0.208958
C39   C     C_3   0.820083 0.523346 0.974151 -0.208958
C40   C     C_3   0.679917 0.023346 0.025849 -0.208958
C41   C     C_R   0.727575 0.043324 0.145851 0.532011
C42   C     C_3   0.320083 0.023347 0.974151 -0.208958
C43   C     C_3   0.240710 0.706892 0.056559 -0.256259
C44   C     C_3   0.759290 0.706892 0.943441 -0.256259
C45   C     C_3   0.740710 0.206892 0.056559 -0.256260
C46   C     C_3   0.259290 0.206892 0.943441 -0.256260
C47   C     C_3   0.241122 0.574438 0.070170 0.064376
C48   C     C_3   0.758878 0.574438 0.929830 0.064376
C49   C     C_3   0.741122 0.074438 0.070170 0.064376
C50   C     C_3   0.258878 0.074438 0.929830 0.064376
C51   C     C_3   0.255034 0.610123 0.932203 0.055157
C52   C     C_R   0.772425 0.543323 0.854149 0.532011
C53   C     C_3   0.744966 0.610123 0.067796 0.055157
C54   C     C_3   0.755035 0.110123 0.932203 0.055157
C55   C     C_3   0.244966 0.110123 0.067796 0.055157
C56   C     C_3   0.195093 0.524887 0.945073 -0.253408
C57   C     C_3   0.804907 0.524887 0.054927 -0.253408
C58   C     C_3   0.695093 0.024887 0.945073 -0.253408
C59   C     C_3   0.304907 0.024887 0.054927 -0.253408
C60   C     C_3   0.238635 0.724997 0.974720 -0.223188
C61   C     C_3   0.761365 0.724997 0.025280 -0.223187
C62   C     C_3   0.738635 0.224997 0.974720 -0.223188
C63   C     C_R   0.227575 0.543324 0.145851 0.532010
C64   C     C_3   0.261365 0.224997 0.025280 -0.223188
C65   C     C_3   0.504964 0.694578 0.460190 -0.220184
C66   C     C_3   0.495037 0.694580 0.539810 -0.220184
C67   C     C_3   0.004964 0.194579 0.460190 -0.220184
C68   C     C_3   0.995036 0.194579 0.539810 -0.220183
C69   C     C_R   0.444804 0.817159 0.862266 0.534268
C70   C     C_R   0.555196 0.817159 0.137735 0.534269
C71   C     C_R   0.944804 0.317159 0.862265 0.534271
C72   C     C_R   0.055196 0.317159 0.137735 0.534270
C73   C     C_3   0.563902 0.897633 0.473830 -0.214503
C74   C     C_3   0.520040 0.723011 0.964696 -0.112487
C75   C     C_3   0.436095 0.897631 0.526166 -0.214499
C76   C     C_3   0.063903 0.397632 0.473832 -0.214498
C77   C     C_3   0.936097 0.397633 0.526168 -0.214502
C78   C     C_3   0.441041 0.877062 0.444714 -0.267795
C79   C     C_3   0.558956 0.877071 0.555283 -0.267798
C80   C     C_3   0.941043 0.377067 0.444716 -0.267797
C81   C     C_3   0.058958 0.377066 0.555284 -0.267796
C82   C     C_3   0.510907 0.822681 0.430959 0.052799
C83   C     C_3   0.489091 0.822683 0.569040 0.052800
C84   C     C_3   0.010908 0.322682 0.430960 0.052798
C85   C     C_3   0.479961 0.723012 0.035304 -0.112487
C86   C     C_3   0.989092 0.322682 0.569040 0.052797
C87   C     C_3   0.173441 0.645840 0.459609 -0.064171
C88   C     C_3   0.826558 0.645842 0.540390 -0.064169
C89   C     C_3   0.673441 0.145840 0.459610 -0.064168
C90   C     C_3   0.326558 0.145842 0.540391 -0.064169
C91   C     C_3   0.182557 0.674306 0.537822 0.030160
C92   C     C_3   0.817442 0.674308 0.462177 0.030158
C93   C     C_3   0.682560 0.174312 0.537821 0.030151
C94   C     C_3   0.317445 0.174305 0.462177 0.030160
C95   C     C_3   0.250753 0.464053 0.471265 -0.244089
C96   C     C_3   0.020039 0.223011 0.964696 -0.112487
C97   C     C_3   0.749247 0.464057 0.528736 -0.244091
C98   C     C_3   0.750752 0.964055 0.471265 -0.244091
C99   C     C_3   0.249246 0.964055 0.528736 -0.244087
C100  C     C_3   0.300629 0.658594 0.443066 -0.285354
C101  C     C_3   0.699371 0.658597 0.556934 -0.285355
C102  C     C_3   0.800629 0.158594 0.443065 -0.285357
C103  C     C_3   0.199371 0.158596 0.556934 -0.285353
C104  C     C_3   0.238409 0.580523 0.428724 0.028752
C105  C     C_3   0.761590 0.580526 0.571277 0.028750
C106  C     C_3   0.738409 0.080524 0.428724 0.028748
C107  C     C_3   0.979961 0.223012 0.035304 -0.112487
C108  C     C_3   0.261590 0.080525 0.571276 0.028751
C109  C     C_3   0.248957 0.611032 0.567293 0.047970
C110  C     C_3   0.751042 0.611034 0.432708 0.047970
C111  C     C_3   0.748958 0.111033 0.567292 0.047962
C112  C     C_3   0.251043 0.111033 0.432708 0.047973
C113  C     C_3   0.239878 0.480646 0.552122 -0.281412
C114  C     C_3   0.760120 0.480647 0.447879 -0.281414
C115  C     C_3   0.739876 0.980647 0.552122 -0.281419
C116  C     C_3   0.260121 0.980647 0.447879 -0.281409
C117  C     C_R   0.262132 0.642107 0.855040 0.534471
C118  C     C_3   0.311891 0.528250 0.043542 -0.235808
C119  C     C_R   0.737868 0.642106 0.144960 0.534472
C120  C     C_R   0.762132 0.142107 0.855040 0.534474
C121  C     C_R   0.237868 0.142107 0.144960 0.534471
C122  C     C_3   0.313870 0.653097 0.524636 -0.252050
C123  C     C_3   0.686129 0.653099 0.475364 -0.252049
C124  C     C_3   0.813871 0.153096 0.524636 -0.252053
C125  C     C_3   0.186130 0.153100 0.475364 -0.252048
C126  C     C_R   0.272591 0.046537 0.647001 0.537268
C127  C     C_R   0.727408 0.046536 0.352999 0.537272
C128  C     C_R   0.772591 0.546537 0.647001 0.537271
Cr1   Cr    Cr6+3 0.229620 0.836040 0.749110 0.989856
Cr2   Cr    Cr6+3 0.613980 0.676590 0.250790 1.015092
Cr3   Cr    Cr6+3 0.886020 0.176590 0.749210 1.015093
Cr4   Cr    Cr6+3 0.113980 0.176590 0.250790 1.015091
Cr5   Cr    Cr6+3 0.770380 0.836040 0.250890 0.989843
Cr6   Cr    Cr6+3 0.729620 0.336040 0.749110 0.989830
Cr7   Cr    Cr6+3 0.270380 0.336040 0.250890 0.989854
Cr8   Cr    Cr6+3 0.387630 0.990680 0.750730 1.010752
Cr9   Cr    Cr6+3 0.612370 0.990680 0.249270 1.010753
Cr10  Cr    Cr6+3 0.887630 0.490680 0.750730 1.010749
Cr11  Cr    Cr6+3 0.112370 0.490680 0.249270 1.010754
Cr12  Cr    Cr6+3 0.386020 0.676590 0.749210 1.015089
H1    H     H_    0.376566 0.805201 0.016842 0.091780
H2    H     H_    0.712764 0.746017 0.918935 0.104440
H3    H     H_    0.223152 0.929731 0.416625 0.157664
H4    H     H_    0.317268 0.433975 0.053654 0.131053
H5    H     H_    0.682732 0.433975 0.946346 0.131052
H6    H     H_    0.817268 0.933975 0.053654 0.131053
H7    H     H_    0.182732 0.933975 0.946346 0.131052
H8    H     H_    0.353858 0.570929 0.074445 0.110791
H9    H     H_    0.646142 0.570929 0.925555 0.110791
H10   H     H_    0.853858 0.070929 0.074445 0.110791
H11   H     H_    0.146142 0.070929 0.925555 0.110792
H12   H     H_    0.365882 0.613669 0.955632 0.136349
H13   H     H_    0.787236 0.246018 0.081064 0.104440
H14   H     H_    0.634118 0.613668 0.044368 0.136349
H15   H     H_    0.865882 0.113669 0.955632 0.136349
H16   H     H_    0.134118 0.113668 0.044367 0.136349
H17   H     H_    0.333473 0.470345 0.934688 0.119624
H18   H     H_    0.666527 0.470344 0.065313 0.119624
H19   H     H_    0.833473 0.970345 0.934688 0.119624
H20   H     H_    0.166527 0.970344 0.065313 0.119624
H21   H     H_    0.665314 0.937919 0.046770 0.099591
H22   H     H_    0.334686 0.937919 0.953230 0.099591
H23   H     H_    0.165313 0.437919 0.046770 0.099591
H24   H     H_    0.212764 0.246017 0.918935 0.104440
H25   H     H_    0.834687 0.437919 0.953230 0.099591
H26   H     H_    0.708790 0.936424 0.925644 0.111618
H27   H     H_    0.291210 0.936424 0.074357 0.111618
H28   H     H_    0.208790 0.436424 0.925644 0.111618
H29   H     H_    0.791210 0.436424 0.074357 0.111618
H30   H     H_    0.124115 0.599631 0.623531 0.273325
H31   H     H_    0.019284 0.701125 0.603301 0.160824
H32   H     H_    0.056212 0.774693 0.527572 0.152265
H33   H     H_    0.086090 0.809901 0.616635 0.163418
H34   H     H_    0.875884 0.599619 0.376474 0.273316
H35   H     H_    0.273709 0.794289 0.958552 0.107688
H36   H     H_    0.980750 0.701086 0.396809 0.160814
H37   H     H_    0.943699 0.774882 0.472388 0.152223
H38   H     H_    0.913951 0.809796 0.383242 0.163455
H39   H     H_    0.624116 0.099611 0.623516 0.273296
H40   H     H_    0.519286 0.201194 0.603274 0.160824
H41   H     H_    0.556295 0.274933 0.527647 0.152229
H42   H     H_    0.586125 0.309862 0.616768 0.163460
H43   H     H_    0.375885 0.099623 0.376468 0.273322
H44   H     H_    0.480762 0.201032 0.396820 0.160828
H45   H     H_    0.443732 0.274797 0.472421 0.152249
H46   H     H_    0.726291 0.794289 0.041447 0.107688
H47   H     H_    0.413983 0.309792 0.383283 0.163432
H48   H     H_    0.773709 0.294290 0.958552 0.107689
H49   H     H_    0.226291 0.294290 0.041447 0.107688
H50   H     H_    0.185320 0.751582 0.960614 0.131342
H51   H     H_    0.814680 0.751583 0.039385 0.131341
H52   H     H_    0.685320 0.251582 0.960614 0.131341
H53   H     H_    0.623434 0.805201 0.983158 0.091780
H54   H     H_    0.314680 0.251583 0.039385 0.131341
H55   H     H_    0.632885 0.077646 0.034943 0.138144
H56   H     H_    0.367115 0.077646 0.965056 0.138144
H57   H     H_    0.132885 0.577646 0.034943 0.138144
H58   H     H_    0.867115 0.577646 0.965056 0.138144
H59   H     H_    0.148530 0.553785 0.915308 0.124500
H60   H     H_    0.851470 0.553785 0.084692 0.124500
H61   H     H_    0.648530 0.053785 0.915308 0.124500
H62   H     H_    0.351470 0.053785 0.084692 0.124500
H63   H     H_    0.549533 0.640705 0.446966 0.143595
H64   H     H_    0.876566 0.305201 0.016842 0.091780
H65   H     H_    0.450469 0.640704 0.553035 0.143595
H66   H     H_    0.049532 0.140704 0.446966 0.143596
H67   H     H_    0.950467 0.140705 0.553034 0.143596
H68   H     H_    0.461222 0.647911 0.434377 0.118105
H69   H     H_    0.538780 0.647917 0.565624 0.118102
H70   H     H_    0.961221 0.147914 0.434377 0.118105
H71   H     H_    0.038778 0.147914 0.565624 0.118104
H72   H     H_    0.615628 0.890883 0.453297 0.104565
H73   H     H_    0.384369 0.890883 0.546701 0.104563
H74   H     H_    0.115629 0.390884 0.453298 0.104565
H75   H     H_    0.123434 0.305202 0.983158 0.091780
H76   H     H_    0.884371 0.390883 0.546702 0.104564
H77   H     H_    0.600701 0.819950 0.575148 0.109415
H78   H     H_    0.399297 0.819935 0.424852 0.109414
H79   H     H_    0.100702 0.319940 0.575148 0.109414
H80   H     H_    0.899298 0.319943 0.424852 0.109415
H81   H     H_    0.464331 0.995856 0.065218 0.113726
H82   H     H_    0.535669 0.995856 0.934781 0.113726
H83   H     H_    0.964331 0.495856 0.065218 0.113726
H84   H     H_    0.035669 0.495856 0.934781 0.113726
H85   H     H_    0.438561 0.960146 0.415326 0.140148
H86   H     H_    0.195209 0.750134 0.081396 0.129881
H87   H     H_    0.561432 0.960161 0.584666 0.140123
H88   H     H_    0.938565 0.460153 0.415330 0.140139
H89   H     H_    0.061437 0.460152 0.584671 0.140149
H90   H     H_    0.452369 0.989681 0.535401 0.139789
H91   H     H_    0.547627 0.989682 0.464591 0.139767
H92   H     H_    0.952371 0.489682 0.535405 0.139785
H93   H     H_    0.047629 0.489681 0.464596 0.139771
H94   H     H_    0.132845 0.582981 0.455502 0.149351
H95   H     H_    0.867155 0.582984 0.544498 0.149362
H96   H     H_    0.632845 0.082980 0.455507 0.149348
H97   H     H_    0.804790 0.750134 0.918603 0.129882
H98   H     H_    0.367155 0.082985 0.544501 0.149366
H99   H     H_    0.192176 0.766887 0.543620 0.153306
H100  H     H_    0.807823 0.766889 0.456378 0.153314
H101  H     H_    0.692188 0.266891 0.543613 0.153303
H102  H     H_    0.307832 0.266889 0.456374 0.153318
H103  H     H_    0.721217 0.890505 0.450333 0.107663
H104  H     H_    0.278781 0.890505 0.549668 0.107663
H105  H     H_    0.221219 0.390502 0.450333 0.107664
H106  H     H_    0.778783 0.390508 0.549669 0.107662
H107  H     H_    0.688333 0.950381 0.568091 0.120647
H108  H     H_    0.695209 0.250134 0.081396 0.129881
H109  H     H_    0.311663 0.950374 0.431908 0.120674
H110  H     H_    0.188335 0.450377 0.568092 0.120670
H111  H     H_    0.811662 0.450376 0.431908 0.120664
H112  H     H_    0.346141 0.625986 0.413150 0.116081
H113  H     H_    0.653859 0.625990 0.586851 0.116075
H114  H     H_    0.846141 0.125986 0.413149 0.116082
H115  H     H_    0.153859 0.125987 0.586850 0.116076
H116  H     H_    0.289765 0.749480 0.425484 0.117188
H117  H     H_    0.710234 0.749483 0.574515 0.117190
H118  H     H_    0.789766 0.249480 0.425485 0.117186
H119  H     H_    0.304790 0.250134 0.918603 0.129882
H120  H     H_    0.210234 0.249481 0.574515 0.117190
H121  H     H_    0.535468 0.642245 0.935611 0.122781
H122  H     H_    0.464533 0.642245 0.064390 0.122782
H123  H     H_    0.035468 0.142245 0.935611 0.122782
H124  H     H_    0.964533 0.142245 0.064390 0.122782
H125  H     H_    0.334950 0.733981 0.545476 0.114021
H126  H     H_    0.665048 0.733981 0.454523 0.114021
H127  H     H_    0.834952 0.233979 0.545476 0.114022
H128  H     H_    0.165049 0.233982 0.454523 0.114020
H129  H     H_    0.353511 0.584996 0.533435 0.142399
H130  H     H_    0.287236 0.746018 0.081064 0.104440
H131  H     H_    0.646489 0.584996 0.466566 0.142396
H132  H     H_    0.853511 0.084993 0.533435 0.142400
H133  H     H_    0.146490 0.084998 0.466565 0.142399
H134  H     H_    0.305846 0.442368 0.463136 0.132860
H135  H     H_    0.694154 0.442371 0.536868 0.132853
H136  H     H_    0.805845 0.942369 0.463135 0.132861
H137  H     H_    0.194154 0.942369 0.536866 0.132851
H138  H     H_    0.276845 0.429729 0.583376 0.157665
H139  H     H_    0.723151 0.429730 0.416627 0.157660
H140  H     H_    0.776843 0.929728 0.583376 0.157665
N1    N     N_1   0.120930 0.824513 0.387660 -0.338246
N2    N     N_1   0.879067 0.824515 0.612341 -0.338248
N3    N     N_1   0.620926 0.324510 0.387660 -0.338247
N4    N     N_1   0.379065 0.324515 0.612342 -0.338255
N5    N     N_2   0.119144 0.646165 0.576603 -0.548749
N6    N     N_2   0.880855 0.646167 0.423397 -0.548731
N7    N     N_2   0.619145 0.146192 0.576603 -0.548710
N8    N     N_2   0.380857 0.146152 0.423399 -0.548747
O1    O     O_R   0.214130 0.708570 0.829890 -0.529676
O2    O     O_R   0.542830 0.717300 0.331620 -0.524626
O3    O     O_R   0.957170 0.217300 0.668380 -0.524625
O4    O     O_R   0.042830 0.217300 0.331620 -0.524626
O5    O     O_R   0.320870 0.624890 0.673130 -0.493727
O6    O     O_R   0.679130 0.624890 0.326870 -0.493727
O7    O     O_R   0.820870 0.124890 0.673130 -0.493727
O8    O     O_R   0.179130 0.124890 0.326870 -0.493727
O9    O     O_3   0.334430 0.834430 0.749680 -0.290176
O10   O     O_3   0.665570 0.834430 0.250320 -0.290175
O11   O     O_3   0.834430 0.334430 0.749680 -0.290174
O12   O     O_R   0.785870 0.708570 0.170110 -0.529678
O13   O     O_3   0.165570 0.334430 0.250320 -0.290177
O14   O     O_R   0.236050 0.959150 0.825270 -0.515250
O15   O     O_R   0.763950 0.959150 0.174730 -0.515252
O16   O     O_R   0.736050 0.459150 0.825270 -0.515252
O17   O     O_R   0.263950 0.459150 0.174730 -0.515251
O18   O     O_R   0.332100 0.076650 0.832310 -0.528838
O19   O     O_R   0.667900 0.076650 0.167690 -0.528837
O20   O     O_R   0.832100 0.576650 0.832310 -0.528837
O21   O     O_R   0.167900 0.576650 0.167690 -0.528837
O22   O     O_R   0.446500 0.918620 0.826240 -0.505354
O23   O     O_R   0.714130 0.208570 0.829890 -0.529679
O24   O     O_R   0.553500 0.918620 0.173760 -0.505354
O25   O     O_R   0.946500 0.418620 0.826240 -0.505355
O26   O     O_R   0.053500 0.418620 0.173760 -0.505354
O27   O     O_R   0.457310 0.715830 0.831280 -0.523851
O28   O     O_R   0.542690 0.715830 0.168720 -0.523852
O29   O     O_R   0.957310 0.215830 0.831280 -0.523851
O30   O     O_R   0.042690 0.215830 0.168720 -0.523852
O31   O     O_R   0.321000 0.623520 0.824130 -0.515569
O32   O     O_R   0.679000 0.623520 0.175870 -0.515568
O33   O     O_R   0.821000 0.123520 0.824130 -0.515568
O34   O     O_R   0.285870 0.208570 0.170110 -0.529678
O35   O     O_R   0.179000 0.123520 0.175870 -0.515568
O36   O     O_R   0.213990 0.710040 0.667000 -0.528871
O37   O     O_R   0.786010 0.710040 0.333000 -0.528875
O38   O     O_R   0.713990 0.210040 0.667000 -0.528872
O39   O     O_R   0.286010 0.210040 0.333000 -0.528877
O40   O     O_R   0.235920 0.960520 0.674260 -0.513697
O41   O     O_R   0.764080 0.960520 0.325740 -0.513696
O42   O     O_R   0.735920 0.460520 0.674260 -0.513707
O43   O     O_R   0.264080 0.460520 0.325740 -0.513691
O44   O     O_R   0.331960 0.078120 0.669410 -0.514034
O45   O     O_R   0.446360 0.919990 0.675230 -0.510000
O46   O     O_R   0.668040 0.078120 0.330590 -0.514034
O47   O     O_R   0.831960 0.578120 0.669410 -0.514034
O48   O     O_R   0.168040 0.578120 0.330590 -0.514035
O49   O     O_R   0.553640 0.919990 0.324770 -0.510004
O50   O     O_R   0.946360 0.419990 0.675230 -0.510004
O51   O     O_R   0.053640 0.419990 0.324770 -0.510002
O52   O     O_R   0.457170 0.717300 0.668380 -0.524628

loop_
_geom_bond_atom_site_label_1
_geom_bond_atom_site_label_2
_ccdc_geom_bond_type
C128  O47   A    
C55   C59   S    
C35   C53   S    
C73   H72   S    
C35   H14   S    
C69   O22   A    
C32   N7    S    
C41   O15   A    
C65   H68   S    
C125  H133  S    
C17   C85   S    
C10   O38   A    
C37   H20   S    
C87   C91   S    
C8    O5    A    
C100  C104  S    
C26   N1    T    
Cr9   O49   S    
C101  H117  S    
C89   C106  S    
C52   O20   A    
C63   O21   A    
C119  O12   A    
C81   C86   S    
C97   C105  S    
C111  C124  S    
C81   H89   S    
Cr7   O39   S    
C127  O41   A    
C41   C49   S    
Cr1   O14   S    
C40   C58   S    
C90   H98   S    
C20   H75   S    
Cr1   O36   S    
C99   C116  S    
C117  O31   A    
C106  C127  S    
C17   C21   S    
Cr4   O8    S    
C39   H25   S    
C101  H113  S    
C24   H11   S    
C110  C123  S    
Cr11  O26   S    
C7    O4    A    
C78   C82   S    
C65   H63   S    
C16   C20   S    
C68   H67   S    
C10   C111  S    
C97   H135  S    
C112  C125  S    
C98   H136  S    
C71   O25   A    
C72   O30   A    
H43   N8    S    
C39   H58   S    
Cr4   O13   S    
C120  O23   A    
C91   N5    S    
C31   N6    S    
C59   H27   S    
C25   C107  S    
C62   H48   S    
C9    C110  S    
C11   C112  S    
Cr1   O40   S    
Cr2   O6    S    
C98   C106  S    
Cr3   O3    S    
C5    C82   S    
C65   C82   S    
C114  H111  S    
Cr1   O9    S    
C89   H96   S    
C74   H121  S    
Cr8   O18   S    
C48   C52   S    
C60   H50   S    
C20   C25   S    
C61   H51   S    
C32   H40   S    
C108  C126  S    
C100  H116  S    
C43   C47   S    
C113  H138  S    
C44   C48   S    
C77   H76   S    
C115  H140  S    
C34   C118  S    
C55   C121  S    
C5    O49   A    
C103  H120  S    
Cr7   O34   S    
C99   C108  S    
C34   C51   S    
C95   H134  S    
Cr2   O10   S    
C8    O36   A    
Cr5   O41   S    
C79   H77   S    
C116  H109  S    
C40   C49   S    
H34   N6    S    
C12   C22   S    
C45   C62   S    
C22   C85   S    
H39   N7    S    
C99   H104  S    
C122  H129  S    
C53   C61   S    
C26   C87   S    
C64   H54   S    
C30   N5    S    
Cr5   O10   S    
C28   C89   S    
C110  C114  S    
Cr10  O20   S    
C20   C96   S    
C4    O45   A    
C37   H16   S    
Cr2   O2    S    
C45   H108  S    
C31   H36   S    
C24   C50   S    
Cr2   O28   S    
C31   H38   S    
Cr4   O30   S    
C32   H41   S    
Cr8   O44   S    
Cr12  O5    S    
C66   H65   S    
C34   H12   S    
Cr5   O37   S    
Cr12  O27   S    
C75   H73   S    
C102  H118  S    
C21   C69   S    
C6    O50   A    
C33   H44   S    
C24   C37   S    
C73   C79   S    
C30   H32   S    
C114  H139  S    
C42   C50   S    
C38   H23   S    
C16   C23   S    
C1    O14   A    
H30   N5    S    
C112  C116  S    
Cr8   O9    S    
C123  H131  S    
C88   H95   S    
C92   H100  S    
C126  O44   A    
C18   C22   S    
C9    O37   A    
C24   H7    S    
C42   C59   S    
C42   H22   S    
Cr12  O9    S    
C44   C61   S    
C6    C86   S    
C90   C108  S    
C125  H128  S    
Cr9   O24   S    
C93   H101  S    
C71   O29   A    
C88   C105  S    
C99   H137  S    
C123  H126  S    
C72   O26   A    
C98   C115  S    
C29   N4    T    
C94   C112  S    
C51   C117  S    
Cr5   O12   S    
C74   C85   S    
C89   C93   S    
Cr8   O45   S    
C58   H26   S    
Cr11  O13   S    
C36   C54   S    
C37   C55   S    
C34   H17   S    
C76   H74   S    
C38   C56   S    
C36   H15   S    
C73   H91   S    
C51   C60   S    
C97   C114  S    
C22   C70   S    
C40   H55   S    
C19   C107  S    
C2    C35   S    
Cr10  O47   S    
C28   N3    T    
C103  H115  S    
C69   O27   A    
C70   O28   A    
C85   H122  S    
C80   C84   S    
C5    O2    A    
C76   C84   S    
C27   N2    T    
C64   H49   S    
Cr11  O51   S    
C2    H5    S    
C15   C19   S    
C13   H10   S    
C47   C63   S    
Cr11  O48   S    
C81   H79   S    
C119  O32   A    
C17   H1    S    
C14   C18   S    
C36   H19   S    
C66   C83   S    
C121  O35   A    
C47   C118  S    
C124  H132  S    
C4    O52   A    
C12   C17   S    
C107  H124  S    
C1    C50   S    
Cr9   O19   S    
C43   H86   S    
Cr6   O23   S    
C117  O1    A    
C78   H85   S    
C128  O42   A    
Cr5   O15   S    
Cr3   O11   S    
C102  C124  S    
C70   O24   A    
C29   C90   S    
C14   H82   S    
C90   C94   S    
C115  H107  S    
C67   C68   S    
C23   C71   S    
C92   N6    S    
C97   H106  S    
C93   N7    S    
C53   C57   S    
C94   N8    S    
C54   C62   S    
C2    C48   S    
C102  H114  S    
C75   H90   S    
C120  O33   A    
Cr11  O21   S    
C45   C49   S    
C80   H88   S    
C42   H56   S    
C98   H103  S    
C67   H66   S    
C93   C111  S    
C96   C107  S    
Cr2   O32   S    
Cr6   O42   S    
Cr3   O29   S    
C45   H13   S    
C73   C82   S    
Cr10  O25   S    
C6    O3    A    
C77   C80   S    
C46   H119  S    
Cr12  O31   S    
C3    O43   A    
C124  H127  S    
C118  H8    S    
C35   H18   S    
C40   H21   S    
C78   H78   S    
C79   C83   S    
C75   C83   S    
C4    C83   S    
C19   H64   S    
Cr6   O11   S    
C15   H83   S    
C15   C25   S    
C87   C104  S    
C44   H2    S    
C126  O40   A    
Cr6   O38   S    
C60   H35   S    
C33   H45   S    
Cr10  O11   S    
C95   H105  S    
C39   C48   S    
C3    C104  S    
Cr4   O35   S    
C54   C120  S    
C68   C86   S    
C52   O16   A    
C19   C23   S    
C63   O17   A    
C92   C110  S    
C44   H97   S    
C101  C123  S    
C87   H94   S    
C31   H37   S    
C32   H42   S    
C118  H4    S    
Cr9   O46   S    
C109  C122  S    
C15   C16   S    
C39   C57   S    
C23   C96   S    
C67   H70   S    
C51   C56   S    
C43   H130  S    
C88   C92   S    
C58   H61   S    
Cr4   O4    S    
C76   H93   S    
C30   H33   S    
C109  C113  S    
C56   H59   S    
C2    H9    S    
C7    C84   S    
Cr1   O1    S    
C67   C84   S    
C18   C74   S    
C46   H24   S    
C18   H53   S    
Cr9   O10   S    
Cr6   O16   S    
C13   H6    S    
C103  C125  S    
Cr7   O13   S    
C79   H87   S    
C9    O6    A    
C57   H29   S    
C101  C105  S    
C11   O8    A    
C12   H81   S    
Cr12  O52   S    
C13   C36   S    
C62   H52   S    
C21   C74   S    
C41   O19   A    
C113  H110  S    
C46   C64   S    
C7    O51   A    
C116  H3    S    
C33   N8    S    
C55   C64   S    
C56   H28   S    
C38   H57   S    
Cr3   O7    S    
C33   H47   S    
C25   C72   S    
C66   H69   S    
C38   C47   S    
Cr3   O33   S    
C43   C60   S    
C13   C49   S    
C14   C21   S    
C12   C14   S    
C77   C86   S    
C96   H123  S    
C57   H60   S    
C11   O39   A    
C95   C104  S    
Cr7   O17   S    
C54   C58   S    
Cr8   O22   S    
C77   H92   S    
Cr7   O43   S    
C105  C128  S    
Cr10  O50   S    
C100  H112  S    
C76   C81   S    
C80   H80   S    
C53   C119  S    
C1    O18   A    
C46   C50   S    
C91   C109  S    
C94   H102  S    
C8    C109  S    
C95   C113  S    
C3    O48   A    
C61   H46   S    
C127  O46   A    
C102  C106  S    
C100  C122  S    
C59   H62   S    
C27   C88   S    
C75   C78   S    
C30   H31   S    
C16   H84   S    
C121  O34   A    
C65   C66   S    
C91   H99   S    
C103  C108  S    
C111  C115  S    
C68   H71   S    
C122  H125  S    
C10   O7    A    
