data_str_m9_o17_o18_f0_sra.sym.76
_audit_creation_date              2012-12-11T15:18:40-0500
_audit_creation_method            fapswitch 2.2
_symmetry_space_group_name_H-M    P1
_symmetry_Int_Tables_number       1
_space_group_crystal_system       triclinic
_cell_length_a                    6.943736
_cell_length_b                    19.904683
_cell_length_c                    23.834852
_cell_angle_alpha                 93.702486
_cell_angle_beta                  91.162542
_cell_angle_gamma                 88.76926
_cell_volume                      3286.05908596

loop_
_atom_site_label
_atom_site_type_symbol
_atom_type_description
_atom_site_fract_x
_atom_site_fract_y
_atom_site_fract_z
_atom_type_partial_charge
O1    O     O_R   0.620100 0.812200 0.810870 -0.546492
O2    O     O_R   0.379900 0.187800 0.189130 -0.546492
O3    O     O_R   0.296960 0.671650 0.794750 -0.526155
O4    O     O_R   0.703040 0.328350 0.205250 -0.526155
O5    O     O_R   0.120160 0.687800 0.689130 -0.508673
O6    O     O_R   0.879840 0.312200 0.310870 -0.508674
C1    C     C_R   0.468319 0.646990 0.804376 0.779233
C2    C     C_R   0.531681 0.353010 0.195624 0.779233
O7    O     O_R   0.290810 0.810670 0.817290 -0.538610
O8    O     O_R   0.709190 0.189330 0.182710 -0.538610
O9    O     O_R   0.113980 0.827820 0.711840 -0.537607
O10   O     O_R   0.886020 0.172180 0.288160 -0.537607
C3    C     C_R   0.459158 0.832959 0.833181 0.716612
C4    C     C_R   0.540842 0.167041 0.166819 0.716612
O11   O     O_R   0.626290 0.672180 0.788160 -0.547993
O12   O     O_R   0.373710 0.327820 0.211840 -0.547993
O13   O     O_3   0.451520 0.755460 0.715370 -0.354259
O14   O     O_3   0.548480 0.244540 0.284630 -0.354259
V1    V     V_3+5 0.179200 0.748980 0.756420 1.520885
V2    V     V_3+5 0.820800 0.251020 0.243580 1.520886
O15   O     O_R   0.783880 0.828350 0.705250 -0.546299
O16   O     O_R   0.216120 0.171650 0.294750 -0.546299
C5    C     C_R   0.950539 0.852459 0.694620 0.680671
C6    C     C_R   0.049461 0.147541 0.305380 0.680671
O17   O     O_R   0.790030 0.689320 0.682700 -0.542229
O18   O     O_R   0.209970 0.310680 0.317300 -0.542229
C7    C     C_R   0.959164 0.668683 0.665361 0.763319
C8    C     C_R   0.040836 0.331317 0.334639 0.763319
V3    V     V_3+5 0.678400 0.751010 0.743570 1.477967
V4    V     V_3+5 0.321600 0.248990 0.256430 1.477967
O19   O     O_3   0.955950 0.744540 0.784620 -0.371520
O20   O     O_3   0.044050 0.255460 0.215380 -0.371520
C9    C     C_R   0.180026 0.425300 0.396578 -0.284600
C10   C     C_R   0.819974 0.574700 0.603422 -0.284600
C11   C     C_R   0.030020 0.379890 0.384558 -0.195188
C12   C     C_R   0.969979 0.620110 0.615442 -0.195188
C13   C     C_R   0.868063 0.382300 0.419623 0.543937
C14   C     C_R   0.131937 0.617699 0.580377 0.543937
C15   C     C_R   0.856087 0.429699 0.465953 -0.021133
C16   C     C_R   0.143912 0.570301 0.534047 -0.021133
C17   C     C_R   0.006070 0.475787 0.476985 0.007692
C18   C     C_R   0.993930 0.524213 0.523015 0.007693
C19   C     C_R   0.168135 0.473594 0.442062 0.095783
C20   C     C_R   0.831865 0.526406 0.557938 0.095783
C21   C     C_R   0.696680 0.432043 0.501500 -0.141910
C22   C     C_R   0.303320 0.567957 0.498500 -0.141910
C23   C     C_R   0.684883 0.479853 0.547016 -0.184146
C24   C     C_R   0.315117 0.520147 0.452984 -0.184146
H1    H     H_    0.304399 0.424041 0.369706 0.164568
H2    H     H_    0.695601 0.575959 0.630294 0.164568
H3    H     H_    0.579801 0.397209 0.494028 0.185370
H4    H     H_    0.420199 0.602790 0.505972 0.185370
H5    H     H_    0.559832 0.480632 0.573546 0.133708
H6    H     H_    0.440168 0.519368 0.426454 0.133708
C25   C     C_R   0.953013 0.913834 0.663004 -0.034367
C26   C     C_R   0.046987 0.086166 0.336996 -0.034367
C27   C     C_R   0.921209 0.034947 0.662775 -0.173873
C28   C     C_R   0.078785 0.965053 0.337224 -0.173871
C29   C     C_R   0.924491 0.976406 0.691704 -0.179754
C30   C     C_R   0.075504 0.023594 0.308295 -0.179753
C31   C     C_R   0.980108 0.910171 0.604464 -0.203056
C32   C     C_R   0.019895 0.089829 0.395536 -0.203055
C33   C     C_R   0.977416 0.969425 0.573684 0.082628
C34   C     C_R   0.022584 0.030575 0.426316 0.082628
C35   C     C_R   0.947011 0.032111 0.604399 0.142913
C36   C     C_R   0.052987 0.967889 0.395600 0.142912
C37   C     C_R   0.002839 0.968919 0.513854 0.055585
C38   C     C_R   0.997161 0.031081 0.486146 0.055585
C39   C     C_R   0.966359 0.091591 0.519202 -0.178839
C40   C     C_R   0.033640 0.908409 0.480798 -0.178837
C41   C     C_R   0.942117 0.091876 0.576900 -0.198843
C42   C     C_R   0.057879 0.908124 0.423099 -0.198842
H7    H     H_    0.918844 0.139768 0.600365 0.125603
H8    H     H_    0.081149 0.860231 0.399635 0.125602
H9    H     H_    0.998774 0.139464 0.415513 0.108525
H10   H     H_    0.001233 0.860536 0.584487 0.108526
H11   H     H_    0.094704 0.020063 0.263257 0.100668
H12   H     H_    0.905288 0.979936 0.736742 0.100669
H13   H     H_    0.898631 0.082837 0.686260 0.110128
H14   H     H_    0.101360 0.917162 0.313739 0.110127
H15   H     H_    0.959929 0.140141 0.501742 0.133813
H16   H     H_    0.040068 0.859859 0.498257 0.133813
C43   C     C_R   0.488061 0.586020 0.835930 -0.128216
C44   C     C_R   0.511939 0.413980 0.164070 -0.128216
C45   C     C_R   0.582559 0.468874 0.837277 -0.153517
C46   C     C_R   0.417441 0.531126 0.162723 -0.153517
C47   C     C_R   0.556677 0.526732 0.808266 -0.272660
C48   C     C_R   0.443322 0.473268 0.191733 -0.272660
C49   C     C_R   0.452038 0.588186 0.893911 0.532352
C50   C     C_R   0.547962 0.411813 0.106089 0.532352
C51   C     C_R   0.495911 0.531065 0.925878 -0.026196
C52   C     C_R   0.504089 0.468935 0.074122 -0.026196
C53   C     C_R   0.551752 0.470325 0.895305 0.081361
C54   C     C_R   0.448248 0.529675 0.104695 0.081361
C55   C     C_R   0.485559 0.530938 0.986252 0.068300
C56   C     C_R   0.514441 0.469062 0.013748 0.068300
C57   C     C_R   0.546875 0.409438 0.979686 -0.123207
C58   C     C_R   0.453124 0.590562 0.020314 -0.123206
C59   C     C_R   0.572569 0.410620 0.922308 -0.199926
C60   C     C_R   0.427431 0.589379 0.077692 -0.199927
H17   H     H_    0.604915 0.363611 0.898464 0.123419
H18   H     H_    0.395085 0.636389 0.101536 0.123419
H19   H     H_    0.413788 0.475074 0.236289 0.131302
H20   H     H_    0.586212 0.524926 0.763711 0.131302
H21   H     H_    0.628857 0.422776 0.814279 0.128154
H22   H     H_    0.371143 0.577224 0.185721 0.128154
H23   H     H_    0.549537 0.360169 0.995479 0.206037
H24   H     H_    0.450463 0.639831 0.004521 0.206037
C61   C     C_R   0.475785 0.048238 0.126405 0.031505
C62   C     C_R   0.524214 0.951762 0.873594 0.031505
C63   C     C_R   0.530250 0.115625 0.119127 -0.097861
C64   C     C_R   0.469749 0.884375 0.880873 -0.097860
C65   C     C_R   0.573177 0.135204 0.065530 -0.230669
C66   C     C_R   0.426824 0.864796 0.934470 -0.230669
C67   C     C_R   0.559785 0.089835 0.018294 0.096487
C68   C     C_R   0.440215 0.910165 0.981705 0.096487
C69   C     C_R   0.506194 0.022818 0.024229 0.035893
C70   C     C_R   0.493805 0.977182 0.975771 0.035893
C71   C     C_R   0.465430 0.001338 0.078374 0.085306
C72   C     C_R   0.534569 0.998662 0.921626 0.085306
C73   C     C_R   0.598118 0.111031 0.964925 -0.172749
C74   C     C_R   0.401882 0.888969 0.035074 -0.172748
C75   C     C_R   0.584972 0.066538 0.917404 -0.199489
C76   C     C_R   0.415028 0.933462 0.082596 -0.199491
H25   H     H_    0.614190 0.186754 0.060554 0.156006
H26   H     H_    0.385811 0.813246 0.939446 0.156006
H27   H     H_    0.637942 0.162603 0.959772 0.131281
H28   H     H_    0.362059 0.837397 0.040228 0.131281
H29   H     H_    0.614307 0.086781 0.877607 0.131227
H30   H     H_    0.385693 0.913220 0.122393 0.131228
F1    F     F_    0.632599 0.354662 0.083411 -0.731799
F2    F     F_    0.367401 0.645338 0.916589 -0.731799
C77   C     C_3   0.434628 0.026595 0.185133 -0.379442
C78   C     C_3   0.612199 0.992130 0.210781 -0.318403
C79   C     C_3   0.570372 0.969417 0.269173 -0.737229
H31   H     H_    0.533197 0.013524 0.298182 0.241174
H32   H     H_    0.449246 0.933744 0.266881 0.222004
H33   H     H_    0.699630 0.943444 0.286235 0.222860
H34   H     H_    0.657782 0.947560 0.183429 0.197595
H35   H     H_    0.733298 0.027922 0.214240 0.192391
H36   H     H_    0.391235 0.069840 0.213966 0.178235
H37   H     H_    0.308216 0.993392 0.183995 0.161521
C80   C     C_3   0.565368 0.973405 0.814867 -0.379439
C81   C     C_3   0.387795 0.007869 0.789219 -0.318398
C82   C     C_3   0.429621 0.030583 0.730827 -0.737221
H38   H     H_    0.550744 0.066257 0.733119 0.222001
H39   H     H_    0.466801 0.986476 0.701818 0.241172
H40   H     H_    0.300359 0.056554 0.713765 0.222859
H41   H     H_    0.266697 0.972076 0.785760 0.192389
H42   H     H_    0.342210 0.052439 0.816572 0.197594
H43   H     H_    0.691779 0.006608 0.816005 0.161519
H44   H     H_    0.608762 0.930160 0.786034 0.178233
F3    F     F_    0.723581 0.337864 0.409304 -0.697113
F4    F     F_    0.276419 0.662136 0.590696 -0.697113

loop_
_geom_bond_atom_site_label_1
_geom_bond_atom_site_label_2
_ccdc_geom_bond_type
C79   H33   S    
C43   C47   A    
C33   C35   A    
C67   C73   A    
C25   C29   A    
O13   V3    S    
C17   C18   A    
C27   H13   S    
C1    C43   S    
C55   C56   A    
O4    C2    A    
V1    O19   S    
C82   H40   S    
C70   C72   A    
C64   C66   A    
C82   H38   S    
C55   C58   A    
C79   H31   S    
C15   C17   A    
C71   C76   A    
C24   H6    S    
O9    V1    S    
C77   H37   S    
C49   F2    S    
C18   C20   A    
C34   C38   A    
C11   C13   A    
C73   H27   S    
C3    C64   S    
O3    C1    A    
C69   C71   A    
C78   H35   S    
C66   H26   S    
C46   C48   A    
C27   C29   A    
C65   H25   S    
C21   H3    S    
C28   C30   A    
C80   C81   S    
C22   H4    S    
C52   C56   A    
C58   H24   S    
C31   C33   A    
C39   C41   A    
O7    C3    A    
C32   C34   A    
C46   C54   A    
C57   C59   A    
O5    C7    A    
C45   C53   A    
C28   C36   A    
C36   C42   A    
C8    C11   S    
O8    V2    S    
C38   C39   A    
C67   C69   A    
C81   H42   S    
O3    V1    S    
O14   V4    S    
C49   C51   A    
C19   C24   A    
C53   C59   A    
O14   V2    S    
C20   C23   A    
C28   H14   S    
C15   C21   A    
C26   C32   A    
C16   C18   A    
C2    O12   A    
C75   H29   S    
C17   C19   A    
C46   H22   S    
C44   C50   A    
C45   H21   S    
C29   H12   S    
C60   H18   S    
C82   H39   S    
O7    V1    S    
O11   V3    S    
C33   C37   A    
C21   C23   A    
C31   H10   S    
O17   V3    S    
C4    C63   S    
C43   C49   A    
C22   C24   A    
C30   H11   S    
C10   H2    S    
C45   C47   A    
C61   C77   S    
C37   C38   A    
C9    C19   A    
C13   F3    S    
C10   C20   A    
C42   H8    S    
O8    C4    A    
C62   C72   A    
C78   H34   S    
C41   H7    S    
C1    O11   A    
C35   C41   A    
O15   V3    S    
C26   C30   A    
O4    V2    S    
C16   C22   A    
C81   H41   S    
V4    O20   S    
C51   C53   A    
C50   C52   A    
C54   C60   A    
C56   C57   A    
O10   V2    S    
O1    V3    S    
C76   H30   S    
C63   C65   A    
C68   C74   A    
C50   F1    S    
C80   H44   S    
C59   H17   S    
O18   V4    S    
C58   C60   A    
O15   C5    A    
C77   C78   S    
O16   C6    A    
C32   H9    S    
O1    C3    A    
C14   F4    S    
O12   V4    S    
C74   C76   A    
C12   C14   A    
C48   H19   S    
C61   C71   A    
V2    O20   S    
C40   H16   S    
C79   H32   S    
C80   H43   S    
O16   V4    S    
C2    C44   S    
O18   C8    A    
C44   C48   A    
C27   C35   A    
C81   C82   S    
C66   C68   A    
C72   C75   A    
C5    C25   S    
C78   C79   S    
O5    V1    S    
C7    C12   S    
C6    C26   S    
O6    V2    S    
O10   C6    A    
C77   H36   S    
C23   H5    S    
O2    V4    S    
C37   C40   A    
C61   C63   A    
V3    O19   S    
C69   C70   A    
C14   C16   A    
C9    C11   A    
C52   C54   A    
C25   C31   A    
O9    C5    A    
O13   V1    S    
C68   C70   A    
C10   C12   A    
C74   H28   S    
C62   C80   S    
O2    C4    A    
C62   C64   A    
C73   C75   A    
C39   H15   S    
C51   C55   A    
C47   H20   S    
C57   H23   S    
O6    C8    A    
C13   C15   A    
C40   C42   A    
C9    H1    S    
C34   C36   A    
C65   C67   A    
O17   C7    A    
