data_str_m9_o2_o19_f0_sra.sym.36
_audit_creation_date              2012-12-11T16:28:26-0500
_audit_creation_method            fapswitch 2.2
_symmetry_space_group_name_H-M    P1
_symmetry_Int_Tables_number       1
_space_group_crystal_system       triclinic
_cell_length_a                    17.005468
_cell_length_b                    7.252358
_cell_length_c                    14.856957
_cell_angle_alpha                 90.139136
_cell_angle_beta                  94.33146
_cell_angle_gamma                 90.623184
_cell_volume                      1826.95349388

loop_
_atom_site_label
_atom_site_type_symbol
_atom_type_description
_atom_site_fract_x
_atom_site_fract_y
_atom_site_fract_z
_atom_type_partial_charge
O1    O     O_R   0.663460 0.361760 0.165970 -0.543396
O2    O     O_R   0.336540 0.638240 0.834030 -0.543395
O3    O     O_R   0.836540 0.861760 0.334030 -0.528506
O4    O     O_R   0.163460 0.138240 0.665970 -0.528505
O5    O     O_R   0.827100 0.689870 0.163730 -0.519466
O6    O     O_R   0.172900 0.310130 0.836270 -0.519470
O7    O     O_R   0.672900 0.189870 0.336270 -0.541854
O8    O     O_R   0.327100 0.810130 0.663730 -0.541852
C1    C     C_R   0.854756 0.523711 0.145438 0.717927
C2    C     C_R   0.145244 0.476289 0.854561 0.717928
C3    C     C_R   0.645255 0.023046 0.354529 0.714933
C4    C     C_R   0.354745 0.976954 0.645471 0.714935
O9    O     O_R   0.663490 0.691370 0.155500 -0.531228
O10   O     O_R   0.336510 0.308630 0.844500 -0.531228
O11   O     O_R   0.836510 0.191370 0.344500 -0.545530
O12   O     O_R   0.163490 0.808630 0.655500 -0.545530
O13   O     O_R   0.671770 0.863320 0.325740 -0.519358
O14   O     O_R   0.328230 0.136680 0.674260 -0.519356
O15   O     O_R   0.828230 0.363320 0.174260 -0.543785
O16   O     O_R   0.171770 0.636680 0.825740 -0.543785
C5    C     C_R   0.637335 0.521830 0.131967 0.644552
C6    C     C_R   0.362664 0.478170 0.868033 0.644551
C7    C     C_R   0.862860 0.023656 0.368005 0.645082
C8    C     C_R   0.137139 0.976344 0.631995 0.645083
O17   O     O_3   0.752910 0.528800 0.305860 -0.368670
O18   O     O_3   0.247090 0.471200 0.694140 -0.368667
O19   O     O_3   0.747090 0.028800 0.194140 -0.373375
O20   O     O_3   0.252910 0.971200 0.805860 -0.373378
V1    V     V_3+5 0.749460 0.803010 0.239640 1.528197
V2    V     V_3+5 0.250540 0.196990 0.760360 1.528191
V3    V     V_3+5 0.750540 0.303010 0.260360 1.463413
V4    V     V_3+5 0.249460 0.696990 0.739640 1.463413
C9    C     C_1   0.469498 0.994685 0.530946 0.130645
C10   C     C_1   0.530501 0.005315 0.469054 0.130651
C11   C     C_1   0.030549 0.494176 0.969136 0.116092
C12   C     C_1   0.969450 0.505824 0.030863 0.116087
H1    H     H_    0.796510 0.701032 0.655777 0.194010
H2    H     H_    0.203489 0.298970 0.344223 0.194008
H3    H     H_    0.701014 0.743392 0.821153 0.191899
H4    H     H_    0.298986 0.256594 0.178843 0.191901
C13   C     C_R   0.010433 0.193443 0.335376 -0.242415
C14   C     C_R   0.989567 0.806557 0.664624 -0.242413
C15   C     C_R   0.490565 0.373286 0.179568 -0.245532
C16   C     C_R   0.509435 0.626698 0.820429 -0.245534
C17   C     C_R   0.080443 0.273779 0.313190 0.626492
C18   C     C_R   0.919556 0.726221 0.686809 0.626489
C19   C     C_R   0.421421 0.299979 0.208288 0.624796
C20   C     C_R   0.578580 0.699998 0.791708 0.624799
C21   C     C_R   0.148713 0.245464 0.367183 -0.159518
C22   C     C_R   0.851286 0.754537 0.632816 -0.159515
C23   C     C_R   0.353274 0.303160 0.151940 -0.158401
C24   C     C_R   0.646726 0.696828 0.848057 -0.158407
C25   C     C_R   0.148249 0.136544 0.445055 -0.108020
C26   C     C_R   0.851750 0.863459 0.554945 -0.108018
C27   C     C_R   0.352957 0.379628 0.065298 -0.110276
C28   C     C_R   0.647042 0.620373 0.934701 -0.110279
C29   C     C_R   0.074849 0.071133 0.476045 -0.009896
C30   C     C_R   0.925151 0.928867 0.523954 -0.009897
C31   C     C_R   0.425702 0.436421 0.029526 -0.012476
C32   C     C_R   0.574298 0.563579 0.970473 -0.012472
C33   C     C_R   0.004900 0.094901 0.417164 0.005396
C34   C     C_R   0.995100 0.905099 0.582836 0.005396
C35   C     C_R   0.495513 0.438351 0.090039 0.003673
C36   C     C_R   0.504487 0.561644 0.909961 0.003673
C37   C     C_R   0.068928 0.981612 0.561368 -0.110072
C38   C     C_R   0.931071 0.018388 0.438631 -0.110071
C39   C     C_R   0.431275 0.492799 0.937669 -0.108349
C40   C     C_R   0.568725 0.507201 0.062331 -0.108348
C41   C     C_1   0.417517 0.986044 0.583336 -0.068884
C42   C     C_1   0.582483 0.013956 0.416664 -0.068875
C43   C     C_1   0.082559 0.484932 0.916829 -0.072362
C44   C     C_1   0.917440 0.515069 0.083170 -0.072370
H5    H     H_    0.961029 0.211461 0.286508 0.155623
H6    H     H_    0.038970 0.788537 0.713491 0.155622
H7    H     H_    0.539862 0.377112 0.229677 0.155400
H8    H     H_    0.460139 0.622866 0.770320 0.155398
C45   C     C_2   0.226449 0.074631 0.482168 0.432974
H9    H     H_    0.233581 0.937713 0.510220 0.013707
O21   O     O_2   0.284653 0.173254 0.477302 -0.515216
C46   C     C_2   0.773550 0.925377 0.517834 0.432968
H10   H     H_    0.766420 0.062292 0.489779 0.013710
O22   O     O_2   0.715345 0.826760 0.522704 -0.515214
C47   C     C_2   0.274103 0.419565 0.022123 0.430808
H11   H     H_    0.264164 0.546067 0.984709 0.013652
O23   O     O_2   0.218459 0.315603 0.032152 -0.519368
C48   C     C_2   0.725897 0.580455 0.977880 0.430820
H12   H     H_    0.735840 0.453954 0.015293 0.013643
O24   O     O_2   0.781537 0.684432 0.967855 -0.519367
F1    F     F_    0.082940 0.371102 0.235563 -0.678944
F2    F     F_    0.917060 0.628897 0.764436 -0.678949
F3    F     F_    0.419534 0.234627 0.293594 -0.674375
F4    F     F_    0.580468 0.765336 0.706398 -0.674368

loop_
_geom_bond_atom_site_label_1
_geom_bond_atom_site_label_2
_ccdc_geom_bond_type
O17   V3    S    
C16   C20   A    
C4    C41   S    
O1    C5    A    
C27   C31   A    
O19   V1    S    
O13   V1    S    
O3    C7    A    
C11   C12   S    
C1    C44   S    
C13   C33   A    
O15   V3    S    
C3    C42   S    
C15   C35   A    
H2    C21   S    
C45   H9    S    
C16   C36   A    
O7    C3    A    
C22   C26   A    
C7    C38   S    
O9    V1    S    
C26   C30   A    
O4    C8    A    
C48   O24   D    
O1    V3    S    
O2    V4    S    
C14   C18   A    
O3    V1    S    
C31   C39   A    
C33   C38   A    
C30   C38   A    
C2    O16   A    
O2    C6    A    
O14   V2    S    
C17   F1    S    
C10   C42   T    
C26   C46   S    
C9    C41   T    
C2    C43   S    
O11   C7    A    
H3    C24   S    
C11   C43   T    
O12   C8    A    
O10   V2    S    
C1    O15   A    
O5    V1    S    
C45   O21   D    
C15   H7    S    
C14   H6    S    
O7    V3    S    
O8    V4    S    
C36   C39   A    
C46   O22   D    
C25   C29   A    
C48   H12   S    
C19   C23   A    
C28   C32   A    
C25   C45   S    
O5    C1    A    
C28   C48   S    
C47   H11   S    
C17   C21   A    
O8    C4    A    
C9    C10   S    
O9    C5    A    
C29   C33   A    
C30   C34   A    
C8    C37   S    
C47   O23   D    
C5    C40   S    
C27   C47   S    
O16   V4    S    
C14   C34   A    
C35   C40   A    
C3    O13   A    
C34   C37   A    
O6    V2    S    
C19   F3    S    
C29   C37   A    
C46   H10   S    
O6    C2    A    
O11   V3    S    
C18   F2    S    
O12   V4    S    
H4    C23   S    
C18   C22   A    
C31   C35   A    
C32   C36   A    
O10   C6    A    
O20   V2    S    
H1    C22   S    
C21   C25   A    
C23   C27   A    
C6    C39   S    
C13   H5    S    
C12   C44   T    
C20   C24   A    
C32   C40   A    
C20   F4    S    
C4    O14   A    
C13   C17   A    
C16   H8    S    
C15   C19   A    
O18   V4    S    
O4    V2    S    
C24   C28   A    
