data_str_m9_o2_o19_f0_sra.sym.110
_audit_creation_date              2012-12-11T16:28:22-0500
_audit_creation_method            fapswitch 2.2
_symmetry_space_group_name_H-M    P1
_symmetry_Int_Tables_number       1
_space_group_crystal_system       triclinic
_cell_length_a                    16.546728
_cell_length_b                    7.256195
_cell_length_c                    15.221658
_cell_angle_alpha                 90.095616
_cell_angle_beta                  94.705455
_cell_angle_gamma                 90.070736
_cell_volume                      1821.4438621

loop_
_atom_site_label
_atom_site_type_symbol
_atom_type_description
_atom_site_fract_x
_atom_site_fract_y
_atom_site_fract_z
_atom_type_partial_charge
O1    O     O_R   0.663460 0.361760 0.165970 -0.533807
O2    O     O_R   0.336540 0.638240 0.834030 -0.533806
O3    O     O_R   0.836540 0.861760 0.334030 -0.533407
O4    O     O_R   0.163460 0.138240 0.665970 -0.533407
O5    O     O_R   0.827100 0.689870 0.163730 -0.527068
O6    O     O_R   0.172900 0.310130 0.836270 -0.527067
O7    O     O_R   0.672900 0.189870 0.336270 -0.527231
O8    O     O_R   0.327100 0.810130 0.663730 -0.527230
H1    H     H_    0.211989 0.946387 0.503197 0.094514
H2    H     H_    0.788010 0.053613 0.496803 0.094514
H3    H     H_    0.286663 0.495667 0.996091 0.091852
H4    H     H_    0.713337 0.504332 0.003909 0.091852
C1    C     C_R   0.853319 0.522939 0.143657 0.702596
C2    C     C_R   0.146681 0.477061 0.856343 0.702596
C3    C     C_R   0.646700 0.022957 0.356375 0.702599
C4    C     C_R   0.353300 0.977042 0.643625 0.702599
O9    O     O_R   0.663490 0.691370 0.155500 -0.536489
O10   O     O_R   0.336510 0.308630 0.844500 -0.536489
O11   O     O_R   0.836510 0.191370 0.344500 -0.536981
O12   O     O_R   0.163490 0.808630 0.655500 -0.536981
O13   O     O_R   0.671770 0.863320 0.325740 -0.522099
O14   O     O_R   0.328230 0.136680 0.674260 -0.522099
O15   O     O_R   0.828230 0.363320 0.174260 -0.522137
O16   O     O_R   0.171770 0.636680 0.825740 -0.522137
C5    C     C_R   0.635031 0.522809 0.135193 0.689724
C6    C     C_R   0.364969 0.477191 0.864807 0.689724
C7    C     C_R   0.864988 0.023252 0.364837 0.689591
C8    C     C_R   0.135012 0.976748 0.635163 0.689591
H5    H     H_    0.133408 0.966501 0.231321 0.136823
H6    H     H_    0.866592 0.033499 0.768679 0.136823
H7    H     H_    0.365087 0.529601 0.267768 0.141712
H8    H     H_    0.634913 0.470399 0.732232 0.141712
O17   O     O_3   0.752910 0.528800 0.305860 -0.367658
O18   O     O_3   0.247090 0.471200 0.694140 -0.367658
O19   O     O_3   0.747090 0.028800 0.194140 -0.367741
O20   O     O_3   0.252910 0.971200 0.805860 -0.367741
V1    V     V_3+5 0.749460 0.803010 0.239640 1.500751
V2    V     V_3+5 0.250540 0.196990 0.760360 1.500751
V3    V     V_3+5 0.750540 0.303010 0.260360 1.499962
V4    V     V_3+5 0.249460 0.696990 0.739640 1.499962
C9    C     C_1   0.468832 0.994744 0.530126 0.059574
C10   C     C_1   0.531168 0.005255 0.469874 0.059574
C11   C     C_1   0.031158 0.494769 0.969859 0.062331
C12   C     C_1   0.968842 0.505231 0.030141 0.062331
C13   C     C_R   0.037487 0.991220 0.318505 -0.061029
C14   C     C_R   0.962513 0.008780 0.681495 -0.061029
C15   C     C_R   0.461857 0.520693 0.181074 -0.062161
C16   C     C_R   0.538142 0.479307 0.818926 -0.062161
C17   C     C_R   0.118153 0.969370 0.299371 -0.146002
C18   C     C_R   0.881847 0.030630 0.700629 -0.146002
C19   C     C_R   0.380551 0.522218 0.199869 -0.144263
C20   C     C_R   0.619449 0.477782 0.800131 -0.144263
C21   C     C_R   0.179716 0.952889 0.366196 0.001427
C22   C     C_R   0.820284 0.047111 0.633804 0.001427
C23   C     C_R   0.318698 0.514076 0.132954 -0.000686
C24   C     C_R   0.681302 0.485924 0.867046 -0.000686
C25   C     C_R   0.161548 0.958455 0.453611 -0.171593
C26   C     C_R   0.838451 0.041545 0.546389 -0.171593
C27   C     C_R   0.337250 0.502557 0.045783 -0.169461
C28   C     C_R   0.662750 0.497443 0.954217 -0.169461
C29   C     C_R   0.080761 0.979180 0.476829 0.062081
C30   C     C_R   0.919239 0.020820 0.523171 0.062081
C31   C     C_R   0.418648 0.500367 0.022906 0.062327
C32   C     C_R   0.581352 0.499633 0.977093 0.062327
C33   C     C_R   0.016393 0.994693 0.408446 0.022050
C34   C     C_R   0.983606 0.005307 0.591554 0.022050
C35   C     C_R   0.483215 0.511231 0.091326 0.020823
C36   C     C_R   0.516785 0.488769 0.908674 0.020823
C37   C     C_R   0.064965 0.985671 0.567309 -0.162331
C38   C     C_R   0.935035 0.014329 0.432691 -0.162331
C39   C     C_R   0.434913 0.487999 0.932702 -0.161879
C40   C     C_R   0.565087 0.512000 0.067298 -0.161879
C41   C     C_1   0.416004 0.986142 0.581499 -0.142369
C42   C     C_1   0.583995 0.013857 0.418501 -0.142369
C43   C     C_1   0.083977 0.486197 0.918471 -0.142202
C44   C     C_1   0.916023 0.513803 0.081528 -0.142202
C45   C     C_1   0.737467 0.067737 0.655065 0.296954
N1    N     N_1   0.670964 0.084102 0.672110 -0.363335
C46   C     C_1   0.262533 0.932263 0.344935 0.296954
N2    N     N_1   0.329036 0.915898 0.327890 -0.363335
C47   C     C_1   0.764675 0.482901 0.846037 0.296930
N3    N     N_1   0.831590 0.480383 0.829108 -0.360047
C48   C     C_1   0.235325 0.517099 0.153963 0.296930
N4    N     N_1   0.168410 0.519617 0.170891 -0.360047
C49   C     C_1   0.980732 0.013222 0.241938 0.276940
N5    N     N_1   0.936431 0.030684 0.179637 -0.313941
C50   C     C_1   0.019268 0.986778 0.758062 0.276940
N6    N     N_1   0.063569 0.969315 0.820363 -0.313941
C51   C     C_1   0.519177 0.527194 0.257901 0.277348
N7    N     N_1   0.563909 0.532083 0.320431 -0.312992
C52   C     C_1   0.480823 0.472806 0.742098 0.277347
N8    N     N_1   0.436091 0.467917 0.679569 -0.312992

loop_
_geom_bond_atom_site_label_1
_geom_bond_atom_site_label_2
_ccdc_geom_bond_type
C26   C30   A    
C50   N6    T    
C23   C27   A    
C9    C10   S    
C8    C37   S    
O10   C6    A    
C47   N3    T    
C24   C47   S    
H5    C17   S    
C49   N5    T    
C30   C38   A    
C18   C22   A    
O18   V4    S    
C32   C36   A    
H2    C26   S    
C14   C34   A    
O5    V1    S    
O12   V4    S    
C17   C21   A    
C34   C37   A    
C33   C38   A    
O14   V2    S    
C1    O15   A    
C35   C40   A    
C2    O16   A    
C12   C44   T    
H8    C20   S    
O17   V3    S    
C16   C52   S    
O6    V2    S    
O11   C7    A    
O5    C1    A    
C22   C45   S    
O7    C3    A    
H6    C18   S    
O8    C4    A    
O1    C5    A    
C6    C39   S    
C15   C51   S    
H3    C27   S    
C15   C35   A    
O4    C8    A    
C11   C43   T    
C31   C35   A    
C10   C42   T    
C30   C34   A    
C4    C41   S    
H7    C19   S    
C52   N8    T    
C21   C25   A    
C15   C19   A    
O12   C8    A    
C19   C23   A    
C45   N1    T    
C24   C28   A    
C13   C49   S    
C11   C12   S    
O2    V4    S    
O6    C2    A    
C48   N4    T    
C1    C44   S    
C13   C17   A    
O2    C6    A    
C5    C40   S    
O9    V1    S    
C16   C36   A    
C7    C38   S    
O11   V3    S    
O4    V2    S    
C13   C33   A    
C23   C48   S    
O19   V1    S    
C14   C50   S    
C22   C26   A    
C29   C37   A    
C4    O14   A    
C21   C46   S    
C31   C39   A    
C25   C29   A    
C14   C18   A    
C27   C31   A    
C28   C32   A    
O9    C5    A    
C2    C43   S    
O20   V2    S    
O10   V2    S    
C3    O13   A    
C36   C39   A    
O15   V3    S    
O3    C7    A    
O16   V4    S    
H1    C25   S    
C32   C40   A    
O1    V3    S    
C9    C41   T    
C46   N2    T    
H4    C28   S    
C29   C33   A    
C16   C20   A    
C3    C42   S    
O13   V1    S    
O3    V1    S    
O7    V3    S    
O8    V4    S    
C51   N7    T    
C20   C24   A    
