data_str_m2_o14_o18_f0_pcu.sym.29
_audit_creation_date              2013-03-05T15:50:50-0500
_audit_creation_method            fapswitch 2.2
_symmetry_space_group_name_H-M    P1
_symmetry_Int_Tables_number       1
_space_group_crystal_system       triclinic
_cell_length_a                    9.605051
_cell_length_b                    10.888511
_cell_length_c                    15.554167
_cell_angle_alpha                 87.866681
_cell_angle_beta                  73.706828
_cell_angle_gamma                 90.905089
_cell_volume                      1559.73034537

loop_
_atom_site_label
_atom_site_type_symbol
_atom_site_description
_atom_site_fract_x
_atom_site_fract_y
_atom_site_fract_z
_atom_type_partial_charge
O1    O     O_R   0.118810 0.319640 0.500010 -0.589315
O2    O     O_R   0.881240 0.319660 0.500000 -0.578579
C1    C     C_R   0.003101 0.263236 0.492743 0.807160
O3    O     O_R   0.055570 0.499980 0.629840 -0.565835
O4    O     O_R   0.818000 0.500010 0.629830 -0.588435
C2    C     C_R   0.918332 0.506863 0.672183 0.793821
Cu1   Cu    Cu3+1 0.140660 0.499990 0.500010 0.957145
Cu2   Cu    Cu3+1 0.859340 0.500010 0.499990 0.925622
O5    O     O_R   0.118760 0.680340 0.500000 -0.619674
O6    O     O_R   0.881190 0.680360 0.499990 -0.605052
O7    O     O_R   0.182000 0.499990 0.370170 -0.555200
O8    O     O_R   0.944430 0.500020 0.370160 -0.597925
C3    C     C_R   0.000349 0.737778 0.503764 0.767251
C4    C     C_R   0.082760 0.499426 0.327933 0.810804
C5    C     C_R   0.876099 0.521311 0.771104 -0.104893
C6    C     C_R   0.131089 0.517001 0.229753 -0.151979
C7    C     C_R   0.930915 0.513791 0.915061 -0.247743
C8    C     C_R   0.978780 0.522362 0.821371 -0.007194
C9    C     C_R   0.729552 0.535772 0.816741 -0.282143
C10   C     C_R   0.682480 0.541738 0.910667 0.093654
C11   C     C_R   0.783480 0.519999 0.959861 0.144953
C12   C     C_R   0.536427 0.564411 0.957316 0.056982
C13   C     C_R   0.486177 0.535812 0.050591 0.083983
C14   C     C_R   0.589937 0.516220 0.098017 -0.141608
C15   C     C_R   0.736744 0.510563 0.053321 -0.246575
C16   C     C_R   0.442953 0.624312 0.915232 -0.202209
C17   C     C_R   0.299521 0.644814 0.961688 -0.201368
C18   C     C_R   0.244026 0.601617 0.050601 0.114374
C19   C     C_R   0.335257 0.540095 0.094707 -0.005957
C20   C     C_R   0.099050 0.621289 0.096453 -0.242536
C21   C     C_R   0.044549 0.582923 0.186107 -0.258161
C22   C     C_R   0.272495 0.485191 0.181204 0.270941
H1    H     H_    0.813614 0.497693 0.092047 0.162401
H2    H     H_    0.935323 0.607058 0.221671 0.171375
H3    H     H_    0.231682 0.694155 0.927748 0.148635
H4    H     H_    0.009652 0.507454 0.953049 0.150484
H5    H     H_    0.652013 0.539136 0.778724 0.153848
H6    H     H_    0.560630 0.514513 0.170149 0.197497
H7    H     H_    0.483208 0.664491 0.848320 0.156763
H8    H     H_    0.029488 0.671102 0.064050 0.146555
H9    H     H_    0.776440 0.107066 0.508382 0.159103
C23   C     C_R   0.279541 0.126761 0.434307 -0.112383
H10   H     H_    0.291562 0.215244 0.399291 0.216083
C24   C     C_R   0.405671 0.071551 0.441467 -0.144906
H11   H     H_    0.509589 0.119525 0.416052 0.144832
C25   C     C_R   0.396952 0.956373 0.483969 -0.166440
H12   H     H_    0.493534 0.915616 0.494148 0.136576
C26   C     C_R   0.264491 0.891624 0.510925 -0.183359
H13   H     H_    0.264428 0.805193 0.546448 0.169551
C27   C     C_R   0.137190 0.941539 0.495975 0.105126
C28   C     C_R   0.141964 0.067424 0.470462 0.085421
C29   C     C_R   0.009188 0.129648 0.483675 -0.114113
C30   C     C_R   0.878764 0.061910 0.500289 -0.209950
H14   H     H_    0.775914 0.885392 0.515919 0.161895
C31   C     C_R   0.878018 0.934883 0.507251 -0.215452
C32   C     C_R   0.005440 0.872717 0.505701 -0.109436
H15   H     H_    0.585589 0.346552 0.589428 0.131352
C33   C     C_R   0.700745 0.664159 0.382664 -0.184212
H16   H     H_    0.813656 0.668543 0.375388 0.209625
C34   C     C_R   0.658354 0.743928 0.324050 -0.286492
H17   H     H_    0.740875 0.801176 0.277310 0.149953
C35   C     C_R   0.514235 0.747682 0.323549 0.025630
C36   C     C_R   0.413519 0.666971 0.382766 -0.176521
H18   H     H_    0.305622 0.673420 0.379417 0.196207
C37   C     C_R   0.452885 0.583072 0.443337 0.204152
C38   C     C_R   0.602097 0.582548 0.443403 0.211066
N1    N     N_R   0.648320 0.501210 0.499140 -0.201954
C39   C     C_R   0.550320 0.415026 0.548492 -0.077701
H19   H     H_    0.327179 0.347208 0.589964 0.137460
C40   C     C_R   0.402251 0.415372 0.548764 -0.015059
N2    N     N_R   0.352470 0.501290 0.499110 -0.189482
N3    N     N_R   0.336942 0.378559 0.209849 0.100521
O9    O     O_R   0.357251 0.283264 0.160353 -0.406425
O10   O     O_R   0.392549 0.381084 0.277015 -0.406226
C41   C     C_R   0.470384 0.835093 0.260094 0.135272
C42   C     C_R   0.542758 0.950201 0.235139 -0.160992
C43   C     C_R   0.507105 0.029099 0.172123 -0.069054
C44   C     C_R   0.397462 0.995417 0.134038 -0.062195
C45   C     C_R   0.322552 0.883180 0.159483 -0.147308
C46   C     C_R   0.358676 0.803561 0.221937 -0.159368
H20   H     H_    0.626470 0.980017 0.264578 0.125255
H21   H     H_    0.564931 0.116419 0.152787 0.175304
H22   H     H_    0.370293 0.056322 0.084926 0.158020
H23   H     H_    0.237138 0.857372 0.130224 0.144233
H24   H     H_    0.300836 0.716632 0.238888 0.117644
C47   C     C_R   0.134934 0.546412 0.779608 0.142363
C48   C     C_R   0.236374 0.458122 0.786218 -0.138841
C49   C     C_R   0.384065 0.483318 0.747382 -0.153231
C50   C     C_R   0.430928 0.596828 0.702249 -0.138222
C51   C     C_R   0.330695 0.686281 0.698023 -0.159830
C52   C     C_R   0.182848 0.661312 0.736304 -0.108258
H25   H     H_    0.201054 0.369981 0.820670 0.125831
H26   H     H_    0.462024 0.414383 0.751629 0.129760
H27   H     H_    0.545159 0.616407 0.671365 0.150876
H28   H     H_    0.368014 0.775027 0.665480 0.117819
H29   H     H_    0.105637 0.731274 0.732410 0.108612

loop_
_geom_bond_atom_site_label_1
_geom_bond_atom_site_label_2
_geom_bond_distance
_ccdc_geom_bond_type
C5    C8    1.420258 A    
C31   C32   1.402688 A    
C36   C37   1.418397 A    
C9    C10   1.407247 A    
C48   C49   1.395378 A    
Cu1   Cu2   2.702183 S    
C22   N3    1.438303 S    
C43   C44   1.395887 A    
C24   H11   1.082672 S    
C6    C21   1.402219 A    
Cu1   O7    1.945843 S    
C16   C17   1.390361 A    
C35   C36   1.403369 A    
O4    C2    1.313723 A    
C13   C19   1.421528 A    
C18   C19   1.417354 A    
C19   C22   1.415809 A    
C47   C52   1.405648 A    
Cu1   N2    2.030385 S    
C45   H23   1.082078 S    
O7    C4    1.300669 A    
C16   H7    1.076582 S    
C33   C34   1.382708 A    
C34   C35   1.387713 A    
C25   H12   1.082946 S    
C50   H27   1.081341 S    
O5    C3    1.294588 A    
C9    H5    1.073328 S    
C52   H29   1.083329 S    
C49   H26   1.081789 S    
C44   H22   1.082143 S    
C33   C38   1.410175 A    
C14   H6    1.076759 S    
C13   C14   1.410827 A    
C40   N2    1.366694 A    
C7    H4    1.084056 S    
C41   C46   1.407907 A    
C45   C46   1.396982 A    
C23   C28   1.417347 A    
C3    C32   1.471034 S    
C49   C50   1.401256 A    
C26   C27   1.419739 A    
C38   N1    1.379966 A    
C2    C5    1.492141 S    
C48   H25   1.082934 S    
C23   C24   1.391117 A    
O3    Cu1   1.954442 S    
C24   C25   1.385916 A    
C27   C28   1.409155 A    
C30   C31   1.383098 A    
C25   C26   1.393520 A    
C28   C29   1.420675 A    
C51   H28   1.081333 S    
C14   C15   1.389726 A    
N3    O10   1.300844 A    
C47   C48   1.400900 A    
C17   H3    1.083904 S    
C33   H16   1.058469 S    
C37   N2    1.386237 A    
C27   C32   1.428294 A    
N1    C39   1.367090 A    
C34   H17   1.082899 S    
O1    C1    1.295858 A    
C5    C9    1.401672 A    
C41   C42   1.410552 A    
C46   H24   1.075496 S    
Cu2   O8    1.954442 S    
C7    C8    1.398681 A    
C21   H2    1.081486 S    
C20   H8    1.083836 S    
C8    C47   1.472549 S    
C42   C43   1.396762 A    
H9    C30   1.083517 S    
O3    C2    1.302554 A    
C26   H13   1.073341 S    
C10   C12   1.417234 A    
C4    C6    1.470318 S    
C35   C41   1.494472 S    
C23   H10   1.077192 S    
H15   C39   1.081548 S    
C29   C30   1.398237 A    
Cu1   O5    1.978277 S    
C11   C15   1.395183 A    
H14   C31   1.083546 S    
O1    Cu1   1.971627 S    
Cu2   O6    1.971627 S    
O2    Cu2   1.978277 S    
O8    C4    1.306795 A    
N3    O9    1.299617 A    
O6    C3    1.312284 A    
C42   H20   1.082125 S    
O4    Cu2   1.945843 S    
C1    C29   1.467116 S    
C6    C22   1.412017 A    
C18   C20   1.398979 A    
O2    C1    1.309188 A    
C44   C45   1.394375 A    
C51   C52   1.395125 A    
C20   C21   1.390417 A    
C43   H21   1.082234 S    
H19   C40   1.081614 S    
C7    C11   1.395843 A    
C36   H18   1.055455 S    
C10   C11   1.411709 A    
Cu2   N1    2.030852 S    
C39   C40   1.421090 A    
C37   C38   1.433575 A    
C12   C16   1.405855 A    
C17   C18   1.395700 A    
C12   C13   1.415456 A    
C50   C51   1.392937 A    
C15   H1    1.083577 S    
