data_str_m4_o15_o24_f0_acs.sym.18
_audit_creation_date              2012-12-11T14:28:19-0500
_audit_creation_method            fapswitch 2.2
_symmetry_space_group_name_H-M    P1
_symmetry_Int_Tables_number       1
_space_group_crystal_system       triclinic
_cell_length_a                    11.062207
_cell_length_b                    19.491785
_cell_length_c                    18.712251
_cell_angle_alpha                 90.427454
_cell_angle_beta                  90.115079
_cell_angle_gamma                 89.526616
_cell_volume                      4034.51834887

loop_
_atom_site_label
_atom_site_type_symbol
_atom_type_description
_atom_site_fract_x
_atom_site_fract_y
_atom_site_fract_z
_atom_type_partial_charge
C1    C     C_R   0.318015 0.936439 0.638420 0.538351
C2    C     C_3   0.199810 0.711494 0.038035 -0.135288
C3    C     C_3   0.062499 0.181969 0.968231 0.272963
C4    C     C_3   0.520195 0.291268 0.477077 0.276306
C5    C     C_3   0.619072 0.314328 0.044698 0.268587
C6    C     C_3   0.525239 0.704858 0.523735 0.285211
C7    C     C_3   0.562663 0.681918 0.968194 0.272918
C8    C     C_3   0.144216 0.775351 0.508780 -0.097430
C9    C     C_3   0.227837 0.782115 0.004359 -0.114571
C10   C     C_3   0.148887 0.221589 0.492596 -0.094699
C11   C     C_3   0.194132 0.180889 0.996346 -0.122844
C12   C     C_3   0.644231 0.275347 0.508779 -0.097424
C13   C     C_3   0.144379 0.292778 0.528993 -0.139192
C14   C     C_3   0.727819 0.282042 0.004338 -0.114544
C15   C     C_3   0.648871 0.721586 0.492593 -0.094718
C16   C     C_3   0.694279 0.680892 0.996333 -0.122675
C17   C     C_3   0.080369 0.744000 0.573293 0.007751
C18   C     C_3   0.143398 0.764071 0.941142 0.004111
C19   C     C_3   0.084076 0.252268 0.427550 0.007810
C20   C     C_3   0.155727 0.229486 0.058174 0.000627
C21   C     C_3   0.580370 0.244005 0.573291 0.007740
C22   C     C_3   0.643361 0.264047 0.941122 0.004183
C23   C     C_3   0.584065 0.752274 0.427549 0.007807
C24   C     C_3   0.222219 0.244644 0.949615 -0.168485
C25   C     C_3   0.655791 0.729465 0.058160 0.000575
C26   C     C_3   0.955530 0.760752 0.542575 -0.146257
C27   C     C_3   0.034802 0.797433 0.980101 -0.123116
C28   C     C_3   0.960245 0.233759 0.457214 -0.141833
C29   C     C_3   0.024583 0.228945 0.031440 -0.097869
C30   C     C_3   0.455539 0.260767 0.542568 -0.146255
C31   C     C_3   0.534804 0.297435 0.980086 -0.123070
C32   C     C_3   0.460230 0.733769 0.457212 -0.141825
C33   C     C_3   0.524661 0.728870 0.031404 -0.097973
C34   C     C_3   0.957110 0.689221 0.503850 -0.174484
C35   C     C_3   0.644924 0.204639 0.471687 -0.138836
C36   C     C_3   0.009243 0.726970 0.013218 -0.151920
C37   C     C_3   0.955833 0.305320 0.494867 -0.188508
C38   C     C_3   0.054355 0.292665 0.986115 -0.137581
C39   C     C_3   0.457105 0.189233 0.503849 -0.174485
C40   C     C_3   0.509170 0.226973 0.013183 -0.152036
C41   C     C_3   0.455831 0.805328 0.494873 -0.188466
C42   C     C_3   0.554377 0.792606 0.986089 -0.137545
C43   C     C_3   0.081858 0.673202 0.536766 -0.129155
C44   C     C_3   0.117011 0.693940 0.974343 -0.105425
C45   C     C_3   0.079893 0.322780 0.463273 -0.139271
C46   C     C_3   0.699721 0.211425 0.037995 -0.135198
C47   C     C_3   0.185692 0.292146 0.012523 -0.112174
C48   C     C_3   0.581847 0.173206 0.536770 -0.129149
C49   C     C_3   0.616902 0.193916 0.974299 -0.105382
C50   C     C_3   0.579892 0.822784 0.463280 -0.139265
C51   C     C_3   0.685701 0.792135 0.012517 -0.112188
C52   C     C_3   0.873659 0.863792 0.430200 0.033757
C53   C     C_3   0.853144 0.907494 0.363566 -0.312003
C54   C     C_3   0.077724 0.875819 0.150308 -0.006373
C55   C     C_3   0.092789 0.934914 0.201148 -0.341261
C56   C     C_3   0.880296 0.133981 0.572702 0.033604
C57   C     C_3   0.644373 0.792771 0.528997 -0.139207
C58   C     C_3   0.863379 0.091051 0.640124 -0.306364
C59   C     C_3   0.968168 0.113168 0.879976 0.018390
C60   C     C_3   0.934304 0.042340 0.853689 -0.392081
C61   C     C_3   0.373719 0.363811 0.430164 0.033808
C62   C     C_3   0.353250 0.407519 0.363525 -0.311989
C63   C     C_3   0.578159 0.375697 0.150397 -0.006547
C64   C     C_3   0.593620 0.434695 0.201306 -0.341453
C65   C     C_3   0.380265 0.633984 0.572690 0.033578
C66   C     C_3   0.363344 0.591054 0.640109 -0.306376
C67   C     C_3   0.468240 0.613139 0.879958 0.018410
C68   C     C_3   0.722308 0.744658 0.949608 -0.168431
C69   C     C_3   0.434375 0.542316 0.853629 -0.391995
C70   C     C_3   0.021153 0.721832 0.439232 0.057312
C71   C     C_3   0.091659 0.745013 0.076354 0.046128
C72   C     C_3   0.021263 0.275001 0.560810 0.053782
C73   C     C_R   0.316680 0.938974 0.861736 0.543384
C74   C     C_3   0.091130 0.245569 0.923113 0.033909
C75   C     C_3   0.521162 0.221834 0.439231 0.057316
C76   C     C_3   0.591601 0.244971 0.076323 0.046053
C77   C     C_3   0.521257 0.774999 0.560812 0.053799
C78   C     C_3   0.591231 0.745534 0.923083 0.033902
C79   C     C_R   0.330659 0.011198 0.427969 -0.027812
C80   C     C_R   0.318701 0.005563 0.075524 0.004038
C81   C     C_R   0.331259 0.954810 0.563693 -0.044463
C82   C     C_R   0.321672 0.960515 0.935696 -0.039749
C83   C     C_R   0.830675 0.511180 0.427967 -0.027825
C84   C     C_R   0.320482 0.037697 0.356394 0.531486
C85   C     C_R   0.818688 0.505575 0.075523 0.003937
C86   C     C_R   0.831267 0.454765 0.563686 -0.044518
C87   C     C_R   0.821655 0.460532 0.935696 -0.039701
C88   C     C_R   0.555625 0.000192 0.423211 -0.091495
C89   C     C_R   0.530711 0.965907 0.088747 -0.067668
C90   C     C_R   0.560696 0.968911 0.565672 -0.090536
C91   C     C_R   0.549273 0.976673 0.941650 -0.089384
C92   C     C_R   0.055655 0.500185 0.423213 -0.091467
C93   C     C_R   0.030706 0.465933 0.088733 -0.067665
C94   C     C_R   0.060706 0.468806 0.565662 -0.090544
C95   C     C_R   0.318276 0.035907 0.144977 0.527327
C96   C     C_R   0.049264 0.476684 0.941655 -0.089426
C97   C     C_R   0.662240 0.005378 0.460570 -0.154462
C98   C     C_R   0.643628 0.963922 0.057084 -0.122240
C99   C     C_R   0.664363 0.990251 0.531977 -0.174619
C100  C     C_R   0.652239 0.973597 0.984061 -0.142104
C101  C     C_R   0.162261 0.505362 0.460591 -0.154463
C102  C     C_R   0.143624 0.463959 0.057071 -0.122234
C103  C     C_R   0.164370 0.490193 0.531996 -0.174598
C104  C     C_R   0.152235 0.473618 0.984059 -0.142153
C105  C     C_R   0.445101 0.972458 0.531407 0.008116
C106  C     C_R   0.818015 0.436422 0.638423 0.538367
C107  C     C_R   0.432776 0.972354 0.972755 -0.022086
C108  C     C_R   0.443507 0.993389 0.459276 -0.004575
C109  C     C_R   0.426659 0.979449 0.046903 -0.002364
C110  C     C_R   0.945112 0.472403 0.531399 0.008118
C111  C     C_R   0.932762 0.472374 0.972754 -0.022105
C112  C     C_R   0.943526 0.493367 0.459272 -0.004549
C113  C     C_R   0.926648 0.479470 0.046896 -0.002355
C114  C     C_R   0.223015 0.963620 0.525336 -0.001091
C115  C     C_R   0.209942 0.968178 0.972492 0.050259
C116  C     C_R   0.223888 0.007475 0.468419 0.014845
C117  C     C_R   0.816678 0.438981 0.861738 0.543385
C118  C     C_R   0.209654 0.005995 0.034575 0.055212
C119  C     C_R   0.723030 0.463587 0.525329 -0.001087
C120  C     C_R   0.709915 0.468186 0.972494 0.050388
C121  C     C_R   0.723907 0.507450 0.468417 0.014851
C122  C     C_R   0.709622 0.505988 0.034589 0.055327
C123  C     C_R   0.110605 0.938404 0.547964 -0.031016
C124  C     C_R   0.097800 0.940486 0.950206 -0.047683
C125  C     C_R   0.115886 0.044074 0.453332 -0.032863
C126  C     C_R   0.096426 0.035793 0.055957 -0.005468
C127  C     C_R   0.610621 0.438379 0.547962 -0.030997
C128  C     C_R   0.820486 0.537690 0.356392 0.531456
C129  C     C_R   0.597773 0.440492 0.950206 -0.047615
C130  C     C_R   0.615912 0.544061 0.453343 -0.032888
C131  C     C_R   0.596378 0.535753 0.056002 -0.005230
C132  C     C_R   0.004394 0.969295 0.527527 -0.043988
C133  C     C_R   0.990328 0.955326 0.985572 -0.081293
C134  C     C_R   0.006689 0.021024 0.477869 -0.047939
C135  C     C_R   0.988098 0.006077 0.036543 -0.045834
C136  C     C_R   0.504416 0.469282 0.527539 -0.044001
C137  C     C_R   0.490305 0.455304 0.985592 -0.081255
C138  C     C_R   0.506715 0.521018 0.477888 -0.047920
C139  C     C_R   0.818273 0.535928 0.144965 0.527166
C140  C     C_R   0.488067 0.506031 0.036590 -0.045918
C141  C     C_R   0.131741 0.757034 0.644634 0.540380
C142  C     C_R   0.178550 0.770132 0.864552 0.545183
C143  C     C_R   0.133896 0.242121 0.355936 0.540716
C144  C     C_R   0.183732 0.227994 0.136339 0.561270
C145  C     C_R   0.631741 0.257035 0.644634 0.540367
C146  C     C_R   0.678540 0.270127 0.864549 0.545205
C147  C     C_R   0.633892 0.742123 0.355935 0.540732
C148  C     C_R   0.683757 0.727986 0.136338 0.561291
C149  C     C_R   0.496607 0.787498 0.637553 0.547685
C150  C     C_3   0.144922 0.704645 0.471683 -0.138854
C151  C     C_R   0.544676 0.768612 0.853625 0.534844
C152  C     C_R   0.495726 0.211745 0.362296 0.569661
C153  C     C_R   0.540891 0.228003 0.144783 0.528640
C154  C     C_R   0.996609 0.287498 0.637553 0.547652
C155  C     C_R   0.044638 0.268626 0.853642 0.534885
C156  C     C_R   0.995723 0.711744 0.362296 0.569672
C157  C     C_R   0.040978 0.728040 0.144821 0.528666
C158  C     C_3   0.020173 0.791263 0.477085 0.276328
C159  C     C_3   0.119047 0.814372 0.044711 0.268547
C160  C     C_3   0.025259 0.204858 0.523740 0.285216
Cr1   Cr    Cr6+3 0.488160 0.884660 0.750000 0.975477
Cr2   Cr    Cr6+3 0.333410 0.272740 0.250000 0.953348
Cr3   Cr    Cr6+3 0.833410 0.227260 0.750000 0.953562
Cr4   Cr    Cr6+3 0.833410 0.772740 0.250000 0.953356
Cr5   Cr    Cr6+3 0.488160 0.115340 0.250000 0.980012
Cr6   Cr    Cr6+3 0.988160 0.384660 0.750000 0.975473
Cr7   Cr    Cr6+3 0.988160 0.615340 0.250000 0.980009
Cr8   Cr    Cr6+3 0.173480 0.883120 0.750000 0.972809
Cr9   Cr    Cr6+3 0.173480 0.116880 0.250000 0.962244
Cr10  Cr    Cr6+3 0.673480 0.383120 0.750000 0.972780
Cr11  Cr    Cr6+3 0.673480 0.616880 0.250000 0.962228
Cr12  Cr    Cr6+3 0.333410 0.727260 0.750000 0.953582
H1    H     H_    0.215117 0.813370 0.514650 0.087179
H2    H     H_    0.908523 0.930181 0.969847 0.066594
H3    H     H_    0.545088 0.480623 0.181582 0.158279
H4    H     H_    0.548729 0.422187 0.252453 0.087912
H5    H     H_    0.690625 0.439826 0.215097 0.194418
H6    H     H_    0.334406 0.608393 0.527828 0.090564
H7    H     H_    0.332761 0.683509 0.577109 0.170743
H8    H     H_    0.400445 0.616917 0.688012 0.187712
H9    H     H_    0.265890 0.581537 0.649284 0.094430
H10   H     H_    0.410847 0.541190 0.635193 0.125685
H11   H     H_    0.542716 0.628419 0.843612 0.170813
H12   H     H_    0.381258 0.641273 0.876683 0.209678
H13   H     H_    0.925968 0.044086 0.457551 0.079510
H14   H     H_    0.366058 0.519715 0.888322 0.134694
H15   H     H_    0.393017 0.546617 0.799696 0.071647
H16   H     H_    0.514999 0.509579 0.847313 0.188046
H17   H     H_    0.903404 0.024764 0.058330 0.093936
H18   H     H_    0.422577 0.452005 0.551373 0.072128
H19   H     H_    0.408499 0.430156 0.969871 0.066577
H20   H     H_    0.425998 0.544089 0.457579 0.079554
H21   H     H_    0.403373 0.524701 0.058388 0.093778
H22   H     H_    0.887293 0.783622 0.578376 0.107673
H23   H     H_    0.958640 0.823810 0.953621 0.095651
H24   H     H_    0.894178 0.208877 0.421637 0.104785
H25   H     H_    0.315023 0.808080 0.999371 0.099401
H26   H     H_    0.946601 0.223776 0.067722 0.117139
H27   H     H_    0.387305 0.283648 0.578364 0.107669
H28   H     H_    0.458656 0.323819 0.953599 0.095666
H29   H     H_    0.394163 0.708896 0.421629 0.104794
H30   H     H_    0.446681 0.723669 0.067675 0.117106
H31   H     H_    0.893579 0.645886 0.501952 0.119036
H32   H     H_    0.921762 0.701741 0.020625 0.110655
H33   H     H_    0.885833 0.344966 0.490011 0.114181
H34   H     H_    0.000559 0.340305 0.981516 0.129366
H35   H     H_    0.393577 0.145897 0.501953 0.119032
H36   H     H_    0.219994 0.182760 0.488325 0.097633
H37   H     H_    0.421658 0.201769 0.020579 0.110638
H38   H     H_    0.385835 0.844981 0.490042 0.114152
H39   H     H_    0.500570 0.840240 0.981482 0.129350
H40   H     H_    0.106025 0.624616 0.563741 0.147874
H41   H     H_    0.114037 0.643837 0.945766 0.145497
H42   H     H_    0.103414 0.370098 0.434960 0.146093
H43   H     H_    0.239467 0.336743 0.030616 0.136072
H44   H     H_    0.606003 0.124626 0.563756 0.147871
H45   H     H_    0.613871 0.143824 0.945706 0.145510
H46   H     H_    0.603416 0.870104 0.434975 0.146090
H47   H     H_    0.254308 0.135442 0.999865 0.103190
H48   H     H_    0.739435 0.836743 0.030616 0.136051
H49   H     H_    0.216185 0.676818 0.442087 0.120382
H50   H     H_    0.263585 0.674668 0.063139 0.131213
H51   H     H_    0.212964 0.322565 0.558290 0.119024
H52   H     H_    0.301579 0.249946 0.914046 0.127008
H53   H     H_    0.716187 0.176805 0.442096 0.120376
H54   H     H_    0.763513 0.174590 0.063073 0.131340
H55   H     H_    0.712961 0.822550 0.558300 0.119049
H56   H     H_    0.801674 0.749977 0.914053 0.127008
H57   H     H_    0.743601 0.017771 0.432577 0.097473
H58   H     H_    0.715142 0.313357 0.514660 0.087161
H59   H     H_    0.724093 0.957184 0.089343 0.097778
H60   H     H_    0.747212 0.991759 0.561360 0.092942
H61   H     H_    0.738256 0.977586 0.959516 0.098766
H62   H     H_    0.243629 0.517761 0.432607 0.097455
H63   H     H_    0.224091 0.457227 0.089326 0.097809
H64   H     H_    0.247208 0.491687 0.561395 0.092937
H65   H     H_    0.238259 0.477603 0.959518 0.098778
H66   H     H_    0.567356 0.999211 0.366314 0.147591
H67   H     H_    0.526067 0.958504 0.145884 0.136440
H68   H     H_    0.581243 0.950067 0.617676 0.177660
H69   H     H_    0.815029 0.307979 0.999332 0.099380
H70   H     H_    0.566396 0.986119 0.886173 0.160511
H71   H     H_    0.067421 0.499213 0.366302 0.147529
H72   H     H_    0.026069 0.458522 0.145866 0.136428
H73   H     H_    0.081255 0.449858 0.617634 0.177743
H74   H     H_    0.066391 0.486100 0.886187 0.160559
H75   H     H_    0.113254 0.090596 0.422730 0.159301
H76   H     H_    0.087811 0.081895 0.087609 0.161724
H77   H     H_    0.103197 0.896572 0.583825 0.151984
H78   H     H_    0.090286 0.904335 0.907968 0.149837
H79   H     H_    0.613288 0.590590 0.422750 0.159291
H80   H     H_    0.719983 0.682758 0.488321 0.097626
H81   H     H_    0.587743 0.581863 0.087642 0.161719
H82   H     H_    0.603211 0.396549 0.583823 0.151977
H83   H     H_    0.590255 0.404353 0.907957 0.149805
H84   H     H_    0.831918 0.889971 0.476249 0.100561
H85   H     H_    0.825669 0.814875 0.426231 0.169320
H86   H     H_    0.884783 0.880971 0.314717 0.184921
H87   H     H_    0.755548 0.918449 0.356315 0.088637
H88   H     H_    0.902400 0.956501 0.367677 0.120335
H89   H     H_    0.121699 0.835430 0.182863 0.170549
H90   H     H_    0.978766 0.874798 0.139634 0.169008
H91   H     H_    0.754466 0.635448 0.999862 0.103255
H92   H     H_    0.044544 0.980845 0.181215 0.158184
H93   H     H_    0.047384 0.922520 0.252156 0.087126
H94   H     H_    0.189656 0.940025 0.215273 0.194590
H95   H     H_    0.834444 0.108388 0.527839 0.090562
H96   H     H_    0.832783 0.183503 0.577119 0.170742
H97   H     H_    0.900488 0.116910 0.688027 0.187699
H98   H     H_    0.765925 0.081539 0.649302 0.094387
H99   H     H_    0.910873 0.041185 0.635205 0.125681
H100  H     H_    0.042772 0.128413 0.843705 0.170692
H101  H     H_    0.881211 0.141287 0.876552 0.209905
H102  H     H_    0.922547 0.952022 0.551356 0.072145
H103  H     H_    0.865918 0.019784 0.888362 0.134763
H104  H     H_    0.893048 0.046627 0.799741 0.071619
H105  H     H_    0.014886 0.009587 0.847419 0.187947
H106  H     H_    0.331963 0.389993 0.476207 0.100539
H107  H     H_    0.325714 0.314900 0.426194 0.169354
H108  H     H_    0.384999 0.381026 0.314680 0.184769
H109  H     H_    0.255651 0.418449 0.356239 0.088686
H110  H     H_    0.402447 0.456541 0.367673 0.120247
H111  H     H_    0.622146 0.335214 0.182821 0.170448
H112  H     H_    0.479153 0.374809 0.139868 0.169082
O1    O     O_R   0.575450 0.828820 0.667950 -0.541194
O2    O     O_R   0.416860 0.942890 0.825320 -0.504719
O3    O     O_R   0.416860 0.057110 0.325320 -0.535531
O4    O     O_R   0.416860 0.057110 0.174680 -0.510327
O5    O     O_R   0.916860 0.442890 0.674680 -0.523246
O6    O     O_R   0.916860 0.442890 0.825320 -0.504714
O7    O     O_R   0.916860 0.557110 0.325320 -0.535519
O8    O     O_R   0.916860 0.557110 0.174680 -0.510309
O9    O     O_R   0.213790 0.953680 0.668330 -0.502570
O10   O     O_R   0.213790 0.953680 0.831670 -0.540237
O11   O     O_R   0.213790 0.046320 0.331670 -0.539589
O12   O     O_R   0.575450 0.828820 0.832050 -0.515017
O13   O     O_R   0.213790 0.046320 0.168330 -0.572103
O14   O     O_R   0.713790 0.453680 0.668330 -0.502553
O15   O     O_R   0.713790 0.453680 0.831670 -0.540257
O16   O     O_R   0.713790 0.546320 0.331670 -0.539563
O17   O     O_R   0.713790 0.546320 0.168330 -0.572133
O18   O     O_R   0.121360 0.817890 0.672660 -0.537392
O19   O     O_R   0.121360 0.817890 0.827340 -0.530600
O20   O     O_R   0.121360 0.182110 0.327340 -0.518131
O21   O     O_R   0.121360 0.182110 0.172660 -0.518438
O22   O     O_R   0.621360 0.317890 0.672660 -0.537408
O23   O     O_R   0.575450 0.171180 0.332050 -0.526827
O24   O     O_R   0.621360 0.317890 0.827340 -0.530615
O25   O     O_R   0.621360 0.682110 0.327340 -0.518116
O26   O     O_R   0.621360 0.682110 0.172660 -0.518424
O27   O     O_R   0.206850 0.711370 0.665820 -0.555663
O28   O     O_R   0.206850 0.711370 0.834180 -0.532794
O29   O     O_R   0.206850 0.288630 0.334180 -0.562198
O30   O     O_R   0.206850 0.288630 0.165820 -0.523769
O31   O     O_R   0.706850 0.211370 0.665820 -0.555669
O32   O     O_R   0.706850 0.211370 0.834180 -0.532853
O33   O     O_R   0.706850 0.788630 0.334180 -0.562225
O34   O     O_R   0.575450 0.171180 0.167950 -0.514656
O35   O     O_R   0.706850 0.788630 0.165820 -0.523780
O36   O     O_R   0.457710 0.733190 0.672630 -0.490470
O37   O     O_R   0.457710 0.733190 0.827370 -0.564480
O38   O     O_R   0.457710 0.266810 0.327370 -0.495736
O39   O     O_R   0.457710 0.266810 0.172630 -0.561701
O40   O     O_R   0.957710 0.233190 0.672630 -0.490439
O41   O     O_R   0.957710 0.233190 0.827370 -0.564485
O42   O     O_R   0.957710 0.766810 0.327370 -0.495713
O43   O     O_R   0.957710 0.766810 0.172630 -0.561765
O44   O     O_3   0.331690 0.831680 0.750000 -0.322846
O45   O     O_R   0.075450 0.328820 0.667950 -0.541287
O46   O     O_3   0.331690 0.168320 0.250000 -0.296150
O47   O     O_3   0.831690 0.331680 0.750000 -0.322859
O48   O     O_3   0.831690 0.668320 0.250000 -0.296142
O49   O     O_3   0.998536 0.853525 0.440993 -0.552989
O50   O     O_3   0.137783 0.877380 0.083905 -0.575077
O51   O     O_3   0.004773 0.142246 0.559049 -0.549903
O52   O     O_3   0.005870 0.117877 0.951685 -0.587663
O53   O     O_3   0.498589 0.353530 0.440978 -0.553024
O54   O     O_3   0.637919 0.377319 0.083901 -0.575104
O55   O     O_3   0.504744 0.642244 0.559037 -0.549919
O56   O     O_R   0.075450 0.328820 0.832050 -0.515021
O57   O     O_3   0.506272 0.617772 0.951613 -0.587639
O58   O     O_R   0.075450 0.671180 0.332050 -0.526836
O59   O     O_R   0.075450 0.671180 0.167950 -0.514611
O60   O     O_R   0.416860 0.942890 0.674680 -0.523273

loop_
_geom_bond_atom_site_label_1
_geom_bond_atom_site_label_2
_ccdc_geom_bond_type
C145  O22   A    
C6    C32   S    
C142  O19   A    
C60   H103  S    
C117  O6    A    
C127  H82   S    
C61   H106  S    
C20   C144  S    
C70   C150  S    
C83   C128  S    
C86   C106  S    
Cr12  O27   S    
C103  H64   S    
C124  C133  A    
C147  O33   A    
Cr5   O4    S    
C86   C110  A    
Cr9   O20   S    
C123  H77   S    
C88   C108  A    
C65   H6    S    
C95   O4    A    
C76   C153  S    
Cr3   O41   S    
C32   H29   S    
C3    C74   S    
C131  C140  A    
C137  H19   S    
C128  O7    A    
Cr1   O1    S    
C157  O43   A    
C55   H93   S    
C78   C151  S    
C86   C119  A    
C91   C100  A    
C4    C12   S    
C88   C97   A    
C153  O39   A    
C36   C71   S    
Cr7   O59   S    
C21   C48   S    
C66   H10   S    
C59   C60   S    
C101  C103  A    
Cr8   O18   S    
C7    C33   S    
Cr10  O47   S    
C155  O56   A    
Cr1   O60   S    
C128  O16   A    
C71   C157  S    
C137  C140  A    
C11   C20   S    
C72   C154  S    
C91   C107  A    
C127  C136  A    
C106  O5    A    
C149  O36   A    
Cr7   O8    S    
C40   H37   S    
C40   C76   S    
C49   H45   S    
C8    C150  S    
C17   C43   S    
C18   C44   S    
C155  O41   A    
C115  C118  A    
C152  O23   A    
C131  H81   S    
C111  C113  A    
C106  O14   A    
Cr12  O37   S    
C22   C49   S    
Cr9   O21   S    
Cr4   O42   S    
C60   H105  S    
C96   C104  A    
C150  H49   S    
C36   C44   S    
C37   C45   S    
C2    C71   S    
C130  C138  A    
C10   C160  S    
C144  O21   A    
C16   C25   S    
C58   H98   S    
C53   H86   S    
C35   H53   S    
C50   C57   S    
C4    O53   S    
C90   C105  A    
C93   H72   S    
Cr11  O16   S    
C68   H56   S    
Cr12  O44   S    
C13   C72   S    
C117  O15   A    
Cr11  O26   S    
C8    C17   S    
C5    C76   S    
C144  O30   A    
C13   C45   S    
C64   H5    S    
C79   C108  A    
C26   C158  S    
C52   H84   S    
C94   H73   S    
C20   C47   S    
C3    C11   S    
C129  C137  A    
C132  C134  A    
C101  H62   S    
C133  C135  A    
C83   C112  A    
Cr6   O56   S    
C1    C81   S    
C156  O42   A    
C123  C132  A    
C62   H109  S    
C121  C130  A    
C154  O40   A    
C148  O35   A    
C84   O11   A    
C130  H79   S    
Cr8   O9    S    
C120  C129  A    
C33   C42   S    
C82   C115  A    
C153  O34   A    
C79   C84   S    
C157  O59   A    
C27   C159  S    
C40   C49   S    
C28   C160  S    
C56   H95   S    
C10   H36   S    
C124  H78   S    
Cr10  O14   S    
C73   O2    A    
C22   C146  S    
C2    C44   S    
C29   C38   S    
Cr5   O46   S    
C39   C75   S    
C64   H4    S    
C140  H21   S    
C75   C152  S    
Cr2   O38   S    
Cr5   O34   S    
C53   H88   S    
C7    O57   S    
C9    H25   S    
C63   H112  S    
C119  C121  A    
C96   C111  A    
C81   C105  A    
C55   H92   S    
Cr3   O31   S    
C158  O49   S    
C73   O10   A    
C54   O50   S    
C80   C109  A    
C88   H66   S    
C12   C35   S    
C19   C28   S    
C43   C150  S    
C67   H11   S    
C143  O20   A    
C114  C123  A    
C116  C125  A    
C65   O55   S    
Cr1   O12   S    
C41   H38   S    
C11   H47   S    
C90   C99   A    
C52   C53   S    
C38   C74   S    
C54   C55   S    
C60   H104  S    
C54   H89   S    
C37   H33   S    
C34   C43   S    
C114  C116  A    
C19   C45   S    
C80   C95   S    
Cr12  O28   S    
C1    O9    A    
C89   C98   A    
C14   C22   S    
C85   C113  A    
C118  C126  A    
Cr11  O17   S    
C28   C37   S    
Cr10  O22   S    
C28   H24   S    
C56   C58   S    
C59   H100  S    
C156  O58   A    
C61   C62   S    
C56   H96   S    
C110  C112  A    
C67   O57   S    
C63   C64   S    
C57   H55   S    
C9    C18   S    
C29   H26   S    
Cr8   O44   S    
C2    C9    S    
C25   C33   S    
C119  C127  A    
C125  C134  A    
C95   O13   A    
C122  C131  A    
C8    C158  S    
C151  O37   A    
C14   C46   S    
Cr1   O2    S    
C46   C49   S    
C87   C117  S    
C92   H71   S    
C87   C111  A    
C15   H80   S    
Cr7   O7    S    
C52   O49   S    
C33   H30   S    
C2    H50   S    
C31   C40   S    
C17   C141  S    
C31   H28   S    
C4    C75   S    
C16   H91   S    
Cr6   O5    S    
C129  H83   S    
C141  O27   A    
C47   H43   S    
C59   O52   S    
C34   C70   S    
C146  O24   A    
C102  H63   S    
C61   H107  S    
Cr3   O47   S    
C100  H61   S    
C104  H65   S    
C55   H94   S    
C13   H51   S    
C35   C48   S    
C96   H74   S    
C139  O8    A    
C68   C78   S    
C141  O18   A    
Cr5   O23   S    
C80   C118  A    
C151  O12   A    
C57   C77   S    
C154  O45   A    
C77   C149  S    
C92   C112  A    
C23   C50   S    
Cr4   O48   S    
C66   H8    S    
C58   H99   S    
Cr11  O25   S    
C44   H41   S    
C70   C158  S    
C21   C145  S    
Cr4   O35   S    
C91   H70   S    
C152  O38   A    
C10   C19   S    
C147  O25   A    
C45   H42   S    
C85   C122  A    
C93   C113  A    
C43   H40   S    
C5    C14   S    
C56   O51   S    
C92   C101  A    
C7    C16   S    
C66   H9    S    
C94   C103  A    
C98   C100  A    
Cr6   O47   S    
C125  H75   S    
C27   H23   S    
C41   C50   S    
C115  C124  A    
C138  H20   S    
C62   H110  S    
C93   C102  A    
C12   H58   S    
C27   C36   S    
C65   H7    S    
C21   C30   S    
Cr8   O10   S    
C23   C32   S    
Cr9   O46   S    
Cr5   O3    S    
C107  C109  A    
C23   C147  S    
Cr2   O46   S    
C52   H85   S    
C94   C110  A    
C74   C155  S    
C25   C148  S    
Cr10  O15   S    
C98   H59   S    
C159  O50   S    
C37   C72   S    
Cr11  O48   S    
C69   H14   S    
C39   C48   S    
Cr2   O39   S    
C48   H44   S    
C53   H87   S    
C89   H67   S    
C46   C76   S    
C99   H60   S    
C63   H111  S    
C160  O51   S    
C58   H97   S    
C35   C75   S    
Cr3   O40   S    
C70   C156  S    
C17   C26   S    
C41   C77   S    
C9    C159  S    
C89   C109  A    
C11   C24   S    
C3    C29   S    
C135  H17   S    
C6    O55   S    
Cr7   O58   S    
C6    C15   S    
C26   C34   S    
C97   H57   S    
Cr6   O45   S    
C39   H35   S    
C30   C39   S    
Cr8   O19   S    
C142  O28   A    
C16   C68   S    
C133  H2    S    
C85   C139  S    
C42   C51   S    
C15   C23   S    
C30   H27   S    
C61   O53   S    
C79   C116  A    
Cr12  O36   S    
C5    O54   S    
C15   C57   S    
C134  H13   S    
C62   H108  S    
Cr9   O11   S    
C97   C99   A    
C120  C122  A    
C20   C29   S    
C24   H52   S    
C105  C108  A    
C139  O17   A    
C22   C31   S    
C126  H76   S    
C54   H90   S    
C18   C142  S    
C136  C138  A    
Cr10  O24   S    
C8    H1    S    
C6    C77   S    
Cr1   O44   S    
C12   C21   S    
C50   H46   S    
Cr4   O33   S    
C136  H18   S    
C67   C69   S    
C81   C114  A    
Cr2   O29   S    
C25   C51   S    
C14   H69   S    
Cr4   O43   S    
C34   H31   S    
C32   C41   S    
C132  H102  S    
C73   C82   S    
C46   H54   S    
C82   C107  A    
C83   C121  A    
C64   H3    S    
C102  C104  A    
C143  O29   A    
C69   H16   S    
C38   C47   S    
C7    C78   S    
C42   C78   S    
C148  O26   A    
C69   H15   S    
C19   C143  S    
C38   H34   S    
Cr2   O30   S    
C24   C47   S    
C149  O1    A    
C84   O3    A    
C18   C27   S    
Cr3   O32   S    
C10   C13   S    
C126  C135  A    
C51   H48   S    
C71   C159  S    
C72   C160  S    
C90   H68   S    
C1    O60   A    
C87   C120  A    
Cr7   O48   S    
C24   C74   S    
C145  O31   A    
C3    O52   S    
C59   H101  S    
C146  O32   A    
C51   C68   S    
C67   H12   S    
C63   O54   S    
Cr6   O6    S    
C65   C66   S    
C36   H32   S    
Cr9   O13   S    
C4    C30   S    
C42   H39   S    
C5    C31   S    
C26   H22   S    
