data_str_m2_o5_o29_f0_pcu.sym.53
_audit_creation_date              2013-03-05T16:36:14-0500
_audit_creation_method            fapswitch 2.2
_symmetry_space_group_name_H-M    P1
_symmetry_Int_Tables_number       1
_space_group_crystal_system       triclinic
_cell_length_a                    27.871986
_cell_length_b                    9.113689
_cell_length_c                    7.81134
_cell_angle_alpha                 89.99666
_cell_angle_beta                  89.997801
_cell_angle_gamma                 89.988107
_cell_volume                      1984.21007609

loop_
_atom_site_label
_atom_site_type_symbol
_atom_site_description
_atom_site_fract_x
_atom_site_fract_y
_atom_site_fract_z
_atom_type_partial_charge
O1    O     O_R   0.500000 0.288390 0.642760 -0.584336
O2    O     O_R   0.500000 0.711610 0.357240 -0.584358
O3    O     O_R   0.500000 0.711610 0.642760 -0.584400
O4    O     O_R   0.500000 0.288390 0.357240 -0.584428
C1    C     C_R   0.500000 0.220089 0.500003 0.804841
C2    C     C_R   0.500002 0.779910 0.499997 0.804871
O5    O     O_R   0.430260 0.500000 0.642770 -0.542869
O6    O     O_R   0.569740 0.500000 0.357230 -0.542803
O7    O     O_R   0.569740 0.500000 0.642770 -0.542809
O8    O     O_R   0.430260 0.500000 0.357230 -0.542837
C3    C     C_R   0.407242 0.500072 0.499997 0.877026
C4    C     C_R   0.592761 0.499932 0.499992 0.876877
Cu1   Cu    Cu3+1 0.500000 0.500000 0.669080 1.045144
Cu2   Cu    Cu3+1 0.500000 0.500000 0.330920 1.045160
C5    C     C_R   0.177187 0.369653 0.510334 0.692412
C6    C     C_R   0.822825 0.630170 0.510694 0.692248
C7    C     C_R   0.177119 0.630718 0.487797 0.691956
C8    C     C_R   0.822875 0.369126 0.487744 0.692686
O9    O     O_2   0.202134 0.242736 0.510452 -0.447784
O10   O     O_2   0.797880 0.757089 0.511116 -0.448188
O11   O     O_2   0.201988 0.757746 0.487863 -0.447683
O12   O     O_2   0.797985 0.242137 0.487488 -0.447754
N1    N     N_R   0.201274 0.500238 0.499209 -0.414851
N2    N     N_R   0.798735 0.499613 0.499340 -0.414774
C9    C     C_R   0.278367 0.554235 0.355564 0.261536
C10   C     C_R   0.721654 0.446213 0.355360 0.261018
C11   C     C_R   0.278267 0.446511 0.643781 0.261160
C12   C     C_R   0.721739 0.552863 0.644113 0.260833
C13   C     C_R   0.328780 0.563931 0.361908 0.322333
C14   C     C_R   0.671236 0.436527 0.361629 0.322455
C15   C     C_R   0.328692 0.436744 0.637843 0.322451
C16   C     C_R   0.671314 0.562732 0.638157 0.322560
C17   C     C_R   0.253077 0.500341 0.499530 -0.024257
C18   C     C_R   0.746932 0.499552 0.499613 -0.024241
C19   C     C_R   0.101375 0.500031 0.498809 -0.178677
C20   C     C_R   0.898630 0.499754 0.498947 -0.178741
C21   C     C_R   0.126794 0.367604 0.521331 -0.129991
C22   C     C_R   0.873219 0.632185 0.521600 -0.129991
C23   C     C_R   0.126733 0.632549 0.476394 -0.130127
C24   C     C_R   0.873265 0.367254 0.476456 -0.129704
C25   C     C_R   0.101189 0.237895 0.557034 0.526687
C26   C     C_R   0.898835 0.761869 0.557318 0.526615
C27   C     C_R   0.101074 0.762147 0.440485 0.526421
C28   C     C_R   0.898920 0.237646 0.440556 0.526595
C29   C     C_R   0.354151 0.500262 0.499939 -0.357871
C30   C     C_R   0.645858 0.499731 0.499936 -0.358103
C31   C     C_R   0.974772 0.365444 0.489087 0.014694
C32   C     C_R   0.025233 0.634325 0.489066 0.014548
C33   C     C_R   0.974719 0.634262 0.508437 0.014436
C34   C     C_R   0.025291 0.365502 0.508370 0.014483
C35   C     C_R   0.949470 0.499821 0.498812 0.073994
C36   C     C_R   0.050537 0.499949 0.498737 0.074004
C37   C     C_R   0.948860 0.235998 0.455115 -0.304775
C38   C     C_R   0.051139 0.763779 0.455036 -0.304490
C39   C     C_R   0.948765 0.763648 0.542506 -0.304432
C40   C     C_R   0.051255 0.236109 0.542332 -0.304389
H1    H     H_    0.966810 0.133154 0.429942 0.150660
H2    H     H_    0.033183 0.866604 0.429769 0.150767
H3    H     H_    0.966684 0.866531 0.567641 0.150874
H4    H     H_    0.033346 0.133206 0.567451 0.150837
C41   C     C_1   0.500000 0.065353 0.500005 -0.187629
C42   C     C_1   0.500001 0.934647 0.499994 -0.187622
N3    N     N_1   0.500000 0.500000 0.076820 -0.021374
N4    N     N_1   0.500000 0.500000 0.923180 -0.021416
O13   O     O_3   0.353188 0.372802 0.772731 -0.494590
C43   C     C_3   0.363880 0.226013 0.728741 -0.142947
H5    H     H_    0.330865 0.162619 0.697583 0.175110
H6    H     H_    0.381187 0.172361 0.840259 0.181639
H7    H     H_    0.389483 0.220012 0.619815 0.102882
O14   O     O_3   0.646810 0.626247 0.773291 -0.494267
C44   C     C_3   0.636206 0.773256 0.730024 -0.142926
H8    H     H_    0.669273 0.836661 0.699600 0.175072
H9    H     H_    0.618822 0.826484 0.841661 0.181542
H10   H     H_    0.610700 0.779817 0.620850 0.102949
O15   O     O_3   0.353350 0.627873 0.227208 -0.494643
C45   C     C_3   0.364081 0.774576 0.271419 -0.143069
H11   H     H_    0.381400 0.828292 0.159975 0.181622
H12   H     H_    0.389686 0.780346 0.380336 0.102961
H13   H     H_    0.331084 0.838063 0.302703 0.174996
O16   O     O_3   0.646668 0.373027 0.226661 -0.494320
C46   C     C_3   0.635991 0.226133 0.270178 -0.143010
H14   H     H_    0.618648 0.172801 0.158545 0.181557
H15   H     H_    0.610424 0.219886 0.379191 0.103078
H16   H     H_    0.669015 0.162608 0.300983 0.174850
N5    N     N_R   0.252472 0.403707 0.796175 0.195978
O17   O     O_R   0.268860 0.302370 0.897872 -0.283257
O18   O     O_R   0.212438 0.468408 0.836227 -0.319652
N6    N     N_R   0.747534 0.594992 0.796776 0.196138
O19   O     O_R   0.731031 0.695314 0.899570 -0.282876
O20   O     O_R   0.787636 0.530379 0.836175 -0.319678
N7    N     N_R   0.252685 0.597104 0.202973 0.195858
O21   O     O_R   0.269030 0.698969 0.101923 -0.283797
O22   O     O_R   0.212779 0.532063 0.162196 -0.318963
N8    N     N_R   0.747355 0.403874 0.202583 0.196377
O23   O     O_R   0.730902 0.302929 0.100546 -0.283158
O24   O     O_R   0.787358 0.468698 0.162497 -0.318701
O25   O     O_3   0.124750 0.111288 0.605510 -0.484394
C47   C     C_3   0.123381 0.100270 0.785466 -0.192113
H17   H     H_    0.085968 0.087125 0.832802 0.106803
H18   H     H_    0.140788 0.196662 0.847307 0.183136
H19   H     H_    0.143731 0.001063 0.824217 0.204885
O26   O     O_3   0.875297 0.888478 0.605899 -0.484554
C48   C     C_3   0.876577 0.899189 0.785884 -0.192518
H20   H     H_    0.913977 0.911917 0.833508 0.106828
H21   H     H_    0.859046 0.802847 0.847397 0.183363
H22   H     H_    0.856299 0.998511 0.824705 0.204765
O27   O     O_3   0.124570 0.888805 0.391920 -0.484862
C49   C     C_3   0.123464 0.899209 0.211894 -0.192064
H23   H     H_    0.086100 0.911527 0.163744 0.106688
H24   H     H_    0.141160 0.802916 0.150851 0.183860
H25   H     H_    0.143677 0.998640 0.173098 0.204741
O28   O     O_3   0.875395 0.110981 0.392178 -0.484466
C50   C     C_3   0.876895 0.099625 0.212268 -0.192814
H26   H     H_    0.914332 0.085920 0.165379 0.107081
H27   H     H_    0.859652 0.196107 0.149967 0.182552
H28   H     H_    0.856462 0.000593 0.173570 0.204854

loop_
_geom_bond_atom_site_label_1
_geom_bond_atom_site_label_2
_geom_bond_distance
_ccdc_geom_bond_type
C10   N8    1.444340 S    
C43   H6    1.109279 S    
C39   H3    1.080457 S    
C19   C23   1.410370 A    
C45   H13   1.113589 S    
O3    C2    1.277105 A    
O25   C47   1.409784 S    
N5    O17   1.300923 A    
C11   C17   1.415327 A    
C32   C38   1.408627 A    
C7    N1    1.369281 A    
O1    C1    1.277122 A    
C19   C21   1.410364 A    
C45   H12   1.111754 S    
C22   C26   1.408866 A    
C32   C36   1.415105 A    
C43   H7    1.111803 S    
C49   H23   1.112925 S    
C7    C23   1.407276 A    
C11   N5    1.444346 S    
O7    Cu1   1.954616 S    
C5    C21   1.407316 A    
C20   C24   1.410417 A    
C8    C24   1.407328 A    
C5    O9    1.349458 S    
C28   C37   1.396630 A    
C10   C18   1.415151 A    
N1    C17   1.443866 S    
C12   N6    1.444519 S    
C34   C36   1.415104 A    
O27   C49   1.409770 S    
O14   C44   1.412954 S    
C41   C42   1.191207 T    
O3    Cu1   1.939464 S    
O6    C4    1.286606 A    
C31   C37   1.408624 A    
C50   H28   1.109298 S    
C14   O16   1.384051 S    
C5    N1    1.369282 A    
C43   H5    1.113573 S    
C12   C18   1.415277 A    
C6    N2    1.369231 A    
Cu1   Cu2   2.641484 S    
C21   C25   1.408826 A    
O2    C2    1.277123 A    
C26   O26   1.380424 S    
O28   C50   1.409767 S    
C46   H15   1.111811 S    
C46   H14   1.109261 S    
C31   C34   1.416093 A    
N5    O18   1.300144 A    
C9    C13   1.408784 A    
C9    N7    1.444167 S    
C11   C15   1.409013 A    
O26   C48   1.409769 S    
C12   C16   1.409086 A    
C45   H11   1.109290 S    
C4    C30   1.479908 S    
O8    Cu2   1.954619 S    
N7    O21   1.300960 A    
C44   H9    1.109260 S    
C37   H1    1.080426 S    
O4    C1    1.277106 A    
C16   O14   1.384051 S    
C33   C35   1.415108 A    
C33   C39   1.408631 A    
C34   C40   1.408661 A    
C40   H4    1.080434 S    
C13   C29   1.413895 A    
O5    C3    1.286638 A    
O15   C45   1.412975 S    
C25   C40   1.396606 A    
C26   C39   1.396531 A    
N7    O22   1.300117 A    
C27   C38   1.396504 A    
O5    Cu1   1.954635 S    
C6    O10   1.349464 S    
C1    C41   1.410223 S    
C48   H21   1.113857 S    
C27   O27   1.380401 S    
N8    O24   1.300165 A    
C20   C35   1.416998 A    
C28   O28   1.380479 S    
C32   C33   1.416028 A    
N6    O20   1.300195 A    
C10   C14   1.408882 A    
C47   H18   1.113871 S    
C8    N2    1.369246 A    
C3    C29   1.479752 S    
O1    Cu1   1.939488 S    
C48   H20   1.112907 S    
C46   H16   1.113602 S    
C50   H26   1.112863 S    
C38   H2    1.080458 S    
C15   O13   1.384096 S    
O6    Cu2   1.954632 S    
C8    O12   1.349461 S    
C16   C30   1.413894 A    
C14   C30   1.413915 A    
O16   C46   1.412961 S    
C44   H10   1.111853 S    
C31   C35   1.415131 A    
C13   O15   1.384096 S    
C47   H19   1.109309 S    
C49   H25   1.109307 S    
C2    C42   1.410223 S    
C20   C22   1.410417 A    
C44   H8    1.113562 S    
Cu1   N4    1.984861 S    
Cu2   N3    1.984861 S    
C49   H24   1.113836 S    
C48   H22   1.109310 S    
C25   O25   1.380459 S    
O13   C43   1.412960 S    
O4    Cu2   1.939465 S    
N8    O23   1.300849 A    
O2    Cu2   1.939488 S    
O7    C4    1.286676 A    
N2    C18   1.443865 S    
O8    C3    1.286550 A    
N3    N4    1.200135 T    
C24   C28   1.408853 A    
N6    O19   1.300826 A    
C23   C27   1.408833 A    
C47   H17   1.112887 S    
C15   C29   1.413873 A    
C9    C17   1.415192 A    
C19   C36   1.416965 A    
C6    C22   1.407292 A    
C50   H27   1.113907 S    
C7    O11   1.349449 S    
