data_str_m2_o18_o18_f0_pcu.sym.22
_audit_creation_date              2012-10-26T19:27:39-0400
_audit_creation_method            fapswitch 2.2
_symmetry_space_group_name_H-M    P1
_symmetry_Int_Tables_number       1
_space_group_crystal_system       triclinic
_cell_length_a                    20.859441
_cell_length_b                    21.53324
_cell_length_c                    14.834379
_cell_angle_alpha                 89.999852
_cell_angle_beta                  130.394557
_cell_angle_gamma                 89.99945
_cell_volume                      5074.67555131

loop_
_atom_site_label
_atom_site_type_symbol
_atom_type_description
_atom_site_fract_x
_atom_site_fract_y
_atom_site_fract_z
_atom_type_partial_charge
C1    C     C_R   0.605515 0.916069 0.635551 0.575600
C2    C     C_R   0.613016 0.337545 0.914610 -0.152275
C3    C     C_R   0.727043 0.795683 0.991902 0.032577
C4    C     C_R   0.200356 0.773708 0.896023 0.014454
C5    C     C_R   0.772959 0.295682 0.008099 0.032603
C6    C     C_R   0.799636 0.773707 0.103973 0.014465
C7    C     C_R   0.227060 0.295699 0.991927 0.032590
C8    C     C_R   0.351964 0.787136 0.038585 -0.074776
C9    C     C_R   0.621947 0.300121 0.846951 -0.125946
C10   C     C_R   0.648026 0.787117 0.961378 -0.074766
C11   C     C_R   0.378071 0.300137 0.153076 -0.125956
C12   C     C_R   0.851973 0.287124 0.038607 -0.074776
C13   C     C_R   0.639632 0.750410 0.029719 -0.141603
C14   C     C_R   0.121938 0.800127 0.846942 -0.125949
C15   C     C_R   0.148046 0.287144 0.961415 -0.074761
C16   C     C_R   0.878051 0.800133 0.153067 -0.125954
C17   C     C_3   0.273443 0.059007 0.937264 -0.031930
C18   C     C_3   0.246066 0.075888 0.007414 -0.389566
C19   C     C_3   0.726480 0.058889 0.062557 -0.032056
C20   C     C_3   0.753798 0.075878 0.992380 -0.389759
C21   C     C_3   0.773462 0.558976 0.937309 -0.032029
C22   C     C_3   0.746103 0.575898 0.007453 -0.389656
C23   C     C_3   0.226487 0.558936 0.062584 -0.032032
C24   C     C_R   0.386998 0.337562 0.085414 -0.152289
C25   C     C_3   0.253811 0.575936 0.992419 -0.389762
C26   C     C_3   0.403841 0.750909 0.300513 -0.019717
C27   C     C_3   0.484585 0.715833 0.353323 -0.373685
C28   C     C_3   0.559578 0.163732 0.798062 0.009442
C29   C     C_3   0.472535 0.175396 0.757912 -0.359913
C30   C     C_3   0.596214 0.750888 0.699494 -0.019716
C31   C     C_3   0.515489 0.715788 0.646690 -0.373696
C32   C     C_3   0.440429 0.163739 0.201958 0.009374
C33   C     C_3   0.527492 0.175354 0.242149 -0.359865
C34   C     C_3   0.903843 0.250912 0.300553 -0.019701
C35   C     C_R   0.860364 0.250417 0.970262 -0.141636
C36   C     C_3   0.984588 0.215832 0.353374 -0.373671
C37   C     C_3   0.059565 0.663739 0.798040 0.009439
C38   C     C_3   0.972515 0.675390 0.757870 -0.359903
C39   C     C_3   0.096238 0.250884 0.699552 -0.019713
C40   C     C_3   0.015512 0.215786 0.646749 -0.373673
C41   C     C_3   0.940425 0.663738 0.201954 0.009392
C42   C     C_3   0.027489 0.675359 0.242153 -0.359867
C43   C     C_2   0.428850 0.968263 0.156873 0.335254
C44   C     C_2   0.571114 0.968210 0.843144 0.335027
C45   C     C_2   0.928854 0.468257 0.156872 0.335197
C46   C     C_R   0.113009 0.837547 0.914607 -0.152266
C47   C     C_2   0.071146 0.468258 0.843143 0.335035
C48   C     C_R   0.139653 0.250439 0.029759 -0.141606
C49   C     C_R   0.886982 0.837560 0.085412 -0.152291
C50   C     C_R   0.319995 0.023259 0.652809 -0.162046
C51   C     C_R   0.680003 0.023208 0.347164 -0.162033
C52   C     C_R   0.819993 0.523225 0.652817 -0.162036
C53   C     C_R   0.398681 0.087383 0.370015 0.573416
C54   C     C_R   0.180004 0.523215 0.347170 -0.162034
C55   C     C_R   0.350569 0.011873 0.594984 0.035743
C56   C     C_R   0.649435 0.011845 0.405004 0.035716
C57   C     C_R   0.850565 0.511852 0.594987 0.035738
C58   C     C_R   0.149435 0.511847 0.405007 0.035720
C59   C     C_R   0.488889 0.998340 0.780293 0.175504
C60   C     C_R   0.511097 0.998350 0.219706 0.175447
C61   C     C_R   0.988897 0.498350 0.780294 0.175472
C62   C     C_R   0.011100 0.498349 0.219706 0.175457
C63   C     C_R   0.462836 0.017656 0.844604 0.016540
C64   C     C_R   0.394485 0.916068 0.364449 0.575588
C65   C     C_R   0.537144 0.017647 0.155376 0.016480
C66   C     C_R   0.962842 0.517653 0.844610 0.016510
C67   C     C_R   0.037148 0.517648 0.155381 0.016481
C68   C     C_R   0.375573 0.026192 0.776834 -0.028556
C69   C     C_R   0.624414 0.026152 0.223137 -0.028550
C70   C     C_R   0.875575 0.526168 0.776842 -0.028554
C71   C     C_R   0.124417 0.526158 0.223144 -0.028553
C72   C     C_R   0.518094 0.026582 0.971932 0.013638
C73   C     C_R   0.481878 0.026585 0.028045 0.013604
C74   C     C_R   0.018101 0.526586 0.971938 0.013625
C75   C     C_R   0.601320 0.087382 0.629986 0.573377
C76   C     C_R   0.981885 0.526583 0.028050 0.013602
C77   C     C_R   0.393592 0.040290 0.955789 0.291823
C78   C     C_R   0.606380 0.040266 0.044178 0.291798
C79   C     C_R   0.893597 0.540278 0.955795 0.291832
C80   C     C_R   0.106385 0.540283 0.044188 0.291835
C81   C     C_R   0.343051 0.039313 0.831492 -0.107898
C82   C     C_R   0.656934 0.039260 0.168470 -0.107821
C83   C     C_R   0.843052 0.539283 0.831502 -0.107864
C84   C     C_R   0.156937 0.539274 0.168480 -0.107818
C85   C     C_R   0.662290 0.136674 0.706018 0.023664
C86   C     C_R   0.105516 0.416069 0.635552 0.575600
C87   C     C_R   0.320779 0.881096 0.266811 0.007997
C88   C     C_R   0.337717 0.136682 0.293990 0.023688
C89   C     C_R   0.679226 0.881099 0.733192 0.008005
C90   C     C_R   0.162285 0.636679 0.706011 0.023661
C91   C     C_R   0.820779 0.381096 0.266814 0.007996
C92   C     C_R   0.837708 0.636674 0.293980 0.023682
C93   C     C_R   0.179229 0.381102 0.733197 0.008018
C94   C     C_R   0.805022 0.173475 0.819356 -0.150359
C95   C     C_R   0.171100 0.885238 0.101546 -0.157293
C96   C     C_R   0.194988 0.173490 0.180655 -0.150369
C97   C     C_R   0.898679 0.587382 0.370013 0.573410
C98   C     C_R   0.828898 0.885258 0.898479 -0.157293
C99   C     C_R   0.305013 0.673486 0.819337 -0.150353
C100  C     C_R   0.671103 0.385240 0.101544 -0.157292
C101  C     C_R   0.694972 0.673469 0.180628 -0.150367
C102  C     C_R   0.328904 0.385259 0.898474 -0.157293
C103  C     C_R   0.740976 0.133666 0.735697 -0.186563
C104  C     C_R   0.240406 0.902205 0.216689 -0.198702
C105  C     C_R   0.259028 0.133674 0.264305 -0.186565
C106  C     C_R   0.759595 0.902222 0.783332 -0.198683
C107  C     C_R   0.240970 0.633672 0.735686 -0.186560
C108  C     C_R   0.894486 0.416069 0.364450 0.575590
C109  C     C_R   0.740407 0.402208 0.216686 -0.198695
C110  C     C_R   0.759019 0.633660 0.264290 -0.186564
C111  C     C_R   0.259597 0.402223 0.783328 -0.198684
C112  C     C_R   0.644750 0.183998 0.753687 0.241942
C113  C     C_R   0.330905 0.839124 0.204582 0.255146
C114  C     C_R   0.355266 0.184015 0.246345 0.241880
C115  C     C_R   0.669102 0.839117 0.795409 0.255106
C116  C     C_R   0.144742 0.684005 0.753673 0.241946
C117  C     C_R   0.830907 0.339121 0.204591 0.255146
C118  C     C_R   0.855252 0.684005 0.246326 0.241897
C119  C     C_R   0.101318 0.587383 0.629984 0.573372
C120  C     C_R   0.169111 0.339124 0.795425 0.255142
C121  C     C_R   0.709991 0.226665 0.837682 0.022023
C122  C     C_R   0.263236 0.828143 0.082345 0.041406
C123  C     C_R   0.290026 0.226685 0.162349 0.021992
C124  C     C_R   0.736764 0.828141 0.917651 0.041351
C125  C     C_R   0.209982 0.726675 0.837664 0.022023
C126  C     C_R   0.763241 0.328138 0.082355 0.041407
C127  C     C_R   0.790009 0.726671 0.162326 0.022002
C128  C     C_R   0.236777 0.328151 0.917667 0.041372
C129  C     C_R   0.791596 0.217365 0.874787 0.007467
C130  C     C_R   0.360354 0.750432 0.970237 -0.141631
C131  C     C_R   0.182061 0.849860 0.032974 0.010292
C132  C     C_R   0.208420 0.217384 0.125236 0.007471
C133  C     C_R   0.817936 0.849870 0.967040 0.010268
C134  C     C_R   0.291586 0.717377 0.874765 0.007469
C135  C     C_R   0.682066 0.349858 0.032977 0.010286
C136  C     C_R   0.708402 0.717363 0.125206 0.007469
C137  C     C_R   0.317947 0.349875 0.967044 0.010271
C138  C     C_R   0.700365 0.273700 0.896038 0.014457
C139  C     C_R   0.272952 0.795691 0.008084 0.032601
C140  C     C_R   0.299654 0.273718 0.103992 0.014466
Cu1   Cu    Cu3+1 0.526640 0.000000 0.436960 0.942542
Cu2   Cu    Cu3+1 0.473360 0.000000 0.563040 0.942526
Cu3   Cu    Cu3+1 0.026640 0.500000 0.436960 0.942535
Cu4   Cu    Cu3+1 0.973360 0.500000 0.563040 0.942517
H1    H     H_    0.422242 0.744907 0.996822 0.109462
H2    H     H_    0.754541 0.097973 0.698638 0.116376
H3    H     H_    0.892987 0.684222 0.112432 0.146138
H4    H     H_    0.930260 0.613208 0.194271 0.210086
H5    H     H_    0.076004 0.652478 0.328849 0.175088
H6    H     H_    0.031052 0.656066 0.176082 0.112130
H7    H     H_    0.040369 0.725996 0.250999 0.142917
H8    H     H_    0.386840 0.983386 0.171097 0.133616
H9    H     H_    0.613158 0.983294 0.828965 0.133574
H10   H     H_    0.886839 0.483378 0.171087 0.133592
H11   H     H_    0.113162 0.483364 0.828920 0.133572
H12   H     H_    0.768018 0.935036 0.736374 0.117123
H13   H     H_    0.245457 0.097977 0.301349 0.116364
H14   H     H_    0.731982 0.435015 0.263649 0.117128
H15   H     H_    0.254538 0.597979 0.698632 0.116376
H16   H     H_    0.268017 0.435032 0.736362 0.117125
H17   H     H_    0.745452 0.597963 0.301339 0.116368
H18   H     H_    0.366638 0.667758 0.845194 0.110942
H19   H     H_    0.609464 0.402701 0.063777 0.110790
H20   H     H_    0.633345 0.667733 0.154756 0.110942
H21   H     H_    0.551398 0.356103 0.874557 0.105465
H22   H     H_    0.390540 0.402725 0.936239 0.110789
H23   H     H_    0.866647 0.167745 0.845215 0.110942
H24   H     H_    0.109462 0.902698 0.063785 0.110792
H25   H     H_    0.133361 0.167761 0.154789 0.110944
H26   H     H_    0.890535 0.902728 0.936254 0.110788
H27   H     H_    0.408085 0.810432 0.112221 0.223809
H28   H     H_    0.567002 0.293308 0.755284 0.179735
H29   H     H_    0.591902 0.810405 0.887726 0.223824
H30   H     H_    0.433018 0.293321 0.244741 0.179735
H31   H     H_    0.908094 0.310420 0.112244 0.223807
H32   H     H_    0.577740 0.744877 0.003117 0.109455
H33   H     H_    0.066991 0.793314 0.755276 0.179733
H34   H     H_    0.091926 0.310438 0.887770 0.223797
H35   H     H_    0.932994 0.793319 0.244736 0.179736
H36   H     H_    0.276424 0.048850 0.773562 0.082415
H37   H     H_    0.723564 0.048776 0.226388 0.082472
H38   H     H_    0.776424 0.548806 0.773577 0.082437
H39   H     H_    0.223566 0.548795 0.226402 0.082467
H40   H     H_    0.691699 0.013062 0.500657 0.119517
H41   H     H_    0.308314 0.013097 0.499332 0.119534
H42   H     H_    0.191697 0.513065 0.500660 0.119519
H43   H     H_    0.448615 0.356122 0.125464 0.105473
H44   H     H_    0.808306 0.513068 0.499335 0.119523
H45   H     H_    0.253129 0.031445 0.600356 0.089991
H46   H     H_    0.746873 0.031371 0.399606 0.089994
H47   H     H_    0.753123 0.531394 0.600368 0.089992
H48   H     H_    0.246874 0.531381 0.399615 0.089994
H49   H     H_    0.251509 0.010888 0.902725 0.163732
H50   H     H_    0.241591 0.093287 0.863735 0.121322
H51   H     H_    0.257750 0.125842 0.029545 0.143721
H52   H     H_    0.177481 0.067391 0.952518 0.104447
H53   H     H_    0.279799 0.048211 0.089560 0.142239
H54   H     H_    0.922253 0.244891 0.996850 0.109453
H55   H     H_    0.748269 0.010715 0.096788 0.163853
H56   H     H_    0.758504 0.093041 0.136292 0.121371
H57   H     H_    0.742593 0.125919 0.971000 0.143614
H58   H     H_    0.822264 0.067023 0.046907 0.104527
H59   H     H_    0.719652 0.048550 0.909814 0.142368
H60   H     H_    0.751574 0.510844 0.902880 0.163792
H61   H     H_    0.741556 0.593209 0.863716 0.121356
H62   H     H_    0.757637 0.625881 0.029332 0.143705
H63   H     H_    0.677546 0.567290 0.952668 0.104472
H64   H     H_    0.779973 0.548335 0.089736 0.142301
H65   H     H_    0.051391 0.856104 0.874559 0.105468
H66   H     H_    0.248289 0.510764 0.096821 0.163875
H67   H     H_    0.258496 0.593089 0.136315 0.121356
H68   H     H_    0.242589 0.625976 0.971030 0.143609
H69   H     H_    0.322282 0.567096 0.046959 0.104525
H70   H     H_    0.219683 0.548603 0.909861 0.142362
H71   H     H_    0.350230 0.723275 0.224291 0.118731
H72   H     H_    0.397039 0.754924 0.368718 0.129295
H73   H     H_    0.539863 0.742956 0.426954 0.164346
H74   H     H_    0.484055 0.670176 0.387643 0.082782
H75   H     H_    0.489984 0.708070 0.284438 0.147901
H76   H     H_    0.077763 0.244912 0.003166 0.109455
H77   H     H_    0.607050 0.184189 0.887601 0.146215
H78   H     H_    0.569690 0.113198 0.805689 0.210145
H79   H     H_    0.423989 0.152543 0.671198 0.175056
H80   H     H_    0.468974 0.156099 0.823982 0.112152
H81   H     H_    0.459701 0.226039 0.749120 0.142894
H82   H     H_    0.649838 0.723268 0.775731 0.118729
H83   H     H_    0.603020 0.754906 0.631293 0.129290
H84   H     H_    0.460197 0.742896 0.573041 0.164332
H85   H     H_    0.516048 0.670134 0.612392 0.082776
H86   H     H_    0.510089 0.708023 0.715574 0.147902
H87   H     H_    0.948598 0.856125 0.125471 0.105473
H88   H     H_    0.392991 0.184225 0.112438 0.146101
H89   H     H_    0.430256 0.113210 0.194270 0.210085
H90   H     H_    0.576006 0.152469 0.328842 0.175089
H91   H     H_    0.531048 0.156060 0.176072 0.112118
H92   H     H_    0.540378 0.225990 0.250998 0.142915
H93   H     H_    0.850230 0.223272 0.224341 0.118728
H94   H     H_    0.897045 0.254942 0.368761 0.129292
H95   H     H_    0.039868 0.242959 0.427000 0.164343
H96   H     H_    0.984057 0.170181 0.387709 0.082780
H97   H     H_    0.989986 0.208058 0.284489 0.147899
H98   H     H_    0.231982 0.935010 0.263657 0.117134
H99   H     H_    0.107026 0.684203 0.887574 0.146227
H100  H     H_    0.069693 0.613206 0.805683 0.210117
H101  H     H_    0.923980 0.652528 0.671161 0.175064
H102  H     H_    0.968951 0.656093 0.823937 0.112158
H103  H     H_    0.959667 0.726031 0.749062 0.142895
H104  H     H_    0.149858 0.223269 0.775807 0.118723
H105  H     H_    0.103056 0.254890 0.631360 0.129266
H106  H     H_    0.960222 0.242887 0.573078 0.164324
H107  H     H_    0.016086 0.170124 0.612484 0.082770
H108  H     H_    0.010100 0.208032 0.715628 0.147899
N1    N     N_R   0.433280 0.000000 0.657760 -0.265031
N2    N     N_R   0.566720 0.000000 0.342240 -0.265054
N3    N     N_R   0.933280 0.500000 0.657760 -0.265036
N4    N     N_R   0.066720 0.500000 0.342240 -0.265047
O1    O     O_R   0.600040 0.935040 0.546740 -0.501233
O2    O     O_R   0.444990 0.064930 0.346780 -0.514047
O3    O     O_R   0.444990 0.935070 0.346780 -0.484333
O4    O     O_R   0.555010 0.064930 0.653220 -0.514053
O5    O     O_R   0.055010 0.435070 0.653220 -0.484337
O6    O     O_R   0.944990 0.564930 0.346780 -0.514060
O7    O     O_R   0.944990 0.435070 0.346780 -0.484326
O8    O     O_R   0.055010 0.564930 0.653220 -0.514098
O9    O     O_3   0.362282 0.063571 0.008960 -0.617780
O10   O     O_3   0.637668 0.063592 0.991010 -0.617847
O11   O     O_3   0.862292 0.563580 0.008958 -0.617799
O12   O     O_R   0.399960 0.064960 0.453260 -0.511857
O13   O     O_3   0.137673 0.563623 0.991027 -0.617823
O14   O     O_3   0.408237 0.810504 0.265169 -0.562869
O15   O     O_3   0.563582 0.188794 0.713638 -0.569679
O16   O     O_3   0.591780 0.810481 0.734804 -0.562887
O17   O     O_3   0.436432 0.188804 0.286388 -0.569657
O18   O     O_3   0.908239 0.310499 0.265184 -0.562873
O19   O     O_3   0.063574 0.688801 0.713620 -0.569678
O20   O     O_3   0.091793 0.310484 0.734829 -0.562887
O21   O     O_3   0.936420 0.688801 0.286376 -0.569664
O22   O     O_2   0.405777 0.927635 0.084141 -0.542531
O23   O     O_R   0.399960 0.935040 0.453260 -0.501234
O24   O     O_2   0.594128 0.927581 0.915848 -0.542666
O25   O     O_2   0.905790 0.427624 0.084150 -0.542564
O26   O     O_2   0.094213 0.427635 0.915884 -0.542654
O27   O     O_R   0.600040 0.064960 0.546740 -0.511845
O28   O     O_R   0.100040 0.435040 0.546740 -0.501235
O29   O     O_R   0.899960 0.564960 0.453260 -0.511844
O30   O     O_R   0.899960 0.435040 0.453260 -0.501242
O31   O     O_R   0.100040 0.564960 0.546740 -0.511843
O32   O     O_R   0.555010 0.935070 0.653220 -0.484356

loop_
_geom_bond_atom_site_label_1
_geom_bond_atom_site_label_2
_ccdc_geom_bond_type
C125  C134  A    
C39   O20   S    
C29   H80   S    
C79   C83   A    
C96   C105  A    
C89   C115  A    
C52   C70   A    
C27   H75   S    
C37   H99   S    
C56   N2    A    
C123  C132  A    
C59   N1    A    
C75   O4    A    
C41   C42   S    
C30   H82   S    
C17   H49   S    
C19   C20   S    
C76   C79   A    
C29   H81   S    
C116  C125  A    
C80   C84   A    
C85   C112  A    
C95   H24   S    
C32   H88   S    
C102  C111  A    
C5    C138  A    
C14   C46   A    
C66   C70   A    
C3    C124  A    
C62   N4    A    
C34   O18   S    
C82   H37   S    
C19   H56   S    
Cu2   N1    S    
C54   H48   S    
C124  C133  A    
C8    C139  A    
C36   H97   S    
C78   O10   S    
C28   C29   S    
C86   C93   S    
C53   O12   A    
Cu2   O12   S    
C122  C139  A    
C51   C56   A    
C126  C135  A    
C48   H76   S    
C7    C140  A    
C40   H108  S    
C104  H98   S    
C58   H42   S    
Cu4   O5    S    
C64   O23   A    
Cu3   Cu4   S    
C38   H102  S    
C31   H86   S    
C75   O27   A    
C45   C62   S    
C65   C73   A    
C22   H62   S    
C108  O7    A    
C26   H72   S    
C80   O13   S    
C21   H61   S    
C34   H93   S    
C42   H5    S    
C92   C118  A    
Cu1   O27   S    
C57   H44   S    
C72   C78   A    
C32   O17   S    
C26   O14   S    
C13   H32   S    
C61   C66   A    
C75   C85   S    
C105  H13   S    
C54   C71   A    
C87   C104  A    
C28   H77   S    
C39   H105  S    
C89   C106  A    
C79   O11   S    
Cu1   O2    S    
C91   C117  A    
C11   C140  A    
C58   N4    A    
C69   C82   A    
C93   C120  A    
C90   C116  A    
C7    C128  A    
C100  H19   S    
C6    C16   A    
C117  C126  A    
C35   C129  A    
C86   O5    A    
C34   C36   S    
C36   H96   S    
C33   H91   S    
C16   H35   S    
C96   C132  A    
C51   C69   A    
C3    C6    A    
C36   H95   S    
C7    C15   A    
Cu4   O29   S    
C100  C109  A    
C61   N3    A    
C28   O15   S    
C74   C80   A    
C21   C22   S    
C130  H1    S    
C95   C131  A    
C21   H60   S    
C17   H50   S    
C130  C134  A    
C15   C48   A    
C17   O9    S    
C34   H94   S    
C109  H14   S    
C91   C108  S    
C112  O15   S    
C110  H17   S    
C92   C97   S    
C120  O20   S    
C1    O1    A    
C32   H89   S    
C84   H39   S    
Cu1   O3    S    
C11   C24   A    
C90   C119  S    
Cu4   N3    S    
C94   C129  A    
C45   O25   D    
C113  C122  A    
C18   H52   S    
C30   O16   S    
C16   C49   A    
C20   H59   S    
C5    C12   A    
C114  O17   S    
C46   C131  A    
C43   H8    S    
C40   H107  S    
C115  O16   S    
C72   C73   A    
C56   H40   S    
C101  C110  A    
C38   H101  S    
Cu4   O30   S    
C123  C140  A    
Cu1   O1    S    
C47   H11   S    
C83   H38   S    
C97   O29   A    
C26   H71   S    
C102  C137  A    
C121  C138  A    
C49   H87   S    
C25   H68   S    
C111  H16   S    
C47   C61   S    
C37   C38   S    
C70   C83   A    
C47   O26   D    
C99   H18   S    
C40   H106  S    
C9    C138  A    
C78   C82   A    
C44   H9    S    
C119  O8    A    
C41   H3    S    
C77   C81   A    
C30   C31   S    
C18   H53   S    
C60   N2    A    
C17   C18   S    
Cu3   O28   S    
C22   H64   S    
C128  C137  A    
Cu3   O6    S    
Cu2   O4    S    
C127  C136  A    
C12   C35   A    
C42   H7    S    
C33   H92   S    
C2    H21   S    
C114  C123  A    
C35   H54   S    
C102  H22   S    
C51   H46   S    
C74   C76   A    
C43   C60   S    
C93   C111  A    
C12   H31   S    
C62   C67   A    
Cu3   O31   S    
C4    C125  A    
C60   C65   A    
C27   H73   S    
C106  H12   S    
C96   H25   S    
C19   O10   S    
C26   C27   S    
C13   C136  A    
C57   N3    A    
C50   H45   S    
Cu3   O7    S    
C118  C127  A    
Cu1   N2    S    
Cu4   O8    S    
C122  C131  A    
C39   C40   S    
C27   H74   S    
C95   C104  A    
C119  O31   A    
C71   C84   A    
C54   C58   A    
C101  C136  A    
C29   H79   S    
C49   C133  A    
C63   C68   A    
C25   H70   S    
C11   H30   S    
C1    C89   S    
C115  C124  A    
C64   C87   S    
C2    C135  A    
C18   H51   S    
C86   O28   A    
C59   C63   A    
C30   H83   S    
C101  H20   S    
C53   O2    A    
C81   H36   S    
C121  C129  A    
C117  O18   S    
C9    H28   S    
C10   C13   A    
C85   C103  A    
C94   H23   S    
C90   C107  A    
C118  O21   S    
C107  H15   S    
C100  C135  A    
C20   H57   S    
C67   C76   A    
C23   H66   S    
C24   C137  A    
C43   O22   D    
C46   H65   S    
C99   C107  A    
C94   C103  A    
C19   H55   S    
C50   C55   A    
C98   C106  A    
C68   C81   A    
Cu3   N4    S    
C32   C33   S    
C91   C109  A    
C25   H69   S    
C4    C14   A    
C20   H58   S    
C112  C121  A    
C98   C133  A    
C3    C10   A    
Cu1   Cu2   S    
C37   O19   S    
C116  O19   S    
C8    C130  A    
C88   C105  A    
C2    C9    A    
C92   C110  A    
C120  C128  A    
C44   O24   D    
C41   H4    S    
C23   H67   S    
C10   H29   S    
C65   C69   A    
C38   H103  S    
C31   H85   S    
C23   O13   S    
C77   O9    S    
C22   H63   S    
C53   C88   S    
C67   C71   A    
C113  O14   S    
C55   H41   S    
C88   C114  A    
C6    C127  A    
C42   H6    S    
C5    C126  A    
C87   C113  A    
C14   H33   S    
C41   O21   S    
C52   C57   A    
C21   O11   S    
C97   O6    A    
C39   H104  S    
C98   H26   S    
C108  O30   A    
C55   N1    A    
C23   C25   S    
C63   C72   A    
C99   C134  A    
C8    H27   S    
C28   H78   S    
C15   H34   S    
C37   H100  S    
C73   C77   A    
C48   C132  A    
Cu2   O23   S    
C24   H43   S    
C45   H10   S    
C44   C59   S    
C31   H84   S    
C64   O3    A    
C50   C68   A    
C52   H47   S    
C1    O32   A    
C33   H90   S    
C103  H2    S    
Cu2   O32   S    
C4    C139  A    
C66   C74   A    
