data_str_m3_o14_o19_f0_pcu.sym.41
_audit_creation_date              2012-12-10T17:45:33-0500
_audit_creation_method            fapswitch 2.2
_symmetry_space_group_name_H-M    P1
_symmetry_Int_Tables_number       1
_space_group_crystal_system       triclinic
_cell_length_a                    11.565522
_cell_length_b                    10.659046
_cell_length_c                    9.927066
_cell_angle_alpha                 89.904515
_cell_angle_beta                  90.118191
_cell_angle_gamma                 91.821257
_cell_volume                      1223.16081369

loop_
_atom_site_label
_atom_site_type_symbol
_atom_type_description
_atom_site_fract_x
_atom_site_fract_y
_atom_site_fract_z
_atom_type_partial_charge
C1    C     C_R   0.503018 0.260930 0.500222 0.869525
C2    C     C_R   0.506171 0.872366 0.499456 -0.099642
C3    C     C_R   0.357424 0.325951 0.139526 -0.234648
C4    C     C_R   0.282022 0.499505 0.499908 0.885760
C5    C     C_R   0.297754 0.230920 0.069855 -0.285423
C6    C     C_R   0.302076 0.227130 0.930118 0.487238
C7    C     C_R   0.360768 0.323067 0.860420 -0.247016
C8    C     C_R   0.430494 0.413662 0.927857 0.109694
C9    C     C_R   0.429989 0.414137 0.072190 0.191668
C10   C     C_R   0.566641 0.582670 0.071459 -0.099409
C11   C     C_R   0.566465 0.582790 0.928429 -0.056878
C12   C     C_R   0.761514 0.072789 0.727098 0.519694
C13   C     C_R   0.501804 0.739477 0.499840 0.856250
C14   C     C_R   0.717981 0.500185 0.500135 0.874802
C15   C     C_1   0.161499 0.499187 0.499821 -0.159212
C16   C     C_1   0.059344 0.499121 0.500061 0.038170
C17   C     C_1   0.940634 0.499364 0.500360 0.054021
C18   C     C_1   0.838489 0.499726 0.500418 -0.141772
C19   C     C_R   0.680590 0.135456 0.650288 -0.242958
C20   C     C_3   0.321709 0.870180 0.350586 -0.406918
C21   C     C_3   0.345918 0.864468 0.199543 -0.729372
C22   C     C_R   0.763891 0.942237 0.721854 -0.226382
C23   C     C_R   0.683085 0.875055 0.643600 -0.254404
C24   C     C_R   0.594469 0.937213 0.573295 0.090173
C25   C     C_R   0.594698 0.068473 0.575356 0.039390
C26   C     C_R   0.509415 0.129091 0.500531 -0.070155
C27   C     C_R   0.425835 0.064305 0.425467 -0.174643
C28   C     C_R   0.421349 0.935463 0.425427 0.155076
H1    H     H_    0.360764 0.114869 0.370395 0.140659
H2    H     H_    0.148710 0.925286 0.890193 0.388661
H3    H     H_    0.976922 0.317627 0.799413 0.390432
H4    H     H_    0.425083 0.811391 0.179617 0.262928
H5    H     H_    0.271844 0.816639 0.147434 0.259648
H6    H     H_    0.357727 0.960546 0.157394 0.265608
H7    H     H_    0.302670 0.774165 0.389507 0.210212
H8    H     H_    0.241092 0.922233 0.366890 0.220845
H9    H     H_    0.350089 0.323372 0.754027 0.227574
H10   H     H_    0.620873 0.650425 0.874803 0.143015
H11   H     H_    0.686158 0.236736 0.651095 0.190522
H12   H     H_    0.828187 0.892029 0.777909 0.183440
H13   H     H_    0.691364 0.774486 0.639589 0.168207
H14   H     H_    0.621153 0.650229 0.125056 0.149576
H15   H     H_    0.345348 0.326768 0.245805 0.221039
H16   H     H_    0.248112 0.160508 0.125578 0.206336
N1    N     N_R   0.498930 0.498800 0.142780 -0.111210
N2    N     N_R   0.498900 0.498720 0.857170 -0.106382
O1    O     O_R   0.500000 0.316780 0.614690 -0.629664
O2    O     O_2   0.336219 0.031379 0.771978 -0.324440
O3    O     O_3   0.170323 0.999297 0.946103 -0.535393
O4    O     O_2   0.788140 0.232578 0.930657 -0.304779
O5    O     O_2   0.937005 0.075521 0.904957 -0.242180
O6    O     O_3   0.934656 0.262213 0.734760 -0.534298
O7    O     O_R   0.499990 0.316750 0.385360 -0.629305
O8    O     O_R   0.334450 0.500030 0.614670 -0.618345
O9    O     O_R   0.334440 0.500000 0.385330 -0.634378
O10   O     O_R   0.500010 0.683250 0.614640 -0.610876
O11   O     O_R   0.500000 0.683220 0.385310 -0.620218
O12   O     O_R   0.665560 0.500000 0.614670 -0.614670
O13   O     O_R   0.665550 0.499970 0.385330 -0.596357
O14   O     O_2   0.158759 0.145629 0.735839 -0.256609
S1    S     S_3+6 0.240705 0.098881 0.840763 0.029363
S2    S     S_3+6 0.857360 0.160368 0.830861 0.047066
Zn1   Zn    Zn3+2 0.500010 0.500020 0.653130 0.966526
Zn2   Zn    Zn3+2 0.499990 0.499980 0.346870 0.954817

loop_
_geom_bond_atom_site_label_1
_geom_bond_atom_site_label_2
_ccdc_geom_bond_type
C11   H10   S    
C23   C24   A    
C24   C25   A    
C9    N1    A    
C6    C7    A    
C3    C9    A    
C10   H14   S    
C12   S2    S    
C14   C18   S    
N1    Zn2   S    
C23   H13   S    
H3    O6    S    
N2    Zn1   S    
C3    C5    A    
C13   O10   A    
C22   H12   S    
O9    Zn2   S    
C4    C15   S    
C17   C18   T    
C26   C27   A    
O10   Zn1   S    
C7    C8    A    
O13   Zn2   S    
O6    S2    S    
C20   C21   S    
O1    Zn1   S    
C14   O13   A    
C3    H15   S    
O2    S1    D    
C5    C6    A    
O5    S2    D    
C19   H11   S    
C10   N1    A    
C19   C25   A    
C12   C19   A    
O7    Zn2   S    
C5    H16   S    
C4    O9    A    
C2    C24   A    
C1    C26   S    
C14   O12   A    
C21   H4    S    
C8    N2    A    
O4    S2    D    
C21   H5    S    
O8    Zn1   S    
C15   C16   T    
C20   H8    S    
C12   C22   A    
C27   C28   A    
C13   O11   A    
O3    S1    S    
C27   H1    S    
C6    S1    S    
O11   Zn2   S    
C10   C11   A    
O12   Zn1   S    
C2    C13   S    
C1    O7    A    
C22   C23   A    
C8    C9    A    
C11   N2    A    
C2    C28   A    
C21   H6    S    
C20   C28   S    
C4    O8    A    
C25   C26   A    
C20   H7    S    
H2    O3    S    
C1    O1    A    
C16   C17   S    
O14   S1    D    
C7    H9    S    
