data_str_m12_o9_o10_f0_bcu.sym.41
_audit_creation_date              2012-12-11T17:37:48-0500
_audit_creation_method            fapswitch 2.2
_symmetry_space_group_name_H-M    P1
_symmetry_Int_Tables_number       1
_space_group_crystal_system       triclinic
_cell_length_a                    12.922319
_cell_length_b                    13.049262
_cell_length_c                    15.216201
_cell_angle_alpha                 116.181235
_cell_angle_beta                  63.787945
_cell_angle_gamma                 96.777726
_cell_volume                      2056.38528249

loop_
_atom_site_label
_atom_site_type_symbol
_atom_type_description
_atom_site_fract_x
_atom_site_fract_y
_atom_site_fract_z
_atom_type_partial_charge
C1    C     C_R   0.999256 0.832495 0.053926 -0.116488
C2    C     C_R   0.295899 0.597602 0.789335 -0.141562
C3    C     C_R   0.259879 0.413988 0.044846 -0.158397
C4    C     C_R   0.678457 0.470558 0.221075 -0.111922
C5    C     C_R   0.055429 0.278529 0.684004 -0.137811
C6    C     C_R   0.362976 0.431910 0.970987 0.157651
C7    C     C_R   0.045463 0.169831 0.679926 0.052115
C8    C     C_R   0.287344 0.574538 0.693669 0.099209
C9    C     C_R   0.001922 0.156194 0.052932 0.078441
C10   C     C_R   0.483402 0.802607 0.197033 -0.081322
C11   C     C_R   0.377002 0.841374 0.289725 -0.150069
C12   C     C_R   0.669482 0.547303 0.323799 0.086610
C13   C     C_R   0.293955 0.910353 0.298747 0.110088
C14   C     C_R   0.321100 0.945316 0.216774 -0.206630
C15   C     C_R   0.426350 0.904191 0.123009 -0.100295
C16   C     C_R   0.755939 0.519989 0.892055 -0.180974
C17   C     C_R   0.507629 0.833100 0.113129 -0.091427
C18   C     C_R   0.166015 0.040021 0.490102 -0.208087
C19   C     C_R   0.062811 0.064302 0.585068 0.057593
C20   C     C_R   0.974046 0.989513 0.586866 0.025982
C21   C     C_R   0.986876 0.897615 0.492103 -0.266017
C22   C     C_R   0.085952 0.876800 0.395640 0.062696
C23   C     C_R   0.663027 0.459259 0.923840 0.158187
C24   C     C_R   0.179456 0.944518 0.394165 0.044217
C25   C     C_R   0.857881 0.930817 0.734412 -0.280386
C26   C     C_R   0.763074 0.948015 0.832928 -0.261543
C27   C     C_R   0.676679 0.037323 0.883661 0.635565
C28   C     C_R   0.021208 0.694203 0.299494 -0.161319
C29   C     C_R   0.681424 0.104084 0.830377 -0.302155
C30   C     C_R   0.776207 0.086569 0.731274 -0.178824
C31   C     C_R   0.866523 0.001908 0.684682 0.138002
C32   C     C_R   0.756269 0.441520 0.533459 -0.133802
C33   C     C_R   0.682247 0.477560 0.505936 -0.118151
C34   C     C_R   0.079317 0.789025 0.300031 0.085649
C35   C     C_R   0.658204 0.595007 0.540888 0.130818
C36   C     C_R   0.710043 0.675840 0.603293 -0.180282
C37   C     C_R   0.785441 0.638885 0.629370 -0.107684
C38   C     C_R   0.807997 0.522063 0.595060 -0.131371
C39   C     C_R   0.459010 0.665375 0.619471 -0.214141
C40   C     C_R   0.676580 0.422232 0.989744 -0.123443
C41   C     C_R   0.362371 0.612189 0.608268 0.006330
C42   C     C_R   0.358003 0.574559 0.506178 -0.102672
C43   C     C_R   0.455429 0.586935 0.420337 0.492479
C44   C     C_R   0.562527 0.594020 0.425412 -0.083436
C45   C     C_R   0.338749 0.514939 0.948356 -0.108513
C46   C     C_R   0.563602 0.630846 0.527519 -0.031054
C47   C     C_R   0.328008 0.368589 0.436959 -0.282888
C48   C     C_R   0.265529 0.277478 0.402611 -0.228521
C49   C     C_R   0.161353 0.296155 0.402564 0.637517
C50   C     C_R   0.121410 0.409929 0.436044 -0.370201
C51   C     C_R   0.182856 0.501953 0.473021 -0.172485
C52   C     C_R   0.097171 0.798057 0.207843 -0.131268
C53   C     C_R   0.287330 0.481389 0.472391 0.133892
C54   C     C_2   0.477398 0.390050 0.941908 -0.204740
C55   C     C_2   0.569970 0.435338 0.891378 -0.209144
C56   C     C_R   0.982801 0.181256 0.784073 -0.111253
C57   C     C_2   0.830419 0.955014 0.087427 -0.216965
C58   C     C_2   0.815278 0.039359 0.184051 -0.156769
C59   C     C_R   0.781251 0.563975 0.314154 -0.120317
C60   C     C_R   0.900313 0.747126 0.955608 -0.153989
C61   C     C_R   0.911294 0.851366 0.031500 0.143739
C62   C     C_3   0.584307 0.168332 0.062363 0.215830
C63   C     C_3   0.539696 0.169013 0.173099 -0.894041
C64   C     C_3   0.408451 0.535349 0.273628 0.271739
C65   C     C_3   0.297472 0.579181 0.283319 -0.918242
C66   C     C_3   0.985281 0.221744 0.412794 0.234046
C67   C     C_R   0.191426 0.514953 0.698197 -0.130796
C68   C     C_3   0.930516 0.110311 0.405046 -0.905489
C69   C     C_R   0.049089 0.257765 0.092380 -0.133746
C70   C     C_R   0.946231 0.174817 0.000656 -0.135496
H1    H     H_    0.027636 0.894802 0.112262 0.094355
H2    H     H_    0.546515 0.748109 0.189842 0.142845
H3    H     H_    0.358760 0.816837 0.354068 0.164720
H4    H     H_    0.610239 0.432706 0.198834 0.070843
H5    H     H_    0.259988 0.002183 0.224263 0.160419
H6    H     H_    0.444666 0.927409 0.058000 0.175476
H7    H     H_    0.235877 0.094593 0.491522 0.128098
H8    H     H_    0.914977 0.845021 0.493519 0.143334
H9    H     H_    0.927451 0.865529 0.699116 0.143658
H10   H     H_    0.758888 0.894562 0.872028 0.130182
H11   H     H_    0.612978 0.170528 0.866542 0.135467
H12   H     H_    0.962111 0.113850 0.809469 0.117513
H13   H     H_    0.781263 0.141092 0.692899 0.141566
H14   H     H_    0.864269 0.494185 0.617586 0.097489
H15   H     H_    0.779347 0.548485 0.829402 0.096390
H16   H     H_    0.770712 0.351278 0.509393 0.103440
H17   H     H_    0.639854 0.414243 0.461089 0.105898
H18   H     H_    0.689982 0.766820 0.633607 0.133269
H19   H     H_    0.824221 0.700376 0.678621 0.113847
H20   H     H_    0.462642 0.701817 0.696844 0.133342
H21   H     H_    0.408369 0.351444 0.436415 0.143984
H22   H     H_    0.298205 0.191284 0.376185 0.144713
H23   H     H_    0.142577 0.502209 0.653323 0.116888
H24   H     H_    0.043757 0.428093 0.433244 0.132337
H25   H     H_    0.002250 0.656045 0.354717 0.106542
H26   H     H_    0.149082 0.588692 0.502224 0.139314
H27   H     H_    0.480574 0.344378 0.985352 0.113647
H28   H     H_    0.567892 0.477244 0.844450 0.135745
H29   H     H_    0.776132 0.960349 0.051600 0.142765
H30   H     H_    0.864049 0.037944 0.225894 0.139458
H31   H     H_    0.629826 0.360674 0.017641 0.050254
H32   H     H_    0.144070 0.859482 0.179434 0.102342
H33   H     H_    0.807740 0.621375 0.375757 0.115136
H34   H     H_    0.085793 0.278630 0.149092 0.099521
H35   H     H_    0.836898 0.730363 0.923880 0.094801
H36   H     H_    0.397322 0.553356 0.897295 0.094117
H37   H     H_    0.523296 0.226214 0.067444 0.097198
H38   H     H_    0.671205 0.202218 0.044328 0.085283
H39   H     H_    0.540009 0.256335 0.234261 0.205149
H40   H     H_    0.450006 0.143945 0.197698 0.262541
H41   H     H_    0.595645 0.107844 0.169853 0.265400
H42   H     H_    0.399566 0.451192 0.276791 0.078434
H43   H     H_    0.476062 0.518021 0.190649 0.113272
H44   H     H_    0.318510 0.614829 0.223871 0.246428
H45   H     H_    0.887065 0.119118 0.973381 0.101492
H46   H     H_    0.242923 0.507668 0.265542 0.225222
H47   H     H_    0.246878 0.647700 0.366077 0.260709
H48   H     H_    0.961087 0.255326 0.368076 0.107976
H49   H     H_    0.949970 0.282940 0.500908 0.084935
H50   H     H_    0.942017 0.082659 0.459554 0.263806
H51   H     H_    0.836337 0.123273 0.430693 0.209743
H52   H     H_    0.971988 0.042135 0.320276 0.254677
H53   H     H_    0.349484 0.656330 0.822470 0.090476
H54   H     H_    0.249721 0.357956 0.082593 0.102321
H55   H     H_    0.096782 0.301338 0.616884 0.114765
H56   H     H_    0.589393 0.802080 0.040784 0.105059
N1    N     N_R   0.037320 0.720000 0.995830 -0.044935
N2    N     N_R   0.824900 0.517970 0.936430 -0.038146
N3    N     N_R   0.003190 0.648180 0.211390 -0.037921
N4    N     N_R   0.774330 0.457010 0.995830 -0.040405
N5    N     N_R   0.053760 0.709130 0.151980 -0.040948
N6    N     N_R   0.853840 0.498830 0.211390 -0.045444
N7    N     N_R   0.974250 0.667320 0.936430 -0.041116
N8    N     N_R   0.225670 0.542990 0.004170 -0.044583
N9    N     N_R   0.946240 0.290870 0.848020 -0.042451
N10   N     N_R   0.146160 0.501170 0.788610 -0.043563
N11   N     N_R   0.025750 0.332680 0.063570 -0.038507
N12   N     N_R   0.962680 0.280000 0.004170 -0.043826
N13   N     N_R   0.209230 0.553860 0.848010 -0.041375
N14   N     N_R   0.175100 0.482030 0.063570 -0.039493
N15   N     N_R   0.996810 0.351820 0.788610 -0.041770
N16   N     N_R   0.790770 0.446140 0.151990 -0.045749
Ni1   Ni    Ni4+2 0.130310 0.630310 0.000000 0.215145
Ni2   Ni    Ni4+2 0.869690 0.369690 0.000000 0.207534
Ni3   Ni    Ni4+2 0.985660 0.509480 0.863750 0.205910
Ni4   Ni    Ni4+2 0.014340 0.490520 0.136250 0.213533
O1    O     O_3   0.587642 0.055804 0.984330 -0.662566
O2    O     O_3   0.444521 0.620916 0.349439 -0.642530
O3    O     O_3   0.106801 0.199505 0.363964 -0.657664

loop_
_geom_bond_atom_site_label_1
_geom_bond_atom_site_label_2
_ccdc_geom_bond_type
C25   C31   A    
C66   C68   S    
C6    C45   A    
C27   C29   A    
C65   H44   S    
C35   C36   A    
C3    C6    A    
C39   C41   A    
C2    H53   S    
C36   H18   S    
C52   H32   S    
C26   C27   A    
C37   C38   A    
C57   C61   S    
C28   H25   S    
C18   C24   A    
C2    N13   A    
C36   C37   A    
C9    C69   A    
C18   C19   A    
C42   C53   S    
C4    N16   A    
C30   C31   A    
C17   H56   S    
C64   H42   S    
C62   H38   S    
C10   C17   A    
C23   C40   A    
C57   H29   S    
C28   N3    A    
C41   C42   A    
C30   H13   S    
C43   O2    S    
C40   H31   S    
C12   C59   A    
N13   Ni1   S    
C19   C20   A    
C21   H8    S    
C54   H27   S    
C32   C38   A    
C4    C12   A    
C29   C30   A    
N4    Ni2   S    
C39   H20   S    
C4    H4    S    
N10   Ni3   S    
N15   Ni3   S    
C51   H26   S    
C47   C53   A    
C15   H6    S    
N8    Ni1   S    
C28   C34   A    
C21   C22   A    
C64   O2    S    
N6    N16   A    
C7    C56   A    
C6    C54   S    
N10   N13   A    
C44   C46   A    
C69   N11   A    
C22   C34   S    
C59   N6    A    
C1    N1    A    
N11   Ni4   S    
C58   H30   S    
C8    C41   S    
C66   O3    S    
C11   H3    S    
N14   Ni4   S    
C5    C7    A    
C50   H24   S    
C62   H37   S    
C25   C26   A    
C26   H10   S    
C13   C24   S    
C1    C61   A    
C60   C61   A    
C51   C53   A    
C63   H39   S    
C43   C44   A    
C29   H11   S    
C62   C63   S    
C5    N15   A    
C47   C48   A    
C32   H16   S    
C50   C51   A    
C45   N8    A    
N1    Ni1   S    
C9    C70   A    
C56   H12   S    
C16   N2    A    
N3    Ni4   S    
C39   C46   A    
C3    H54   S    
C48   C49   A    
C70   N12   A    
C16   C23   A    
C7    C19   S    
C62   O1    S    
C48   H22   S    
C16   H15   S    
C65   H46   S    
N16   Ni2   S    
N7    Ni3   S    
C42   C43   A    
C68   H52   S    
C56   N9    A    
N5    Ni1   S    
C45   H36   S    
C69   H34   S    
C15   C17   A    
C40   N4    A    
C54   C55   D    
N9    Ni2   S    
C64   H43   S    
C38   H14   S    
C25   H9    S    
C52   N5    A    
C47   H21   S    
C2    C8    A    
N1    N7    A    
N2    N4    A    
C68   H51   S    
C23   C55   S    
C49   O3    S    
C70   H45   S    
N11   N12   A    
C34   C52   A    
C37   H19   S    
C66   H49   S    
N6    Ni4   S    
C32   C33   A    
C63   H40   S    
C67   N10   A    
C33   H17   S    
C59   H33   S    
C12   C44   S    
N12   Ni2   S    
C64   C65   S    
N8    N14   A    
C11   C13   A    
C57   C58   D    
C1    H1    S    
C18   H7    S    
C55   H28   S    
C33   C35   A    
C22   C24   A    
C63   H41   S    
N2    Ni3   S    
C10   C11   A    
N9    N15   A    
C20   C21   A    
C8    C67   A    
C27   O1    S    
C49   C50   A    
C66   H48   S    
C5    H55   S    
C67   H23   S    
C65   H47   S    
C14   C15   A    
C3    N14   A    
C13   C14   A    
C35   C46   S    
C60   N7    A    
C68   H50   S    
C60   H35   S    
C14   H5    S    
N3    N5    A    
C20   C31   S    
C10   H2    S    
