data_str_m2_o1_o18_f0_pcu.sym.147
_audit_creation_date              2012-12-10T17:58:18-0500
_audit_creation_method            fapswitch 2.2
_symmetry_space_group_name_H-M    P1
_symmetry_Int_Tables_number       1
_space_group_crystal_system       triclinic
_cell_length_a                    9.659822
_cell_length_b                    10.824722
_cell_length_c                    15.283096
_cell_angle_alpha                 86.750303
_cell_angle_beta                  75.278768
_cell_angle_gamma                 88.552194
_cell_volume                      1543.03323093

loop_
_atom_site_label
_atom_site_type_symbol
_atom_type_description
_atom_site_fract_x
_atom_site_fract_y
_atom_site_fract_z
_atom_type_partial_charge
C1    C     C_R   0.002507 0.262842 0.496958 0.788269
C2    C     C_R   0.997448 0.737158 0.503234 0.787667
C3    C     C_R   0.570159 0.579781 0.088503 -0.218176
C4    C     C_R   0.421379 0.476462 0.903417 -0.215646
C5    C     C_R   0.713360 0.596395 0.044174 -0.236677
C6    C     C_R   0.278386 0.458686 0.947287 -0.239708
C7    C     C_R   0.916827 0.067427 0.449994 0.430210
C8    C     C_R   0.083156 0.932594 0.550477 0.431066
C9    C     C_R   0.908918 0.939641 0.459692 -0.225586
C10   C     C_R   0.090992 0.060462 0.540863 -0.224662
C11   C     C_R   0.993893 0.871170 0.506972 -0.215295
C12   C     C_R   0.006069 0.128858 0.493460 -0.215753
C13   C     C_R   0.550713 0.447363 0.570287 -0.046556
C14   C     C_R   0.449250 0.552318 0.429634 -0.044139
C15   C     C_R   0.402471 0.449784 0.573343 0.200686
C16   C     C_R   0.597328 0.550150 0.426694 0.199413
C17   C     C_R   0.918902 0.502175 0.672408 0.776691
C18   C     C_R   0.081176 0.499173 0.327437 0.775420
C19   C     C_R   0.872538 0.515592 0.771200 -0.046515
C20   C     C_R   0.127472 0.495278 0.227675 -0.047238
C21   C     C_R   0.909232 0.589422 0.910031 -0.204714
C22   C     C_R   0.087010 0.445254 0.083902 -0.203005
C23   C     C_R   0.961715 0.566256 0.818735 -0.214000
C24   C     C_R   0.037185 0.453930 0.177202 -0.207976
C25   C     C_R   0.729677 0.489941 0.816245 -0.231678
C26   C     C_R   0.269591 0.525456 0.183347 -0.233531
C27   C     C_R   0.670875 0.521841 0.906436 0.090334
C28   C     C_R   0.324716 0.512697 0.089498 0.089172
C29   C     C_R   0.764810 0.568445 0.953919 0.162812
C30   C     C_R   0.229747 0.472832 0.039988 0.163579
C31   C     C_R   0.522107 0.509227 0.950535 0.070303
C32   C     C_R   0.471752 0.534181 0.044014 0.069829
Cu1   Cu    Cu3+1 0.140660 0.500020 0.500000 0.947166
Cu2   Cu    Cu3+1 0.859340 0.499980 0.500000 0.947253
H1    H     H_    0.784682 0.631933 0.080792 0.151674
H2    H     H_    0.205538 0.432145 0.908354 0.150521
H3    H     H_    0.336237 0.555114 0.224555 0.138894
H4    H     H_    0.666317 0.445450 0.778813 0.136910
H5    H     H_    0.930214 0.423321 0.209567 0.144451
H6    H     H_    0.070008 0.592468 0.785215 0.144446
H7    H     H_    0.980543 0.627940 0.945632 0.146288
H8    H     H_    0.014976 0.412744 0.046368 0.146826
H9    H     H_    0.539490 0.607024 0.157230 0.131945
H10   H     H_    0.449406 0.466475 0.831696 0.132183
H11   H     H_    0.840513 0.894091 0.426282 0.172448
H12   H     H_    0.159334 0.106185 0.574345 0.171893
H13   H     H_    0.588742 0.405004 0.625750 0.133312
H14   H     H_    0.411203 0.594801 0.374222 0.132456
N1    N     N_R   0.352080 0.500030 0.499980 -0.173533
N2    N     N_R   0.647920 0.499970 0.500020 -0.173190
O1    O     O_R   0.118740 0.319660 0.500000 -0.585177
O2    O     O_R   0.881260 0.680340 0.500000 -0.585782
O3    O     O_R   0.881170 0.319630 0.500010 -0.554344
O4    O     O_R   0.118830 0.680370 0.499990 -0.555179
O5    O     O_R   0.055570 0.500030 0.629830 -0.598191
O6    O     O_R   0.944430 0.499970 0.370170 -0.598576
O7    O     O_R   0.818000 0.500000 0.629840 -0.583163
O8    O     O_R   0.182000 0.500000 0.370160 -0.583533
O9    O     O_3   0.839240 0.127633 0.395683 -0.718504
H15   H     H_    0.889611 0.204475 0.368372 0.324059
O10   O     O_3   0.160781 0.872320 0.604734 -0.718572
H16   H     H_    0.110695 0.795240 0.631772 0.323955
C33   C     C_3   0.309635 0.409949 0.666450 -0.372946
C34   C     C_3   0.241093 0.282741 0.672650 -0.312013
C35   C     C_3   0.191363 0.231426 0.770627 -0.874300
H17   H     H_    0.141023 0.139937 0.772226 0.259898
H18   H     H_    0.283456 0.219276 0.801619 0.260905
H19   H     H_    0.110990 0.294981 0.810983 0.255007
H20   H     H_    0.319640 0.216819 0.633340 0.220271
H21   H     H_    0.145475 0.289512 0.646276 0.252640
H22   H     H_    0.376565 0.402748 0.715596 0.147034
H23   H     H_    0.236169 0.484119 0.695257 0.206934
C36   C     C_3   0.689774 0.592141 0.334096 -0.372841
C37   C     C_3   0.756319 0.719773 0.330416 -0.310026
C38   C     C_3   0.800832 0.777528 0.234105 -0.881791
H24   H     H_    0.882955 0.718276 0.190867 0.255887
H25   H     H_    0.706779 0.789691 0.204977 0.258632
H26   H     H_    0.847868 0.869841 0.235110 0.262641
H27   H     H_    0.678123 0.782714 0.373182 0.221538
H28   H     H_    0.854321 0.711578 0.354249 0.252544
H29   H     H_    0.764451 0.519229 0.305057 0.207941
H30   H     H_    0.623657 0.598742 0.284324 0.148512

loop_
_geom_bond_atom_site_label_1
_geom_bond_atom_site_label_2
_ccdc_geom_bond_type
Cu1   O5    S    
C9    H11   S    
Cu1   O8    S    
C27   C29   A    
C36   C37   S    
Cu2   O6    S    
C3    H9    S    
C16   N2    A    
C14   N1    A    
Cu1   N1    S    
C23   H6    S    
C24   H5    S    
C36   H29   S    
C38   H25   S    
C1    O3    A    
C18   O8    A    
C20   C24   A    
C35   H18   S    
C10   H12   S    
Cu2   O7    S    
C14   C16   A    
C34   H21   S    
C17   O5    A    
C18   O6    A    
C8    O10   S    
O9    H15   S    
C37   H28   S    
C3    C32   A    
C1    C12   S    
C2    C11   S    
C10   C12   A    
C7    O9    S    
C5    C29   A    
C7    C12   A    
Cu2   N2    S    
C37   C38   S    
C27   C31   A    
C16   C36   S    
C28   C32   A    
C4    C6    A    
C2    O4    A    
C13   H13   S    
C14   H14   S    
C4    H10   S    
C21   C29   A    
C13   N2    A    
C19   C23   A    
C38   H24   S    
C25   H4    S    
C1    O1    A    
C31   C32   A    
C35   H19   S    
Cu1   Cu2   S    
C34   H20   S    
C9    C11   A    
C2    O2    A    
C21   H7    S    
C6    C30   A    
C33   H22   S    
C37   H27   S    
C13   C15   A    
C22   C24   A    
Cu1   O1    S    
C36   H30   S    
Cu1   O4    S    
C7    C9    A    
C22   C30   A    
Cu2   O2    S    
C3    C5    A    
C26   H3    S    
C25   C27   A    
C26   C28   A    
C34   C35   S    
C21   C23   A    
C22   H8    S    
C20   C26   A    
C8    C11   A    
C5    H1    S    
C28   C30   A    
C17   C19   S    
C6    H2    S    
C18   C20   S    
C15   N1    A    
O10   H16   S    
C19   C25   A    
C38   H26   S    
C4    C31   A    
C33   C34   S    
C33   H23   S    
Cu2   O3    S    
C8    C10   A    
C35   H17   S    
C15   C33   S    
C17   O7    A    
