data_str_m9_o1_o16_f0_sra.sym.249
_audit_creation_date              2013-03-05T15:55:32-0500
_audit_creation_method            fapswitch 2.2
_symmetry_space_group_name_H-M    P1
_symmetry_Int_Tables_number       1
_space_group_crystal_system       triclinic
_cell_length_a                    20.186866
_cell_length_b                    7.260724
_cell_length_c                    13.551058
_cell_angle_alpha                 89.913982
_cell_angle_beta                  103.251753
_cell_angle_gamma                 90.022679
_cell_volume                      1933.30556618

loop_
_atom_site_label
_atom_site_type_symbol
_atom_site_description
_atom_site_fract_x
_atom_site_fract_y
_atom_site_fract_z
_atom_type_partial_charge
O1    O     O_R   0.449560 0.506810 0.599700 -0.590795
O2    O     O_R   0.550440 0.006810 0.400300 -0.582962
O3    O     O_R   0.587960 0.180060 0.595760 -0.585865
O4    O     O_R   0.412040 0.680060 0.404240 -0.591672
C1    C     C_R   0.614970 0.344193 0.617047 0.969792
C2    C     C_R   0.385022 0.844249 0.383031 0.964331
O5    O     O_R   0.452380 0.177430 0.611700 -0.575418
O6    O     O_R   0.547620 0.677430 0.388300 -0.583777
O7    O     O_R   0.413900 0.001890 0.416350 -0.574216
O8    O     O_R   0.586100 0.501890 0.583650 -0.583712
C3    C     C_R   0.436061 0.345629 0.637105 1.007734
C4    C     C_R   0.563664 0.845644 0.362647 1.007631
O9    O     O_3   0.487530 0.337490 0.435890 -0.283029
O10   O     O_3   0.512470 0.837490 0.564110 -0.283984
V1    V     V_3+5 0.502310 0.064660 0.511890 1.271154
V2    V     V_3+5 0.497690 0.564660 0.488110 1.255388
C5    C     C_R   0.609435 0.856533 0.111061 -0.064729
C6    C     C_R   0.389085 0.412341 0.885714 -0.058353
H1    H     H_    0.517093 0.835323 0.162225 0.143595
H2    H     H_    0.479722 0.442753 0.830734 0.149405
H3    H     H_    0.581215 0.862947 0.033088 0.174952
H4    H     H_    0.415834 0.450102 0.961567 0.169152
C7    C     C_R   0.604751 0.852078 0.286967 -0.232664
C8    C     C_R   0.394873 0.355219 0.712660 -0.235595
C9    C     C_R   0.931995 0.815968 0.314701 -0.149627
C10   C     C_R   0.068072 0.373558 0.682944 -0.147464
C11   C     C_R   0.896225 0.776488 0.388207 -0.082172
C12   C     C_R   0.103705 0.385542 0.606886 -0.088396
C13   C     C_R   0.825412 0.783225 0.364530 -0.051343
C14   C     C_R   0.174558 0.380169 0.630933 -0.052190
C15   C     C_R   0.788313 0.839512 0.267359 0.102586
C16   C     C_R   0.211847 0.354876 0.732150 0.104967
C17   C     C_R   0.825009 0.865100 0.190526 0.051000
C18   C     C_R   0.175224 0.356058 0.810110 0.052137
C19   C     C_R   0.715740 0.856548 0.242192 -0.079971
C20   C     C_R   0.284531 0.345950 0.758781 -0.073047
C21   C     C_R   0.681077 0.861294 0.137640 -0.029263
C22   C     C_R   0.318782 0.375356 0.861920 -0.025318
C23   C     C_R   0.718517 0.875786 0.061739 0.359536
C24   C     C_R   0.281832 0.373083 0.938694 0.352145
C25   C     C_R   0.789250 0.887841 0.089384 -0.334928
C26   C     C_R   0.211064 0.359220 0.912063 -0.337467
C27   C     C_R   0.676037 0.869203 0.316700 0.292906
C28   C     C_R   0.324789 0.313550 0.686638 0.279822
C29   C     C_R   0.572103 0.843905 0.184886 -0.217492
C30   C     C_R   0.425960 0.409394 0.810944 -0.217118
C31   C     C_R   0.897084 0.856513 0.215639 -0.137440
C32   C     C_R   0.103123 0.361481 0.784367 -0.131115
H5    H     H_    0.987026 0.806179 0.333866 0.156586
H6    H     H_    0.012974 0.380382 0.663012 0.144718
H7    H     H_    0.800879 0.733979 0.422141 0.173267
H8    H     H_    0.199029 0.405943 0.569476 0.171108
H9    H     H_    0.923450 0.735159 0.463389 0.147323
H10   H     H_    0.076313 0.403535 0.528854 0.156199
H11   H     H_    0.816276 0.903200 0.029436 0.161358
H12   H     H_    0.184117 0.356147 0.972548 0.160817
C33   C     C_R   0.227499 0.005800 0.191745 -0.052871
C34   C     C_R   0.772842 0.507179 0.806943 -0.042649
H13   H     H_    0.212665 0.123992 0.142814 0.173613
H14   H     H_    0.787880 0.626316 0.854880 0.175775
C35   C     C_R   0.292856 0.003263 0.255014 -0.009335
C36   C     C_R   0.707582 0.504740 0.743373 -0.010402
H15   H     H_    0.326210 0.119877 0.254327 0.181550
H16   H     H_    0.674654 0.622717 0.742352 0.186265
C37   C     C_R   0.315489 0.850020 0.316483 -0.202767
C38   C     C_R   0.684482 0.349968 0.683724 -0.232881
C39   C     C_R   0.270657 0.701648 0.315656 -0.134368
C40   C     C_R   0.728925 0.200337 0.686258 -0.093373
H17   H     H_    0.286758 0.585138 0.365384 0.188879
H18   H     H_    0.712439 0.082354 0.638264 0.212085
C41   C     C_R   0.203803 0.705458 0.255673 0.402685
C42   C     C_R   0.795920 0.204730 0.745594 0.393544
C43   C     C_R   0.182142 0.857592 0.190236 -0.313032
C44   C     C_R   0.817880 0.357909 0.809764 -0.326271
O11   O     O_R   0.913920 0.203370 0.916260 -0.563081
O12   O     O_R   0.086080 0.703370 0.083740 -0.559659
O13   O     O_R   0.047620 0.535540 0.888290 -0.593013
O14   O     O_R   0.952380 0.035540 0.111710 -0.591807
C45   C     C_R   0.063523 0.368404 0.862213 0.925980
C46   C     C_R   0.936538 0.867974 0.137796 0.925830
O15   O     O_R   0.912040 0.532780 0.904220 -0.590731
O16   O     O_R   0.087960 0.032780 0.095780 -0.590047
O17   O     O_R   0.949550 0.708160 0.099720 -0.580020
O18   O     O_R   0.050450 0.208160 0.900280 -0.579339
C47   C     C_R   0.886114 0.364565 0.881179 0.968278
C48   C     C_R   0.113886 0.864448 0.118827 0.967392
O19   O     O_3   0.012480 0.375300 0.064060 -0.263461
O20   O     O_3   0.987520 0.875300 0.935940 -0.264763
V3    V     V_3+5 0.997690 0.648180 0.988110 1.257050
V4    V     V_3+5 0.002310 0.148180 0.011890 1.257864
N1    N     N_R   0.158028 0.559295 0.266852 0.236340
O21   O     O_R   0.097468 0.597870 0.279069 -0.425248
O22   O     O_R   0.180663 0.391732 0.283684 -0.376488
N2    N     N_R   0.841615 0.058369 0.734733 0.244355
O23   O     O_R   0.901852 0.096834 0.721022 -0.403964
O24   O     O_R   0.819066 0.890397 0.719567 -0.378687
N3    N     N_R   0.685762 0.877168 0.955731 0.222082
O25   O     O_R   0.706070 0.991638 0.894819 -0.424460
O26   O     O_R   0.645643 0.742375 0.917243 -0.451593
N4    N     N_R   0.315319 0.379204 0.044457 0.221028
O27   O     O_R   0.288186 0.470755 0.107692 -0.428117
O28   O     O_R   0.366033 0.269128 0.080208 -0.438605
N5    N     N_R   0.705886 0.922768 0.419353 0.206523
O29   O     O_R   0.742159 0.072376 0.437209 -0.401875
O30   O     O_R   0.695426 0.825472 0.495108 -0.427071
N6    N     N_R   0.297323 0.217821 0.593242 0.215134
O31   O     O_R   0.307091 0.279494 0.507451 -0.420116
O32   O     O_R   0.263055 0.066218 0.594187 -0.390645

loop_
_geom_bond_atom_site_label_1
_geom_bond_atom_site_label_2
_geom_bond_distance
_ccdc_geom_bond_type
C34   C36   1.399166 A    
C38   C40   1.404609 A    
C7    C29   1.390550 A    
C11   C13   1.392312 A    
O1    C3    1.327421 A    
O2    C4    1.328695 A    
C2    O7    1.316856 A    
N3    O25   1.301143 A    
C23   C25   1.393416 A    
O14   V4    2.033616 S    
O5    C3    1.331190 A    
C4    C7    1.460019 S    
O13   V3    2.035569 S    
C16   C20   1.429876 A    
C32   C45   1.463263 S    
C19   C21   1.429502 A    
C5    C29   1.386528 A    
C10   H6    1.083877 S    
C45   O18   1.322808 A    
O14   C46   1.325782 A    
C33   H13   1.083162 S    
N6    O31   1.301687 A    
C34   H14   1.083264 S    
C3    C8    1.461155 S    
C7    C27   1.408134 A    
C33   C43   1.409776 A    
C35   H15   1.082930 S    
C25   H11   1.082992 S    
C36   H16   1.082576 S    
O11   V4    1.990633 S    
C26   H12   1.082844 S    
O19   V4    1.788300 S    
O11   C47   1.336940 A    
C2    C37   1.484887 S    
C37   C39   1.405110 A    
C18   C26   1.405177 A    
C15   C17   1.421347 A    
C19   C27   1.428836 A    
C9    C31   1.396637 A    
C10   C32   1.396831 A    
O12   V3    1.991128 S    
O15   V3    2.020996 S    
C24   C26   1.394587 A    
O6    V2    2.033888 S    
C22   C24   1.412345 A    
O18   V4    2.023122 S    
C31   C46   1.462478 S    
C46   O17   1.321301 A    
C6    C30   1.388178 A    
N3    O26   1.301157 A    
O15   C47   1.337475 A    
C27   N5    1.437531 S    
O13   C45   1.324460 A    
O17   V3    2.024266 S    
C36   C38   1.401125 A    
C17   C25   1.404524 A    
C42   C44   1.419654 A    
N1    O21   1.301381 A    
C41   C43   1.420323 A    
C12   H10   1.082839 S    
O5    V1    2.035844 S    
O16   C48   1.337785 A    
C5    H3    1.080300 S    
H1    C29   1.083997 S    
C40   C42   1.406443 A    
C39   H17   1.083259 S    
C16   C18   1.421540 A    
O4    V2    2.020048 S    
N1    O22   1.301083 A    
O6    C4    1.329467 A    
N4    O28   1.301408 A    
N5    O30   1.301756 A    
O1    V2    2.019505 S    
C5    C21   1.408427 A    
N2    O24   1.301648 A    
O2    V1    2.020609 S    
O4    C2    1.314863 A    
C17   C31   1.417613 A    
C15   C19   1.431375 A    
C20   C28   1.427098 A    
C18   C32   1.417386 A    
O12   C48   1.337072 A    
O3    V1    2.020895 S    
C34   C44   1.409755 A    
C13   H7    1.076510 S    
C14   H8    1.077352 S    
C6    H4    1.081460 S    
C1    C38   1.485262 S    
O3    C1    1.314958 A    
C24   N4    1.438403 S    
C11   H9    1.082838 S    
C33   C35   1.399107 A    
C28   N6    1.439777 S    
C9    C11   1.387263 A    
C10   C12   1.388095 A    
O16   V4    2.020145 S    
C8    C30   1.393036 A    
C20   C22   1.426470 A    
C6    C22   1.407257 A    
C42   N2    1.437138 S    
C1    O8    1.316638 A    
C13   C15   1.417139 A    
O8    V2    2.002160 S    
C14   C16   1.416916 A    
N6    O32   1.301440 A    
C8    C28   1.410224 A    
C12   C14   1.392770 A    
N4    O27   1.301277 A    
C39   C41   1.407080 A    
C44   C47   1.491697 S    
O7    V1    2.002727 S    
N2    O23   1.301671 A    
C9    H5    1.083681 S    
C43   C48   1.491998 S    
C23   N3    1.437156 S    
C35   C37   1.401323 A    
C21   C23   1.412864 A    
C41   N1    1.437350 S    
O20   V3    1.786491 S    
C40   H18   1.081568 S    
O9    V2    1.788882 S    
N5    O29   1.301398 A    
O10   V1    1.787071 S    
H2    C30   1.083960 S    
