data_str_m4_o11_o11_f0_acs.sym.78
_audit_creation_date              2013-03-05T15:40:19-0500
_audit_creation_method            fapswitch 2.2
_symmetry_space_group_name_H-M    P1
_symmetry_Int_Tables_number       1
_space_group_crystal_system       triclinic
_cell_length_a                    11.359646
_cell_length_b                    11.360094
_cell_length_c                    18.936679
_cell_angle_alpha                 89.749625
_cell_angle_beta                  90.2501
_cell_angle_gamma                 120.039054
_cell_volume                      2115.45897264

loop_
_atom_site_label
_atom_site_type_symbol
_atom_site_description
_atom_site_fract_x
_atom_site_fract_y
_atom_site_fract_z
_atom_type_partial_charge
O1    O     O_R   0.434100 0.092480 0.829780 -0.541330
O2    O     O_R   0.907520 0.341620 0.829780 -0.534929
O3    O     O_R   0.658380 0.565900 0.829780 -0.546492
O4    O     O_R   0.092480 0.434100 0.170220 -0.535705
O5    O     O_R   0.341620 0.907520 0.170220 -0.529256
O6    O     O_R   0.565900 0.658380 0.170220 -0.542562
O7    O     O_R   0.477510 0.362730 0.824640 -0.515380
O8    O     O_R   0.637270 0.114780 0.824640 -0.513328
O9    O     O_R   0.885220 0.522490 0.824640 -0.516746
O10   O     O_R   0.362730 0.477510 0.175360 -0.528429
O11   O     O_R   0.114780 0.637270 0.175360 -0.527605
O12   O     O_R   0.522490 0.885220 0.175360 -0.531204
C1    C     C_R   0.540603 0.480106 0.851225 0.531323
C2    C     C_R   0.519834 0.060192 0.851185 0.535023
C3    C     C_R   0.939816 0.459543 0.851201 0.537561
C4    C     C_R   0.473991 0.544817 0.144043 0.523672
C5    C     C_R   0.070675 0.526034 0.143980 0.525379
C6    C     C_R   0.455111 0.929255 0.143957 0.528126
O13   O     O_R   0.432250 0.092620 0.670380 -0.451889
O14   O     O_R   0.907380 0.339630 0.670380 -0.442705
O15   O     O_R   0.660370 0.567750 0.670380 -0.477033
O16   O     O_R   0.092620 0.432250 0.329620 -0.447659
O17   O     O_R   0.339630 0.907380 0.329620 -0.440218
O18   O     O_R   0.567750 0.660370 0.329620 -0.473971
O19   O     O_R   0.475790 0.362860 0.676880 -0.441896
O20   O     O_R   0.637140 0.112930 0.676880 -0.488403
O21   O     O_R   0.887070 0.524210 0.676880 -0.471937
O22   O     O_R   0.362860 0.475790 0.323120 -0.436923
O23   O     O_R   0.112930 0.637140 0.323120 -0.482364
O24   O     O_R   0.524210 0.887070 0.323120 -0.466660
C7    C     C_R   0.539517 0.483649 0.653495 0.594432
C8    C     C_R   0.524225 0.075861 0.644547 0.584683
C9    C     C_R   0.940723 0.459221 0.650569 0.615721
C10   C     C_R   0.483692 0.539484 0.346478 0.602127
C11   C     C_R   0.075737 0.524164 0.355430 0.590431
C12   C     C_R   0.459222 0.940719 0.349432 0.622063
C13   C     C_2   0.019426 0.511115 0.585934 -0.093951
C14   C     C_2   0.495088 0.510563 0.588589 -0.000359
C15   C     C_2   0.510980 0.041292 0.569331 -0.096652
C16   C     C_2   0.511137 0.019401 0.414068 -0.093627
C17   C     C_2   0.510441 0.495408 0.411530 -0.000182
C18   C     C_2   0.040997 0.510791 0.430645 -0.097961
C19   C     C_2   0.068428 0.431333 0.474553 0.175821
C20   C     C_2   0.530325 0.571313 0.468550 0.208697
C21   C     C_2   0.438331 0.066394 0.447178 0.165041
C22   C     C_2   0.431541 0.068720 0.525415 0.176241
C23   C     C_2   0.571230 0.531744 0.531540 0.209876
C24   C     C_2   0.066235 0.438168 0.552804 0.166835
Cr1   Cr    Cr6+3 0.464030 0.233680 0.750360 1.096986
Cr2   Cr    Cr6+3 0.766320 0.230350 0.750360 1.077527
Cr3   Cr    Cr6+3 0.769650 0.535970 0.750360 1.064236
Cr4   Cr    Cr6+3 0.233680 0.464030 0.249640 1.102132
Cr5   Cr    Cr6+3 0.230350 0.766320 0.249640 1.082006
Cr6   Cr    Cr6+3 0.535970 0.769650 0.249640 1.068332
H1    H     H_    0.016234 0.584643 0.450456 0.130788
H2    H     H_    0.520045 0.405042 0.413018 0.143957
H3    H     H_    0.591435 0.010843 0.439986 0.131433
H4    H     H_    0.584934 0.016670 0.549527 0.131087
H5    H     H_    0.403658 0.518316 0.587138 0.144579
H6    H     H_    0.010990 0.591489 0.560025 0.131853
O25   O     O_3   0.666667 0.333333 0.749450 -0.272649
O26   O     O_3   0.333333 0.666667 0.250550 -0.281255
C25   C     C_2   0.023081 0.514328 0.915351 -0.117990
C26   C     C_2   0.486819 0.508632 0.915462 -0.117573
C27   C     C_2   0.491202 0.977019 0.915361 -0.119993
C28   C     C_2   0.498848 0.979364 0.069674 -0.140396
C29   C     C_2   0.480353 0.501155 0.069918 -0.137718
C30   C     C_2   0.020664 0.519856 0.069660 -0.141529
C31   C     C_2   0.053359 0.634728 0.029118 -0.024468
C32   C     C_2   0.365592 0.418990 0.029343 -0.023652
C33   C     C_2   0.581407 0.947083 0.029571 -0.024660
C34   C     C_2   0.587310 0.961697 0.950096 0.013090
C35   C     C_2   0.374809 0.412959 0.949872 0.012389
C36   C     C_2   0.038147 0.625783 0.949676 0.013207
H7    H     H_    0.968412 0.419859 0.046126 0.084295
H8    H     H_    0.580471 0.548707 0.046589 0.083935
H9    H     H_    0.451045 0.031537 0.045828 0.084729
H10   H     H_    0.394949 0.946382 0.940009 0.075849
H11   H     H_    0.553207 0.604630 0.940279 0.075346
H12   H     H_    0.054282 0.449114 0.940312 0.075677
N1    N     N_R   0.097115 0.331107 0.446244 0.148914
O27   O     O_R   0.998228 0.218166 0.421009 -0.253997
O28   O     O_R   0.214999 0.341608 0.457252 -0.246788
N2    N     N_R   0.503785 0.683081 0.470703 0.069209
O29   O     O_R   0.574882 0.784939 0.512751 -0.349867
O30   O     O_R   0.395092 0.672186 0.441203 -0.355239
N3    N     N_R   0.352934 0.102205 0.406284 0.120862
O31   O     O_R   0.223917 0.047201 0.420299 -0.195124
O32   O     O_R   0.400165 0.175202 0.349224 -0.352889
N4    N     N_R   0.331410 0.097566 0.553712 0.149197
O33   O     O_R   0.218377 0.998768 0.578917 -0.256205
O34   O     O_R   0.342066 0.215502 0.542666 -0.247257
N5    N     N_R   0.684277 0.507204 0.529298 0.069852
O35   O     O_R   0.786694 0.580745 0.487992 -0.345758
O36   O     O_R   0.674169 0.398028 0.557770 -0.353948
N6    N     N_R   0.101928 0.352654 0.593686 0.121035
O37   O     O_R   0.046897 0.223665 0.579609 -0.196558
O38   O     O_R   0.174621 0.399671 0.650860 -0.362297
C37   C     C_3   0.110579 0.770502 0.067865 -0.220767
C38   C     C_3   0.151753 0.910723 0.039360 -0.477908
H13   H     H_    0.236332 0.943807 0.002213 0.126907
H14   H     H_    0.067081 0.920677 0.017607 0.140048
H15   H     H_    0.192446 0.983999 0.083911 0.158841
H16   H     H_    0.039802 0.757010 0.111605 0.180073
H17   H     H_    0.208646 0.783624 0.083747 0.205633
C39   C     C_3   0.229751 0.340006 0.068150 -0.221009
C40   C     C_3   0.089585 0.240623 0.039811 -0.478347
H18   H     H_    0.055865 0.292324 0.002855 0.127018
H19   H     H_    0.079890 0.146511 0.017965 0.140978
H20   H     H_    0.016540 0.207016 0.084482 0.155754
H21   H     H_    0.243443 0.282655 0.112116 0.184053
H22   H     H_    0.216191 0.424578 0.083849 0.205504
C41   C     C_3   0.660455 0.890323 0.068729 -0.220793
C42   C     C_3   0.759379 0.848910 0.040825 -0.477292
H23   H     H_    0.707407 0.763679 0.004032 0.126788
H24   H     H_    0.853841 0.933198 0.018910 0.140478
H25   H     H_    0.792518 0.808933 0.085721 0.156001
H26   H     H_    0.717746 0.961091 0.112600 0.180025
H27   H     H_    0.575413 0.792252 0.084289 0.208091
C43   C     C_3   0.708149 0.972949 0.909877 -0.217148
C44   C     C_3   0.832891 0.107192 0.928449 -0.401947
H28   H     H_    0.811467 0.190801 0.921084 0.199139
H29   H     H_    0.852400 0.109994 0.985320 0.135991
H30   H     H_    0.922209 0.123208 0.897269 0.137912
H31   H     H_    0.723162 0.886623 0.918595 0.125412
H32   H     H_    0.693343 0.960727 0.852109 0.166808
C45   C     C_3   0.264736 0.292647 0.909284 -0.215893
C46   C     C_3   0.273499 0.167397 0.927836 -0.404469
H33   H     H_    0.378130 0.188065 0.920291 0.199969
H34   H     H_    0.257790 0.147979 0.984736 0.136599
H35   H     H_    0.199151 0.078257 0.896715 0.135987
H36   H     H_    0.163574 0.278087 0.917721 0.127711
H37   H     H_    0.267499 0.307945 0.851520 0.176890
C47   C     C_3   0.025374 0.734928 0.909268 -0.215818
C48   C     C_3   0.890885 0.724259 0.928225 -0.401556
H38   H     H_    0.807803 0.618541 0.921959 0.199436
H39   H     H_    0.889190 0.742497 0.984907 0.135298
H40   H     H_    0.873220 0.796163 0.896351 0.136339
H41   H     H_    0.111284 0.836655 0.917550 0.125657
H42   H     H_    0.037159 0.732919 0.851491 0.167226

loop_
_geom_bond_atom_site_label_1
_geom_bond_atom_site_label_2
_geom_bond_distance
_ccdc_geom_bond_type
O19   C7    1.267277 A    
C48   H40   1.109299 S    
N3    O31   1.301499 A    
O20   C8    1.285334 A    
N5    O35   1.300951 A    
O9    Cr3   1.977075 S    
O10   Cr4   1.985556 S    
C46   H33   1.100019 S    
N1    O27   1.301560 A    
C48   H38   1.101175 S    
C39   H22   1.089124 S    
C21   C22   1.484927 S    
O21   C9    1.273236 A    
C30   H7    1.080928 S    
O16   C11   1.253667 A    
O24   Cr6   1.982315 S    
O4    Cr4   2.094667 S    
O5    Cr5   2.097170 S    
C21   N3    1.446400 S    
N2    O30   1.301346 A    
O20   Cr2   1.976744 S    
C47   H42   1.104562 S    
C43   H32   1.104792 S    
C39   C40   1.515231 S    
O18   Cr6   2.095913 S    
C33   C41   1.530243 S    
C8    C15   1.466098 S    
C11   C18   1.466471 S    
C45   H36   1.088363 S    
C44   H30   1.109353 S    
O14   Cr2   2.101391 S    
O2    Cr2   2.097160 S    
C41   H27   1.087818 S    
C28   C33   1.394165 D    
C30   C31   1.392397 D    
N6    O38   1.301929 A    
C26   C35   1.356956 D    
C16   H3    1.080190 S    
C19   C24   1.485147 S    
O3    C1    1.265147 A    
C20   C23   1.428409 S    
C39   H21   1.112393 S    
C37   H16   1.112347 S    
O22   C10   1.267445 A    
N5    O36   1.301625 A    
C40   H19   1.100847 S    
C10   C17   1.415695 S    
O6    Cr6   2.103950 S    
O13   C8    1.253633 A    
N1    O28   1.299533 A    
O21   Cr3   1.982275 S    
O17   Cr5   2.101419 S    
C25   H12   1.075284 S    
C16   C21   1.345971 D    
C37   H17   1.088530 S    
Cr1   O25   1.992924 S    
C42   H25   1.111635 S    
C12   C16   1.456153 S    
N2    O29   1.300779 A    
O7    Cr1   1.985604 S    
C32   C39   1.531096 S    
C47   H41   1.087935 S    
O3    Cr3   2.103917 S    
C43   H31   1.088043 S    
O5    C6    1.286945 A    
Cr6   O26   1.992896 S    
C35   C45   1.520543 S    
C15   H4    1.078694 S    
C38   H15   1.111689 S    
C9    C13   1.456202 S    
C41   H26   1.112346 S    
C46   H34   1.096216 S    
C17   H2    1.085530 S    
C18   H1    1.078739 S    
O15   C7    1.259130 A    
Cr5   O26   1.993994 S    
O13   Cr1   2.104597 S    
N4    O34   1.299526 A    
C37   C38   1.515360 S    
C40   H18   1.095790 S    
N6    O37   1.301494 A    
C34   C43   1.520948 S    
C32   C35   1.513241 S    
C38   H14   1.101199 S    
C23   N5    1.444859 S    
C31   C36   1.511550 S    
C4    C29   1.504796 S    
C13   C24   1.345982 D    
O2    C3    1.266933 A    
C14   C23   1.330664 D    
C15   C22   1.369555 D    
O14   C9    1.269450 A    
C31   C37   1.530318 S    
N3    O32   1.301849 A    
C19   N1    1.438146 S    
C40   H20   1.111754 S    
C18   C19   1.369687 D    
O4    C5    1.285453 A    
C45   C46   1.514911 S    
C46   H35   1.109344 S    
O8    Cr2   1.981473 S    
O15   Cr3   2.095890 S    
C43   C44   1.514637 S    
O16   Cr4   2.104543 S    
C41   C42   1.516576 S    
C48   H39   1.096157 S    
C28   H9    1.080662 S    
O11   C5    1.253417 A    
C5    C30   1.504092 S    
O8    C2    1.261648 A    
C27   H10   1.075434 S    
C24   N6    1.446545 S    
C45   H37   1.104929 S    
C20   N2    1.445155 S    
O11   Cr5   1.981491 S    
C42   H24   1.101017 S    
C44   H28   1.100360 S    
C42   H23   1.096114 S    
C47   C48   1.515450 S    
C22   N4    1.438180 S    
C25   C36   1.358002 D    
C6    C28   1.505180 S    
C27   C34   1.355691 D    
O23   C11   1.285502 A    
C7    C14   1.415870 S    
O24   C12   1.273196 A    
C29   C32   1.392966 D    
O9    C3    1.259803 A    
C33   C34   1.511500 S    
Cr4   O26   1.993004 S    
Cr3   O25   1.992975 S    
O22   Cr4   1.973558 S    
N4    O33   1.301552 A    
C1    C26   1.471796 S    
O23   Cr5   1.976742 S    
C17   C20   1.330969 D    
C36   C47   1.521438 S    
C38   H13   1.096019 S    
C26   H11   1.075581 S    
C2    C27   1.470079 S    
O19   Cr1   1.973594 S    
C44   H29   1.095945 S    
C13   H6    1.080206 S    
O6    C4    1.285557 A    
C14   H5    1.085606 S    
O7    C1    1.261344 A    
O17   C12   1.269433 A    
O12   C6    1.251585 A    
Cr2   O25   1.993997 S    
C3    C25   1.471374 S    
O18   C10   1.259191 A    
O10   C4    1.252520 A    
O1    C2    1.265015 A    
O1    Cr1   2.094706 S    
O12   Cr6   1.977106 S    
C29   H8    1.080577 S    
