data_str_m3_o10_o28_f0_pcu.sym.187
_audit_creation_date              2012-12-10T16:58:27-0500
_audit_creation_method            fapswitch 2.2
_symmetry_space_group_name_H-M    P1
_symmetry_Int_Tables_number       1
_space_group_crystal_system       triclinic
_cell_length_a                    7.7318
_cell_length_b                    8.617444
_cell_length_c                    23.476836
_cell_angle_alpha                 91.057185
_cell_angle_beta                  85.753717
_cell_angle_gamma                 93.812307
_cell_volume                      1556.33349102

loop_
_atom_site_label
_atom_site_type_symbol
_atom_type_description
_atom_site_fract_x
_atom_site_fract_y
_atom_site_fract_z
_atom_type_partial_charge
C1    C     C_R   0.545357 0.794362 0.498278 0.930831
C2    C     C_R   0.454627 0.205656 0.501781 0.931288
C3    C     C_R   0.633053 0.434529 0.759648 0.062409
C4    C     C_R   0.609730 0.559355 0.231169 0.119291
C5    C     C_R   0.632574 0.429470 0.699830 -0.019323
C6    C     C_R   0.627023 0.556089 0.290065 -0.003191
C7    C     C_R   0.507379 0.508905 0.672938 -0.093721
C8    C     C_R   0.487005 0.493690 0.326928 -0.156304
C9    C     C_R   0.385126 0.594752 0.705839 -0.012888
C10   C     C_R   0.332339 0.432086 0.303493 0.011437
C11   C     C_R   0.384189 0.595403 0.765528 0.056480
C12   C     C_R   0.314023 0.443532 0.245071 0.138949
C13   C     C_R   0.507472 0.515289 0.791728 0.292060
C14   C     C_R   0.452396 0.506169 0.208885 0.229399
C15   C     C_2   0.566946 0.956542 0.505407 -0.102797
C16   C     C_2   0.432888 0.043474 0.494799 -0.102059
C17   C     C_R   0.502422 0.501971 0.610653 0.932386
C18   C     C_R   0.497037 0.497846 0.389250 0.879425
C19   C     C_R   0.401868 0.375389 0.118936 0.538676
C20   C     C_R   0.561755 0.641039 0.881147 0.571587
C21   C     C_R   0.469258 0.649079 0.120979 0.570345
C22   C     C_R   0.424054 0.384501 0.879571 0.565424
C23   C     C_R   0.497856 0.651092 0.061304 -0.038202
C24   C     C_R   0.404976 0.381296 0.939480 -0.060832
C25   C     C_R   0.449843 0.514660 0.030362 -0.079896
C26   C     C_R   0.466045 0.514431 0.970302 -0.099835
C27   C     C_R   0.387474 0.377791 0.059701 -0.067214
C28   C     C_R   0.544381 0.646837 0.941144 -0.038664
C29   C     C_R   0.578512 0.782276 0.032478 0.055939
C30   C     C_R   0.323871 0.251229 0.969173 0.121759
C31   C     C_R   0.603519 0.779658 0.972467 0.063831
C32   C     C_R   0.316234 0.248702 0.028951 0.032090
H1    H     H_    0.013664 0.379252 0.458517 0.180871
H2    H     H_    0.985996 0.619271 0.542101 0.194412
N1    N     N_R   0.436563 0.510757 0.148400 -0.332385
N2    N     N_R   0.500672 0.512457 0.852498 -0.336307
N3    N     N_2   0.950330 0.457950 0.484560 -0.173868
N4    N     N_2   0.049670 0.542050 0.515440 -0.166145
O1    O     O_R   0.389250 0.738570 0.503790 -0.584571
O2    O     O_R   0.610750 0.261430 0.496210 -0.584974
O3    O     O_R   0.678390 0.711620 0.493890 -0.648180
O4    O     O_R   0.321610 0.288380 0.506110 -0.646593
O5    O     O_R   0.355400 0.513520 0.588790 -0.599844
O6    O     O_R   0.644600 0.486480 0.411210 -0.629629
O7    O     O_R   0.644550 0.486570 0.578900 -0.606057
O8    O     O_R   0.355450 0.513430 0.421100 -0.629781
O9    O     O_2   0.388220 0.239262 0.146815 -0.561246
O10   O     O_2   0.637369 0.762394 0.850986 -0.531195
O11   O     O_2   0.476909 0.782836 0.151799 -0.518089
O12   O     O_2   0.366738 0.261802 0.847982 -0.533045
Zn1   Zn    Zn3+2 0.306930 0.518000 0.506610 0.950944
Zn2   Zn    Zn3+2 0.693070 0.482000 0.493390 0.946407
N5    N     N_3   0.648488 0.912783 0.064409 -0.376301
H3    H     H_    0.598833 0.014651 0.051020 0.189058
H4    H     H_    0.783577 0.921780 0.056525 0.182100
N6    N     N_3   0.247003 0.120959 0.938847 -0.366718
H5    H     H_    0.304146 0.020209 0.949940 0.199740
H6    H     H_    0.114407 0.108801 0.951629 0.194208
N7    N     N_3   0.690965 0.911357 0.943492 -0.373813
H7    H     H_    0.816125 0.929549 0.957371 0.178195
H8    H     H_    0.622293 0.010028 0.953137 0.185571
N8    N     N_3   0.221971 0.118692 0.056981 -0.474594
H9    H     H_    0.307372 0.051366 0.076484 0.259433
H10   H     H_    0.129166 0.159345 0.087318 0.225458
N9    N     N_3   0.758579 0.356916 0.788780 -0.435838
H11   H     H_    0.882986 0.401285 0.774472 0.181933
H12   H     H_    0.746634 0.238215 0.778763 0.216973
N10   N     N_3   0.751949 0.617436 0.193025 -0.427818
H13   H     H_    0.854212 0.545358 0.194916 0.190905
H14   H     H_    0.792734 0.729592 0.206280 0.237062
N11   N     N_3   0.755007 0.340676 0.666378 -0.424056
H15   H     H_    0.880852 0.383688 0.674083 0.189687
H16   H     H_    0.738332 0.224585 0.678917 0.188195
N12   N     N_3   0.785999 0.621342 0.311150 -0.465454
H17   H     H_    0.849567 0.533125 0.329145 0.211687
H18   H     H_    0.757581 0.706787 0.341994 0.206906
N13   N     N_3   0.264626 0.683077 0.678381 -0.434215
H19   H     H_    0.283934 0.800138 0.690167 0.188125
H20   H     H_    0.137981 0.643223 0.692047 0.186651
N14   N     N_3   0.191801 0.354724 0.337666 -0.470278
H21   H     H_    0.125452 0.437294 0.362134 0.205555
H22   H     H_    0.240562 0.273799 0.363902 0.188198
N15   N     N_3   0.257762 0.675674 0.800567 -0.439612
H23   H     H_    0.133578 0.630201 0.791954 0.189734
H24   H     H_    0.269839 0.793571 0.790316 0.219006
N16   N     N_3   0.152406 0.393722 0.222162 -0.435992
H25   H     H_    0.054641 0.451437 0.245099 0.183311
H26   H     H_    0.128210 0.274757 0.229680 0.238224
N17   N     N_3   0.721864 0.019336 0.530537 -0.426343
H27   H     H_    0.829636 0.993424 0.503313 0.191421
H28   H     H_    0.730891 0.964278 0.569444 0.172643
N18   N     N_3   0.277699 0.980656 0.469837 -0.429476
H29   H     H_    0.170128 0.006864 0.497102 0.192923
H30   H     H_    0.268480 0.035415 0.430891 0.168199

loop_
_geom_bond_atom_site_label_1
_geom_bond_atom_site_label_2
_ccdc_geom_bond_type
O1    Zn1   S    
C21   O11   S    
N13   H19   S    
N8    H9    S    
N12   H18   S    
C23   C29   A    
C24   C26   A    
N16   H26   S    
N9    H12   S    
C15   C16   D    
N6    H5    S    
C31   N7    S    
N8    H10   S    
N10   H13   S    
C7    C17   S    
C1    C15   S    
N17   H28   S    
C2    C16   S    
O3    Zn2   S    
C3    C13   A    
O4    Zn1   S    
C22   O12   S    
O6    Zn2   S    
N5    H4    S    
N7    H7    S    
C3    N9    S    
C18   O8    A    
C6    N12   S    
C24   C30   A    
N13   H20   S    
N7    H8    S    
N12   H17   S    
C13   N2    S    
C4    C6    A    
C14   N1    S    
C5    C7    A    
N3    Zn2   S    
C10   N14   S    
N16   H25   S    
C6    C8    A    
N4    Zn1   S    
C20   C28   A    
O7    Zn2   S    
C11   N15   S    
C25   C26   A    
O2    Zn2   S    
C30   N6    S    
O8    Zn1   S    
C8    C18   S    
C17   O5    A    
N3    N4    D    
C18   O6    A    
C15   N17   S    
N15   H23   S    
C29   C31   A    
N18   H30   S    
C9    N13   S    
C9    C11   A    
C20   O10   S    
C10   C12   A    
N14   H22   S    
N15   H24   S    
C12   C14   A    
C16   N18   S    
C21   C23   A    
C22   C24   A    
C19   C27   A    
C4    N10   S    
C1    O3    A    
C7    C9    A    
C27   C32   A    
H2    N4    S    
C28   C31   A    
C17   O7    A    
N14   H21   S    
C3    C5    A    
N5    H3    S    
C21   N1    A    
C25   C27   A    
C22   N2    A    
C26   C28   A    
C12   N16   S    
C32   N8    S    
N11   H15   S    
C5    N11   S    
C19   N1    A    
C30   C32   A    
C11   C13   A    
O5    Zn1   S    
C29   N5    S    
C2    O4    A    
N18   H29   S    
N6    H6    S    
C19   O9    S    
C23   C25   A    
C4    C14   A    
H1    N3    S    
C1    O1    A    
C20   N2    A    
C2    O2    A    
C8    C10   A    
N9    H11   S    
N11   H16   S    
N10   H14   S    
N17   H27   S    
