data_str_m9_o2_o25_f0_sra.sym.48
_audit_creation_date              2012-12-11T16:33:25-0500
_audit_creation_method            fapswitch 2.2
_symmetry_space_group_name_H-M    P1
_symmetry_Int_Tables_number       1
_space_group_crystal_system       triclinic
_cell_length_a                    6.947674
_cell_length_b                    18.18837
_cell_length_c                    20.246293
_cell_angle_alpha                 68.34626
_cell_angle_beta                  90.629742
_cell_angle_gamma                 90.83608
_cell_volume                      2377.6156245

loop_
_atom_site_label
_atom_site_type_symbol
_atom_type_description
_atom_site_fract_x
_atom_site_fract_y
_atom_site_fract_z
_atom_type_partial_charge
O1    O     O_R   0.488960 0.443750 0.941980 -0.526409
O2    O     O_R   0.823890 0.406510 0.087590 -0.535351
O3    O     O_R   0.999680 0.556250 0.058020 -0.519350
C1    C     C_R   0.655094 0.383247 0.114765 0.824028
O4    O     O_R   0.818360 0.434410 0.944340 -0.540940
O5    O     O_R   0.994110 0.584350 0.913750 -0.545302
C2    C     C_R   0.648734 0.420336 0.923825 0.708481
O6    O     O_R   0.494530 0.415650 0.086250 -0.534586
O7    O     O_3   0.662590 0.549160 0.990130 -0.362755
V1    V     V_3+5 0.935320 0.490880 0.001830 1.528963
O8    O     O_R   0.324180 0.593490 0.912410 -0.531408
C3    C     C_R   0.155462 0.615851 0.884556 0.785329
O9    O     O_R   0.329720 0.565590 0.055660 -0.523307
C4    C     C_R   0.162248 0.579772 0.075964 0.720443
V2    V     V_3+5 0.435990 0.509120 0.998170 1.552814
O10   O     O_3   0.158850 0.450840 0.009870 -0.375697
C5    C     C_3   0.065702 0.702570 0.314403 -0.315459
C6    C     C_3   0.250188 0.690188 0.277298 0.250495
H1    H     H_    0.010766 0.662497 0.366784 0.213457
C7    C     C_1   0.156358 0.625809 0.120956 -0.116567
C8    C     C_1   0.109883 0.875598 0.377652 -0.096013
C9    C     C_3   0.959925 0.724037 0.241900 0.299312
C10   C     C_3   0.142738 0.709926 0.205872 -0.204297
C11   C     C_3   0.016810 0.811434 0.221604 0.311350
C12   C     C_3   0.124752 0.791392 0.292879 -0.181834
C13   C     C_3   0.200496 0.798030 0.185761 0.454154
C14   C     C_3   0.309540 0.777676 0.257196 0.578442
C15   C     C_1   0.150782 0.663908 0.159041 0.169240
C16   C     C_1   0.116157 0.837566 0.339533 0.202814
C17   C     C_R   0.065809 0.770903 0.877492 -0.153619
C18   C     C_R   0.023348 0.845318 0.877440 -0.185705
C19   C     C_R   0.013800 0.909636 0.813893 -0.159195
C20   C     C_R   0.045426 0.900336 0.749603 0.559950
C21   C     C_R   0.086598 0.824440 0.747627 -0.043488
C22   C     C_R   0.098454 0.758736 0.813259 -0.012144
C23   C     C_R   0.116605 0.813020 0.682622 -0.125406
C24   C     C_R   0.158939 0.735772 0.683381 -0.180031
C25   C     C_R   0.181575 0.670716 0.749730 -0.061496
C26   C     C_R   0.146029 0.682606 0.814597 -0.078450
C27   C     C_R   0.181041 0.721240 0.619200 0.205740
C28   C     C_R   0.251073 0.649663 0.620308 0.559675
C29   C     C_R   0.280897 0.586496 0.684453 0.163613
C30   C     C_R   0.236658 0.595085 0.749122 0.247718
H2    H     H_    0.073841 0.723232 0.928816 0.102059
H3    H     H_    0.999120 0.853204 0.927139 0.167969
H4    H     H_    0.982208 0.967565 0.814379 0.147820
C31   C     C_R   0.596868 0.093512 0.249208 0.286372
C32   C     C_R   0.592693 0.083157 0.183171 0.372104
C33   C     C_R   0.606636 0.149001 0.120012 -0.237364
C34   C     C_R   0.623882 0.224393 0.121102 -0.203216
C35   C     C_R   0.628167 0.237588 0.185585 0.003807
C36   C     C_R   0.615100 0.171680 0.251275 -0.039788
C37   C     C_R   0.645208 0.315860 0.184274 -0.103182
C38   C     C_R   0.649623 0.330047 0.248710 -0.109819
C39   C     C_R   0.635442 0.265111 0.315474 -0.112771
C40   C     C_R   0.619841 0.185743 0.316541 -0.101362
C41   C     C_R   0.667794 0.408426 0.248159 0.494252
C42   C     C_R   0.670511 0.422561 0.310795 -0.248128
C43   C     C_R   0.655011 0.360904 0.375555 0.536389
C44   C     C_R   0.636886 0.282165 0.379353 0.219831
H5    H     H_    0.603828 0.142017 0.069135 0.134062
H6    H     H_    0.633786 0.272495 0.070059 0.103087
H7    H     H_    0.684468 0.482657 0.309029 0.201298
O11   O     O_R   0.770540 0.084530 0.414050 -0.538035
O12   O     O_R   0.445710 0.065660 0.555720 -0.531814
O13   O     O_R   0.270420 0.915650 0.586190 -0.532069
C45   C     C_R   0.614894 0.078274 0.577647 0.788358
O14   O     O_R   0.441140 0.093540 0.412470 -0.534912
O15   O     O_R   0.265820 0.943740 0.441930 -0.524564
C46   C     C_R   0.610098 0.117411 0.385544 0.906338
O16   O     O_R   0.775150 0.056440 0.558310 -0.509285
O17   O     O_3   0.602370 0.950960 0.510050 -0.378384
V3    V     V_3+5 0.329450 0.009140 0.498150 1.582999
O18   O     O_R   0.935790 0.934280 0.444060 -0.542547
C47   C     C_R   0.103335 0.921373 0.422848 0.753897
O19   O     O_R   0.940370 0.906390 0.587310 -0.541881
C48   C     C_R   0.109105 0.882587 0.614410 0.871703
V4    V     V_3+5 0.828810 0.990710 0.501460 1.566014
O20   O     O_3   0.105780 0.049100 0.489960 -0.368775
C49   C     C_3   0.765141 0.307349 0.728112 -0.145890
C50   C     C_3   0.589863 0.297583 0.683576 -0.190185
H8    H     H_    0.553794 0.337184 0.628471 0.181274
H9    H     H_    0.875526 0.355227 0.709802 0.204420
C51   C     C_1   0.624515 0.123805 0.623340 -0.129596
C52   C     C_1   0.638572 0.374600 0.878362 -0.152606
C53   C     C_3   0.805682 0.217451 0.752254 -0.058816
C54   C     C_3   0.630320 0.208210 0.708515 0.048723
C55   C     C_3   0.673218 0.201246 0.817541 -0.229137
C56   C     C_3   0.632938 0.290574 0.792895 0.040716
C57   C     C_3   0.497690 0.191234 0.773236 -0.214441
C58   C     C_3   0.460446 0.280740 0.749063 0.685059
C59   C     C_1   0.628541 0.161882 0.661644 0.026480
C60   C     C_1   0.634334 0.336688 0.839931 0.051138
H10   H     H_    0.385992 0.143873 0.791423 0.141111
H11   H     H_    0.707991 0.161778 0.872816 0.150835
H12   H     H_    0.949299 0.191017 0.753351 0.158037
O21   O     O_3   0.375110 0.626497 0.305864 -0.589387
H13   H     H_    0.424682 0.630108 0.350670 0.344148
F1    F     F_    0.036367 0.966930 0.690281 -0.715182
O22   O     O_3   0.127015 0.774333 0.553880 -0.620976
H14   H     H_    0.987875 0.783433 0.557645 0.280534
F2    F     F_    0.279664 0.640640 0.557425 -0.642360
O23   O     O_3   0.247723 0.530139 0.812098 -0.634536
H15   H     H_    0.269157 0.480953 0.803178 0.350748
F3    F     F_    0.657751 0.378426 0.435232 -0.661211
O24   O     O_3   0.582469 0.028072 0.311781 -0.659748
H16   H     H_    0.570524 0.978588 0.302328 0.352297
O25   O     O_3   0.574466 0.007933 0.181721 -0.598193
H17   H     H_    0.573936 0.011162 0.131731 0.328912
F4    F     F_    0.683990 0.473215 0.187453 -0.680701
O26   O     O_3   0.619217 0.221983 0.444957 -0.660833
H18   H     H_    0.619215 0.243698 0.483166 0.331090
F5    F     F_    0.281706 0.313726 0.747681 -0.682577
F6    F     F_    0.491972 0.804463 0.265588 -0.585564
F7    F     F_    0.268360 0.847824 0.120389 -0.633370
O27   O     O_3   0.892038 0.875121 0.192670 -0.558228
H19   H     H_    0.842993 0.871347 0.147861 0.346701
O28   O     O_3   0.774790 0.698232 0.232560 -0.561862
H20   H     H_    0.780979 0.639692 0.251327 0.327573
O29   O     O_3   0.348834 0.514809 0.685705 -0.616286
H21   H     H_    0.376709 0.518215 0.636785 0.364216

loop_
_geom_bond_atom_site_label_1
_geom_bond_atom_site_label_2
_ccdc_geom_bond_type
C39   C40   A    
C57   H10   S    
C1    C37   S    
C28   C29   A    
C22   C26   A    
O26   H18   S    
C1    O6    A    
C50   H8    S    
C57   C58   S    
C32   O25   S    
C37   C38   A    
C28   F2    S    
C13   C14   S    
C43   F3    S    
C17   C22   A    
C23   C24   A    
O19   V4    S    
C24   C27   A    
C23   C48   S    
O5    C3    A    
C17   C18   A    
C53   C55   S    
O24   H16   S    
V2    O10   S    
O21   H13   S    
O12   V3    S    
O25   H17   S    
C5    C6    S    
C21   C22   A    
C10   C13   S    
C49   C56   S    
O28   H20   S    
O17   V4    S    
C13   F7    S    
C52   C60   T    
C31   C32   A    
O12   C45   A    
C49   C53   S    
O15   V3    S    
O1    V2    S    
C6    O21   S    
O11   C46   A    
C56   C58   S    
O7    V1    S    
C45   O16   A    
C19   H4    S    
C55   H11   S    
C43   C44   A    
C39   C44   A    
C56   C60   S    
C17   H2    S    
O8    V2    S    
C49   H9    S    
C20   C21   A    
C12   C16   S    
C25   C26   A    
C33   H5    S    
O18   C47   A    
C35   C36   A    
C4    C7    S    
C11   C12   S    
O4    C2    A    
V4    O20   S    
O17   V3    S    
C7    C15   T    
C42   C43   A    
O13   V3    S    
C8    C16   T    
C25   C30   A    
C6    C10   S    
C20   F1    S    
O2    C1    A    
O5    V1    S    
C24   C25   A    
C41   F4    S    
C31   O24   S    
C34   C35   A    
V3    O20   S    
C10   C15   S    
O19   C48   A    
C50   C54   S    
O3    C4    A    
C53   H12   S    
C32   C33   A    
C55   C57   S    
C11   O27   S    
O6    V2    S    
C40   C46   S    
O9    V2    S    
C18   H3    S    
C34   H6    S    
C9    C11   S    
C29   C30   A    
O2    V1    S    
C54   C59   S    
O29   H21   S    
C53   C54   S    
C42   H7    S    
C9    O28   S    
O13   C48   A    
C38   C39   A    
C27   C28   A    
O1    C2    A    
O11   V4    S    
C18   C19   A    
C6    C14   S    
C11   C13   S    
C49   C50   S    
C27   O22   S    
O8    C3    A    
C31   C36   A    
C12   C14   S    
C8    C47   S    
C5    C9    S    
C5    C12   S    
C19   C20   A    
C3    C26   S    
O14   V3    S    
O4    V1    S    
O3    V1    S    
V1    O10   S    
C29   O29   S    
C41   C42   A    
C2    C52   S    
O22   H14   S    
C5    H1    S    
O27   H19   S    
O15   C47   A    
C21   C23   A    
O7    V2    S    
C30   O23   S    
C50   C58   S    
C14   F6    S    
C58   F5    S    
C45   C51   S    
C55   C56   S    
O14   C46   A    
C33   C34   A    
O18   V4    S    
C54   C57   S    
O23   H15   S    
C44   O26   S    
C9    C10   S    
C51   C59   T    
C35   C37   A    
O9    C4    A    
O16   V4    S    
C36   C40   A    
C38   C41   A    
