data_str_m2_o4_o4_f0_pcu.sym.127
_audit_creation_date              2012-12-10T19:07:35-0500
_audit_creation_method            fapswitch 2.2
_symmetry_space_group_name_H-M    P1
_symmetry_Int_Tables_number       1
_space_group_crystal_system       triclinic
_cell_length_a                    10.886358
_cell_length_b                    10.827325
_cell_length_c                    9.55037
_cell_angle_alpha                 89.702081
_cell_angle_beta                  90.905023
_cell_angle_gamma                 90.926241
_cell_volume                      1125.40214607

loop_
_atom_site_label
_atom_site_type_symbol
_atom_type_description
_atom_site_fract_x
_atom_site_fract_y
_atom_site_fract_z
_atom_type_partial_charge
C1    C     C_R   0.505594 0.262160 0.499442 0.829193
C2    C     C_R   0.942191 0.530154 0.615737 0.048561
C3    C     C_3   0.940510 0.567259 0.765647 -0.550493
C4    C     C_3   0.081407 0.567384 0.762566 0.327576
C5    C     C_R   0.529136 0.062755 0.621498 0.048900
C6    C     C_R   0.523769 0.128866 0.495941 -0.194663
C7    C     C_R   0.539499 0.064629 0.367821 0.462604
C8    C     C_R   0.532116 0.934431 0.370778 -0.340793
C9    C     C_R   0.519344 0.870454 0.497977 -0.145710
C10   C     C_R   0.527829 0.935660 0.622719 0.125417
C11   C     C_3   0.445225 0.928774 0.745698 -0.506530
C12   C     C_R   0.262931 0.500584 0.498757 0.815022
C13   C     C_3   0.446727 0.068387 0.744009 -0.398541
C14   C     C_R   0.540809 0.601254 0.073935 0.231190
C15   C     C_R   0.443001 0.408745 0.075287 -0.182701
C16   C     C_R   0.436984 0.410543 0.925179 0.510242
C17   C     C_R   0.540793 0.601264 0.926766 0.158836
C18   C     C_3   0.665374 0.658383 0.923676 -0.508478
C19   C     C_3   0.665447 0.659405 0.082481 -0.477330
C20   C     C_R   0.503225 0.737591 0.499566 0.835151
C21   C     C_R   0.737557 0.500672 0.500487 0.790908
C22   C     C_R   0.065942 0.531766 0.613329 0.099011
C23   C     C_R   0.130766 0.502213 0.495231 -0.120305
C24   C     C_R   0.062523 0.473482 0.372525 -0.219155
C25   C     C_R   0.933351 0.472904 0.374203 -0.215460
C26   C     C_R   0.870623 0.500912 0.498606 -0.075456
Cu1   Cu    Cu3+1 0.499990 0.499980 0.640670 0.979316
Cu2   Cu    Cu3+1 0.500010 0.500020 0.359330 0.946345
H1    H     H_    0.108165 0.450352 0.276383 0.160685
H2    H     H_    0.491000 0.889143 0.840111 0.187442
H3    H     H_    0.356245 0.107882 0.714863 0.220124
H4    H     H_    0.494082 0.109381 0.836892 0.210078
H5    H     H_    0.400983 0.334546 0.133972 0.193570
H6    H     H_    0.730361 0.592363 0.881309 0.219669
H7    H     H_    0.666393 0.751915 0.875336 0.193702
H8    H     H_    0.735362 0.597774 0.130266 0.214530
H9    H     H_    0.663567 0.753932 0.126893 0.186613
H10   H     H_    0.883328 0.449409 0.278839 0.156913
H11   H     H_    0.902495 0.661080 0.778944 0.219793
H12   H     H_    0.902925 0.492683 0.833798 0.154699
H13   H     H_    0.123906 0.492916 0.825679 0.045549
H14   H     H_    0.529340 0.882803 0.274531 0.164918
H15   H     H_    0.353695 0.887876 0.718510 0.214758
N1    N     N_R   0.500790 0.500930 0.147930 -0.208175
N2    N     N_R   0.500790 0.500890 0.852020 -0.220019
O1    O     O_R   0.500000 0.319640 0.618810 -0.537473
O2    O     O_R   0.500010 0.319680 0.381230 -0.537585
O3    O     O_R   0.319650 0.499970 0.618810 -0.557786
O4    O     O_R   0.319660 0.500010 0.381230 -0.602404
O5    O     O_R   0.499990 0.680320 0.618770 -0.577005
O6    O     O_R   0.500000 0.680360 0.381190 -0.589966
O7    O     O_R   0.680340 0.499990 0.618770 -0.583842
O8    O     O_R   0.680350 0.500030 0.381190 -0.588001
O9    O     O_3   0.371857 0.319667 0.851486 -0.590838
C27   C     C_3   0.255778 0.291828 0.911474 -0.003208
H16   H     H_    0.187033 0.284311 0.824621 0.151421
H17   H     H_    0.222202 0.366672 0.980374 0.117732
C28   C     C_3   0.256749 0.166934 0.989327 -0.373561
H18   H     H_    0.234124 0.091229 0.914778 0.211596
H19   H     H_    0.349101 0.148622 0.035025 0.241971
C29   C     C_3   0.162790 0.162768 0.106271 -0.900318
H20   H     H_    0.187817 0.231458 0.188313 0.254491
H21   H     H_    0.161005 0.069421 0.154951 0.257750
H22   H     H_    0.069791 0.183233 0.063602 0.254960
O10   O     O_3   0.133074 0.687612 0.776155 -0.589057
C30   C     C_3   0.194496 0.700698 0.907193 0.087775
H23   H     H_    0.252080 0.785982 0.902341 0.157946
H24   H     H_    0.258883 0.623645 0.928452 0.114803
C31   C     C_3   0.103811 0.714564 0.027451 -0.394210
H25   H     H_    0.039103 0.790179 0.002259 0.236585
H26   H     H_    0.049867 0.627461 0.041196 0.209224
C32   C     C_3   0.171374 0.743938 0.164836 -0.894420
H27   H     H_    0.237157 0.669740 0.191285 0.273510
H28   H     H_    0.104122 0.750672 0.250582 0.266621
H29   H     H_    0.222380 0.833289 0.156307 0.250641
O11   O     O_3   0.546647 0.131751 0.242783 -0.605520
C33   C     C_3   0.620567 0.078449 0.138817 0.046885
H30   H     H_    0.620721 0.143712 0.048715 0.167341
H31   H     H_    0.579295 0.991666 0.096720 0.117729
C34   C     C_3   0.755051 0.062420 0.186764 -0.365219
H32   H     H_    0.793070 0.152409 0.224426 0.225030
H33   H     H_    0.760952 0.994543 0.274026 0.213741
C35   C     C_3   0.833230 0.016362 0.067055 -0.930544
H34   H     H_    0.794661 0.928331 0.024820 0.256498
H35   H     H_    0.928065 0.999523 0.106145 0.263257
H36   H     H_    0.836931 0.086258 0.981606 0.255943

loop_
_geom_bond_atom_site_label_1
_geom_bond_atom_site_label_2
_ccdc_geom_bond_type
Cu1   O3    S    
C30   H24   S    
C27   H16   S    
Cu2   O2    S    
C31   C32   S    
C13   H4    S    
C12   O3    A    
C12   O4    A    
C7    C8    A    
C33   H30   S    
C12   C23   S    
C8    H14   S    
C15   N1    A    
C20   O6    A    
C19   H8    S    
C32   H29   S    
C4    O10   S    
Cu2   O6    S    
C1    O1    A    
C30   C31   S    
C4    H13   S    
C28   H19   S    
C15   C16   A    
C31   H26   S    
C18   C19   S    
C29   H21   S    
C24   H1    S    
C20   O5    A    
C19   H9    S    
C11   H2    S    
C8    C9    A    
C2    C22   A    
C23   C24   A    
C11   H15   S    
C18   H7    S    
C5    C13   S    
Cu1   O5    S    
Cu1   N2    S    
C28   C29   S    
C30   H23   S    
C3    H11   S    
C14   C17   A    
C29   H20   S    
C34   C35   S    
C21   C26   S    
C33   H31   S    
C1    C6    S    
O11   C33   S    
C32   H28   S    
C32   H27   S    
C25   C26   A    
Cu2   N1    S    
C29   H22   S    
C25   H10   S    
C4    C22   S    
Cu2   O4    S    
C9    C20   S    
C35   H34   S    
C17   C18   S    
C2    C26   A    
C24   C25   A    
C18   H6    S    
C7    O11   S    
Cu1   O1    S    
C34   H33   S    
C35   H35   S    
C3    H12   S    
C27   H17   S    
C3    C4    S    
Cu1   O7    S    
C14   N1    A    
C9    C10   A    
C33   C34   S    
O9    C27   S    
C14   C19   S    
C13   H3    S    
C1    O2    A    
C17   N2    A    
C34   H32   S    
C16   N2    A    
Cu2   O8    S    
C6    C7    A    
C2    C3    S    
C28   H18   S    
C5    C10   A    
C21   O8    A    
C11   C13   S    
C5    C6    A    
C31   H25   S    
C16   O9    S    
C10   C11   S    
C35   H36   S    
O10   C30   S    
C27   C28   S    
Cu1   Cu2   S    
C22   C23   A    
C15   H5    S    
C21   O7    A    
