data_str_m9_o18_o22_f0_sra.sym.1
_audit_creation_date              2012-12-11T15:29:36-0500
_audit_creation_method            fapswitch 2.2
_symmetry_space_group_name_H-M    P1
_symmetry_Int_Tables_number       1
_space_group_crystal_system       triclinic
_cell_length_a                    21.410397
_cell_length_b                    7.247398
_cell_length_c                    14.772132
_cell_angle_alpha                 90.494614
_cell_angle_beta                  74.40368
_cell_angle_gamma                 89.858396
_cell_volume                      2207.67853743

loop_
_atom_site_label
_atom_site_type_symbol
_atom_type_description
_atom_site_fract_x
_atom_site_fract_y
_atom_site_fract_z
_atom_type_partial_charge
O1    O     O_R   0.464160 0.506670 0.130070 -0.534714
O2    O     O_R   0.535840 0.006670 0.869930 -0.534907
O3    O     O_R   0.589710 0.179080 0.006710 -0.544810
O4    O     O_R   0.410290 0.679080 0.993290 -0.544585
C1    C     C_R   0.616328 0.344340 0.001935 0.649096
C2    C     C_R   0.383686 0.844629 0.998000 0.649715
O5    O     O_R   0.467940 0.177220 0.138010 -0.538458
O6    O     O_R   0.532060 0.677220 0.861990 -0.538421
O7    O     O_R   0.413200 0.002810 0.002170 -0.540984
O8    O     O_R   0.586800 0.502810 0.997830 -0.540721
C3    C     C_R   0.456256 0.346514 0.174327 0.684852
C4    C     C_R   0.543793 0.844543 0.825590 0.684997
O9    O     O_3   0.482180 0.337850 0.955280 -0.376353
O10   O     O_3   0.517820 0.837850 0.044720 -0.376612
V1    V     V_3+5 0.503310 0.064600 0.008300 1.391309
V2    V     V_3+5 0.496690 0.564600 0.991700 1.392803
C5    C     C_R   0.571505 0.847978 0.723903 -0.026408
C6    C     C_R   0.428358 0.359360 0.275814 -0.026499
C7    C     C_R   0.928449 0.870396 0.276292 -0.027359
C8    C     C_R   0.071660 0.358994 0.724013 -0.027261
C9    C     C_R   0.560252 0.798611 0.567441 -0.163564
C10   C     C_R   0.439000 0.436645 0.430016 -0.162874
C11   C     C_R   0.532583 0.810828 0.663954 -0.173599
C12   C     C_R   0.466923 0.410997 0.334197 -0.174042
C13   C     C_R   0.638294 0.872320 0.687522 -0.215948
C14   C     C_R   0.361716 0.333832 0.312978 -0.215552
C15   C     C_R   0.668090 0.856144 0.589778 0.083267
C16   C     C_R   0.331692 0.362470 0.409907 0.083044
C17   C     C_R   0.627443 0.819087 0.530050 0.142665
C18   C     C_R   0.371944 0.414329 0.468118 0.141813
C19   C     C_R   0.736620 0.871935 0.549723 0.059737
C20   C     C_R   0.263326 0.343983 0.450537 0.059722
C21   C     C_R   0.763198 0.849690 0.450343 0.059992
C22   C     C_R   0.236533 0.377563 0.549053 0.059371
C23   C     C_R   0.720327 0.814094 0.394317 -0.193332
C24   C     C_R   0.278963 0.428633 0.603564 -0.193706
C25   C     C_R   0.654009 0.799758 0.433546 -0.206005
C26   C     C_R   0.345117 0.446017 0.563746 -0.205438
C27   C     C_R   0.779459 0.908384 0.605702 -0.194002
C28   C     C_R   0.220858 0.293714 0.395953 -0.193099
C29   C     C_R   0.845790 0.922388 0.566486 -0.206022
C30   C     C_R   0.154722 0.275982 0.435795 -0.205644
C31   C     C_R   0.872401 0.901842 0.470046 0.142485
C32   C     C_R   0.127951 0.306499 0.531524 0.142091
C33   C     C_R   0.831758 0.864644 0.410331 0.083353
C34   C     C_R   0.168204 0.358260 0.589752 0.083020
C35   C     C_R   0.939639 0.921254 0.432695 -0.163387
C36   C     C_R   0.060952 0.283109 0.569700 -0.162653
C37   C     C_R   0.967363 0.907753 0.336231 -0.173843
C38   C     C_R   0.033093 0.307498 0.665612 -0.174698
C39   C     C_R   0.861606 0.847155 0.312650 -0.215930
C40   C     C_R   0.138239 0.385651 0.686785 -0.215752
H1    H     H_    0.623168 0.771431 0.387670 0.119455
H2    H     H_    0.375627 0.486061 0.608442 0.119564
H3    H     H_    0.834501 0.821321 0.262147 0.089365
H4    H     H_    0.165059 0.422973 0.736237 0.089153
H5    H     H_    0.019064 0.928221 0.308166 0.099159
H6    H     H_    0.981577 0.284910 0.694457 0.099643
H7    H     H_    0.876614 0.951224 0.612329 0.119834
H8    H     H_    0.124192 0.236399 0.391052 0.119161
H9    H     H_    0.529205 0.769696 0.521983 0.111831
H10   H     H_    0.469747 0.476749 0.474296 0.112174
H11   H     H_    0.480919 0.789678 0.692035 0.099301
H12   H     H_    0.518482 0.432880 0.305393 0.099562
H13   H     H_    0.665418 0.897811 0.738040 0.089248
H14   H     H_    0.334913 0.296241 0.263548 0.088816
H15   H     H_    0.736222 0.795648 0.319272 0.117350
H16   H     H_    0.262830 0.457285 0.677804 0.118904
H17   H     H_    0.763518 0.927944 0.680682 0.118526
H18   H     H_    0.236935 0.266118 0.321616 0.117580
H19   H     H_    0.970685 0.950325 0.478134 0.111810
H20   H     H_    0.030206 0.243133 0.525397 0.112143
C41   C     C_3   0.228830 0.769701 0.909623 -0.318570
C42   C     C_3   0.771363 0.273677 0.090332 -0.314524
H21   H     H_    0.211428 0.626647 0.903789 0.135467
H22   H     H_    0.789084 0.130995 0.096308 0.138313
H23   H     H_    0.223201 0.846551 0.847376 0.128823
H24   H     H_    0.776780 0.353251 0.152521 0.127738
C43   C     C_3   0.301687 0.763561 0.908274 -0.328513
C44   C     C_3   0.698526 0.266995 0.091651 -0.326663
H25   H     H_    0.330894 0.837556 0.845436 0.122372
H26   H     H_    0.669124 0.343400 0.154431 0.121754
H27   H     H_    0.318655 0.617558 0.901741 0.139886
H28   H     H_    0.681903 0.121144 0.098225 0.140938
H29   H     H_    0.179043 0.610130 0.084146 0.143451
H30   H     H_    0.821527 0.107075 0.915861 0.142326
H31   H     H_    0.286187 0.600767 0.082468 0.138614
H32   H     H_    0.714387 0.097037 0.917625 0.136080
C45   C     C_3   0.197175 0.753499 0.086067 -0.326538
C46   C     C_3   0.803072 0.250258 0.913881 -0.327740
C47   C     C_3   0.214849 0.061245 0.006423 -0.310013
C48   C     C_3   0.784850 0.561199 0.993351 -0.311850
C49   C     C_3   0.187409 0.863504 0.001167 0.121228
C50   C     C_3   0.812631 0.363880 0.998724 0.120924
H33   H     H_    0.186891 0.132807 0.071828 0.136320
H34   H     H_    0.812679 0.630174 0.927909 0.138389
H35   H     H_    0.209462 0.144361 0.945901 0.137697
H36   H     H_    0.790072 0.646787 0.053830 0.134821
C51   C     C_3   0.312418 0.852661 0.998943 0.120613
C52   C     C_3   0.687625 0.352259 0.000951 0.120916
C53   C     C_3   0.270010 0.747218 0.084815 -0.315245
C54   C     C_3   0.730241 0.243484 0.915156 -0.319185
C55   C     C_3   0.287145 0.054891 0.005200 -0.315601
C56   C     C_3   0.712559 0.554427 0.994588 -0.313809
H37   H     H_    0.315870 0.134828 0.944160 0.139773
H38   H     H_    0.683685 0.636750 0.055592 0.137696
H39   H     H_    0.293309 0.123018 0.070079 0.133064
H40   H     H_    0.706259 0.619941 0.929689 0.136213
H41   H     H_    0.168467 0.818591 0.152865 0.121737
H42   H     H_    0.831624 0.312707 0.847024 0.122017
H43   H     H_    0.276128 0.809206 0.151068 0.128108
H44   H     H_    0.723968 0.302598 0.848858 0.128603
O11   O     O_R   0.913210 0.208550 0.002110 -0.538479
O12   O     O_R   0.086790 0.708550 0.997890 -0.538714
O13   O     O_R   0.032060 0.539960 0.861980 -0.538412
O14   O     O_R   0.967940 0.039960 0.138020 -0.538385
C57   C     C_R   0.043776 0.371589 0.825500 0.687661
C58   C     C_R   0.956190 0.873571 0.174595 0.687558
O15   O     O_R   0.910290 0.538020 0.993280 -0.545475
O16   O     O_R   0.089710 0.038020 0.006720 -0.545277
O17   O     O_R   0.964160 0.712340 0.130090 -0.535488
O18   O     O_R   0.035840 0.212340 0.869910 -0.535305
C59   C     C_R   0.883993 0.370297 0.997876 0.640630
C60   C     C_R   0.116027 0.870025 0.002078 0.641193
O19   O     O_3   0.017820 0.379210 0.044690 -0.375867
O20   O     O_3   0.982180 0.879210 0.955310 -0.376021
V3    V     V_3+5 0.996690 0.652500 0.991710 1.392328
V4    V     V_3+5 0.003310 0.152500 0.008290 1.393693

loop_
_geom_bond_atom_site_label_1
_geom_bond_atom_site_label_2
_ccdc_geom_bond_type
C51   C55   S    
C3    C6    S    
O20   V3    S    
C45   H41   S    
C15   C17   A    
C21   C33   A    
C42   C50   S    
C54   H44   S    
O1    C3    A    
C49   C60   S    
C41   C49   S    
C44   H28   S    
O2    C4    A    
C2    O7    A    
C56   H38   S    
C48   H36   S    
C27   C29   A    
O11   V4    S    
C24   H16   S    
O5    C3    A    
C5    C11   A    
C28   H18   S    
C6    C12   A    
C43   C51   S    
C23   C25   A    
O17   V3    S    
C47   C49   S    
C33   C39   A    
C34   C40   A    
C48   H34   S    
O13   V3    S    
C18   C26   A    
C46   C54   S    
C8    C38   A    
H31   C53   S    
O16   C60   A    
C52   C56   S    
C7    C58   S    
C19   C27   A    
C16   C18   A    
O13   C57   A    
O11   C59   A    
C4    C5    S    
O19   V4    S    
C19   C21   A    
C22   C34   A    
C9    H9    S    
O12   C60   A    
C50   C59   S    
C36   C38   A    
C12   H12   S    
C42   C44   S    
C44   C52   S    
C45   C49   S    
C29   C31   A    
C30   C32   A    
C36   H20   S    
C48   C50   S    
C8    C57   S    
C32   C34   A    
C46   C50   S    
C27   H17   S    
C15   C19   A    
C14   H14   S    
C16   C20   A    
C13   H13   S    
C29   H7    S    
C44   H26   S    
H30   C46   S    
C30   H8    S    
C43   H25   S    
H29   C45   S    
O5    V1    S    
C9    C17   A    
C58   O17   A    
C38   H6    S    
O4    V2    S    
C57   O18   A    
C10   H10   S    
C7    C37   A    
C26   H2    S    
C1    C52   S    
C23   H15   S    
O6    C4    A    
C6    C14   A    
C52   C54   S    
C41   C43   S    
C55   H37   S    
O1    V2    S    
C47   H35   S    
O2    V1    S    
C31   C33   A    
C35   H19   S    
C42   H22   S    
O4    C2    A    
C51   C53   S    
C9    C11   A    
O14   V4    S    
C10   C12   A    
C13   C15   A    
C41   H21   S    
C56   H40   S    
O3    V1    S    
C10   C18   A    
C45   C53   S    
C47   C55   S    
C28   C30   A    
O3    C1    A    
C37   H5    S    
H32   C54   S    
O16   V4    S    
O15   C59   A    
C35   C37   A    
C14   C16   A    
C5    C13   A    
C2    C51   S    
C24   C26   A    
O7    V1    S    
C25   H1    S    
C1    O8    A    
C8    C40   A    
C32   C36   A    
O8    V2    S    
C43   H27   S    
O12   V3    S    
C53   H43   S    
C11   H11   S    
C21   C23   A    
C22   C24   A    
O14   C58   A    
C39   H3    S    
C20   C28   A    
O18   V4    S    
C48   C56   S    
C47   H33   S    
C7    C39   A    
O6    V2    S    
C42   H24   S    
O9    V2    S    
C17   C25   A    
C41   H23   S    
O10   V1    S    
C55   H39   S    
C31   C35   A    
C40   H4    S    
C20   C22   A    
C46   H42   S    
O15   V3    S    
