data_str_m2_o4_o11_f0_pcu.sym.72
_audit_creation_date              2012-10-26T21:01:06-0400
_audit_creation_method            fapswitch 2.2
_symmetry_space_group_name_H-M    P1
_symmetry_Int_Tables_number       1
_space_group_crystal_system       triclinic
_cell_length_a                    10.823618
_cell_length_b                    10.867408
_cell_length_c                    9.624737
_cell_angle_alpha                 89.714208
_cell_angle_beta                  87.520881
_cell_angle_gamma                 89.150243
_cell_volume                      1130.91185241

loop_
_atom_site_label
_atom_site_type_symbol
_atom_type_description
_atom_site_fract_x
_atom_site_fract_y
_atom_site_fract_z
_atom_type_partial_charge
C1    C     C_R   0.500302 0.263046 0.500264 0.579531
C2    C     C_R   0.402114 0.547181 0.078553 -0.015319
C3    C     C_R   0.402912 0.548535 0.930498 0.054586
C4    C     C_R   0.265339 0.497617 0.503311 0.591995
C5    C     C_R   0.590722 0.440595 0.922801 0.154827
C6    C     C_3   0.726929 0.453307 0.900940 0.066278
C7    C     C_3   0.730932 0.483350 0.056653 0.397311
C8    C     C_R   0.495873 0.737195 0.499839 0.585024
C9    C     C_R   0.734532 0.500241 0.497444 0.587174
C10   C     C_2   0.934863 0.404518 0.462249 -0.120802
C11   C     C_2   0.867008 0.505619 0.490893 -0.082428
C12   C     C_R   0.498700 0.130534 0.499596 0.029887
C13   C     C_2   0.070294 0.409086 0.448580 -0.134286
C14   C     C_2   0.132419 0.493972 0.514970 -0.064166
C15   C     C_R   0.454676 0.063476 0.614059 0.016452
C16   C     C_3   0.933496 0.427220 0.113242 0.047415
C17   C     C_3   0.008879 0.308628 0.128588 -0.310072
C18   C     C_R   0.537354 0.064543 0.379212 -0.132849
C19   C     C_R   0.534677 0.935515 0.378825 -0.127081
C20   C     C_R   0.490806 0.870327 0.497706 0.023623
C21   C     C_R   0.446452 0.939302 0.611433 0.008899
C22   C     C_3   0.393690 0.931536 0.757366 0.121073
C23   C     C_3   0.409311 0.073951 0.762508 0.102013
C24   C     C_R   0.595520 0.449022 0.068459 0.192433
Cu1   Cu    Cu3+1 0.499990 0.499980 0.640670 1.112775
Cu2   Cu    Cu3+1 0.500010 0.500020 0.359330 1.042478
H1    H     H_    0.889790 0.318051 0.442496 0.183760
H2    H     H_    0.569435 0.887343 0.286794 0.170186
H3    H     H_    0.456385 0.880616 0.826656 0.120052
H4    H     H_    0.953494 0.404919 0.761395 0.318932
H5    H     H_    0.961839 0.494330 0.191867 0.179569
H6    H     H_    0.957648 0.466358 0.008879 0.166233
H7    H     H_    0.980304 0.259073 0.225194 0.156951
H8    H     H_    0.108816 0.330106 0.129930 0.105216
H9    H     H_    0.994937 0.245903 0.040853 0.278878
H10   H     H_    0.577838 0.742563 0.096978 0.346897
H11   H     H_    0.167265 0.690249 0.743571 0.351837
H12   H     H_    0.485202 0.100829 0.829976 0.122273
H13   H     H_    0.225256 0.120267 0.998020 0.331588
H14   H     H_    0.323734 0.587071 0.136366 0.141443
H15   H     H_    0.324860 0.588023 0.879974 0.166162
H16   H     H_    0.756136 0.532019 0.834534 0.140369
H17   H     H_    0.907565 0.595023 0.505365 0.121215
H18   H     H_    0.120222 0.338972 0.387964 0.148292
H19   H     H_    0.086224 0.553078 0.591751 0.098086
H20   H     H_    0.572185 0.112009 0.286665 0.169245
N1    N     N_R   0.500780 0.500930 0.147930 -0.263762
N2    N     N_R   0.500780 0.500890 0.852020 -0.234391
O1    O     O_R   0.500000 0.319640 0.618810 -0.433340
O2    O     O_2   0.731144 0.264604 0.715947 -0.260506
O3    O     O_3   0.944975 0.321542 0.802181 -0.458842
O4    O     O_3   0.805761 0.402681 0.135077 -0.527512
O5    O     O_2   0.767950 0.679557 0.231661 -0.272080
O6    O     O_2   0.871996 0.685440 0.002755 -0.263341
O7    O     O_3   0.637489 0.729645 0.017402 -0.534866
O8    O     O_2   0.190070 0.868867 0.911725 -0.248016
O9    O     O_2   0.153836 0.947221 0.676621 -0.143090
O10   O     O_3   0.242275 0.728543 0.700927 -0.552180
O11   O     O_2   0.317388 0.298274 0.831858 -0.304321
O12   O     O_R   0.500010 0.319680 0.381230 -0.519108
O13   O     O_2   0.209174 0.189103 0.654195 -0.199537
O14   O     O_3   0.177704 0.120086 0.912357 -0.407043
O15   O     O_R   0.321940 0.499980 0.618760 -0.450513
O16   O     O_R   0.321950 0.500020 0.381180 -0.526108
O17   O     O_R   0.499990 0.680320 0.618770 -0.476110
O18   O     O_R   0.500000 0.680360 0.381190 -0.510843
O19   O     O_R   0.678050 0.499980 0.618820 -0.509624
O20   O     O_R   0.678060 0.500020 0.381240 -0.430484
O21   O     O_2   0.775146 0.211216 0.954631 -0.219392
S1    S     S_3+6 0.793206 0.307405 0.843108 0.033772
S2    S     S_3+6 0.755540 0.647734 0.081409 0.015456
S3    S     S_3+6 0.239132 0.871870 0.763235 0.065817
S4    S     S_3+6 0.275681 0.174096 0.787286 0.086006

loop_
_geom_bond_atom_site_label_1
_geom_bond_atom_site_label_2
_ccdc_geom_bond_type
C10   H1    S    
O7    S2    S    
H4    O3    S    
C9    O19   A    
O14   S4    S    
C11   H17   S    
C6    C7    S    
O3    S1    S    
C2    N1    A    
C16   H6    S    
C23   H12   S    
C4    O16   A    
H11   O10   S    
Cu1   O19   S    
C12   C15   A    
Cu2   O20   S    
C16   O4    S    
C15   C23   S    
C2    C3    A    
O2    S1    D    
C9    O20   A    
C8    O17   A    
H10   O7    S    
C21   C22   S    
C16   H5    S    
C4    C14   S    
C19   H2    S    
C9    C11   S    
C4    O15   A    
O10   S3    S    
C8    C20   S    
C1    C12   S    
C17   H7    S    
Cu2   N1    S    
C23   S4    S    
C5    C6    S    
C18   H20   S    
C22   S3    S    
C22   H3    S    
C7    O4    S    
C14   H19   S    
C7    S2    S    
Cu1   N2    S    
O9    S3    D    
Cu1   O15   S    
O21   S1    D    
C5    N2    A    
Cu1   O1    S    
C17   H8    S    
C7    C24   S    
O5    S2    D    
C2    H14   S    
C3    N2    A    
C15   C21   A    
Cu1   O17   S    
C20   C21   A    
Cu2   O12   S    
C18   C19   A    
C6    H16   S    
C1    O12   A    
C12   C18   A    
C10   C11   D    
C6    S1    S    
H13   O14   S    
O11   S4    D    
C22   C23   S    
C5    C24   A    
Cu2   O16   S    
C17   H9    S    
O13   S4    D    
Cu1   Cu2   S    
C13   C14   D    
C24   N1    A    
C1    O1    A    
C8    O18   A    
C13   H18   S    
C3    H15   S    
O6    S2    D    
C19   C20   A    
C16   C17   S    
O8    S3    D    
C10   C13   S    
Cu2   O18   S    
