data_str_m3_o40_o40_f0_fof.sym.75
_audit_creation_date              2012-12-10T16:37:27-0500
_audit_creation_method            fapswitch 2.2
_symmetry_space_group_name_H-M    P1
_symmetry_Int_Tables_number       1
_space_group_crystal_system       triclinic
_cell_length_a                    16.806253
_cell_length_b                    16.782112
_cell_length_c                    16.816402
_cell_angle_alpha                 65.649333
_cell_angle_beta                  65.756575
_cell_angle_gamma                 65.703333
_cell_volume                      3768.83442868

loop_
_atom_site_label
_atom_site_type_symbol
_atom_type_description
_atom_site_fract_x
_atom_site_fract_y
_atom_site_fract_z
_atom_type_partial_charge
C1    C     C_R   0.466265 0.928450 0.691377 -0.221655
C2    C     C_R   0.399535 0.649987 0.072607 -0.231707
C3    C     C_R   0.260306 0.740028 0.263859 -0.149121
C4    C     C_R   0.319476 0.707671 0.316529 -0.133435
C5    C     C_R   0.342133 0.769280 0.333567 -0.200338
C6    C     C_R   0.136206 0.702576 0.705049 0.151875
C7    C     C_R   0.231625 0.666199 0.682114 -0.196062
C8    C     C_R   0.282522 0.686901 0.715150 -0.136485
C9    C     C_R   0.238640 0.744085 0.771363 -0.120405
C10   C     C_R   0.143853 0.781302 0.793994 -0.191478
C11   C     C_R   0.092671 0.760624 0.761262 -0.019583
C12   C     C_R   0.863086 0.302386 0.309779 0.148781
C13   C     C_R   0.968999 0.594683 0.331582 -0.242631
C14   C     C_R   0.769665 0.341402 0.347315 -0.192361
C15   C     C_R   0.704373 0.328886 0.325909 -0.142860
C16   C     C_R   0.731765 0.277817 0.266426 -0.116737
C17   C     C_R   0.824471 0.237738 0.229585 -0.192635
C18   C     C_R   0.889987 0.249848 0.251045 -0.025811
C19   C     C_R   0.702586 0.692220 0.136568 0.156496
C20   C     C_R   0.754720 0.752384 0.105891 -0.022595
C21   C     C_R   0.774107 0.771253 0.168468 -0.192923
C22   C     C_R   0.741748 0.730380 0.261936 -0.120464
C23   C     C_R   0.690872 0.669712 0.292938 -0.142541
C24   C     C_R   0.072486 0.395942 0.654306 -0.240990
C25   C     C_R   0.671121 0.650849 0.230614 -0.188476
C26   C     C_R   0.297261 0.306237 0.863915 0.157219
C27   C     C_R   0.244563 0.246272 0.896061 -0.022581
C28   C     C_R   0.227651 0.223412 0.834577 -0.199133
C29   C     C_R   0.263123 0.260003 0.740737 -0.112917
C30   C     C_R   0.314247 0.320745 0.708202 -0.133748
C31   C     C_R   0.331511 0.343602 0.769439 -0.194963
C32   C     C_R   0.976017 0.177363 0.431771 0.924051
C33   C     C_R   0.040669 0.820551 0.561140 0.914266
C34   C     C_R   0.177578 0.431537 0.975492 0.922687
C35   C     C_R   0.822509 0.568520 0.024187 0.925394
C36   C     C_R   0.431531 0.975566 0.177561 0.920630
C37   C     C_R   0.568411 0.024498 0.822461 0.919702
C38   C     C_R   0.560388 0.820488 0.041286 0.923225
C39   C     C_R   0.532953 0.071832 0.309075 -0.220716
C40   C     C_R   0.439753 0.179467 0.958416 0.922844
C41   C     C_R   0.039949 0.561448 0.820140 0.919972
C42   C     C_R   0.961395 0.438660 0.179577 0.927300
C43   C     C_R   0.820550 0.041012 0.560446 0.939269
C44   C     C_R   0.179437 0.958903 0.439566 0.897946
C45   C     C_R   0.512470 0.942601 0.734288 -0.168381
C46   C     C_R   0.486874 0.057658 0.266059 -0.169094
C47   C     C_R   0.070345 0.710192 0.443364 -0.154564
C48   C     C_R   0.061731 0.259211 0.491168 -0.166454
C49   C     C_R   0.734385 0.512715 0.942189 -0.170315
C50   C     C_R   0.049743 0.669747 0.399960 -0.241495
C51   C     C_R   0.266255 0.487020 0.057081 -0.167741
C52   C     C_R   0.301856 0.916915 0.555852 -0.175485
C53   C     C_R   0.698388 0.081615 0.444469 -0.168946
C54   C     C_R   0.555920 0.301599 0.917190 -0.174011
C55   C     C_R   0.444516 0.699107 0.080189 -0.172904
C56   C     C_R   0.944676 0.552696 0.292269 -0.172580
C57   C     C_R   0.077170 0.442710 0.703550 -0.171901
C58   C     C_R   0.549163 0.010092 0.544532 0.022385
C59   C     C_R   0.450244 0.989840 0.455855 0.022295
C60   C     C_R   0.051379 0.535402 0.530587 0.024189
C61   C     C_R   0.077156 0.300797 0.537828 -0.228275
C62   C     C_R   0.016790 0.448861 0.440116 0.024641
C63   C     C_R   0.544647 0.549589 0.009206 0.021802
C64   C     C_R   0.455966 0.450654 0.989001 0.021223
C65   C     C_R   0.572402 0.040497 0.448114 0.044682
C66   C     C_R   0.427097 0.959234 0.552284 0.042451
C67   C     C_R   0.058098 0.441385 0.567740 0.047161
C68   C     C_R   0.007408 0.543395 0.404571 0.048287
C69   C     C_R   0.448236 0.573111 0.039111 0.043788
C70   C     C_R   0.552402 0.427302 0.958732 0.043348
C71   C     C_R   0.520417 0.033239 0.403792 0.046026
C72   C     C_R   0.691485 0.466481 0.928006 -0.222383
C73   C     C_R   0.478902 0.966793 0.596632 0.045385
C74   C     C_R   0.403914 0.521009 0.032077 0.044419
C75   C     C_R   0.596757 0.479180 0.966180 0.044999
C76   C     C_R   0.050003 0.396414 0.516994 0.045029
C77   C     C_R   0.034531 0.583914 0.444702 0.047806
C78   C     C_R   0.571596 0.997963 0.685062 0.041532
C79   C     C_R   0.427924 0.002145 0.315194 0.040250
C80   C     C_R   0.065750 0.672270 0.536922 0.050961
C81   C     C_R   0.010283 0.310931 0.428012 0.040388
C82   C     C_R   0.685129 0.571828 0.997449 0.040528
C83   C     C_R   0.309276 0.533372 0.070896 -0.221427
C84   C     C_R   0.315308 0.428148 0.001579 0.039637
C85   C     C_R   0.326926 0.942786 0.460388 0.053261
C86   C     C_R   0.672992 0.056519 0.539881 0.056996
C87   C     C_R   0.460480 0.327112 0.942308 0.051999
C88   C     C_R   0.539909 0.673150 0.056096 0.051567
C89   C     C_R   0.960434 0.457310 0.321903 0.054529
C90   C     C_R   0.067675 0.537428 0.669069 0.049060
C91   C     C_R   0.606129 0.030772 0.726951 -0.166607
C92   C     C_R   0.393679 0.969246 0.273158 -0.168531
C93   C     C_R   0.068708 0.720413 0.588452 -0.182689
C94   C     C_R   0.351106 0.924237 0.600896 -0.226041
C95   C     C_R   0.972965 0.272120 0.394427 -0.163177
C96   C     C_R   0.726981 0.606162 0.030430 -0.168962
C97   C     C_R   0.273197 0.393817 0.968893 -0.169717
C98   C     C_R   0.279142 0.935276 0.411755 -0.178676
C99   C     C_R   0.720844 0.064144 0.588419 -0.186621
C100  C     C_R   0.411866 0.279355 0.934660 -0.181547
C101  C     C_R   0.588347 0.720648 0.064486 -0.180622
C102  C     C_R   0.943343 0.410725 0.278500 -0.175638
C103  C     C_R   0.067834 0.588901 0.719447 -0.177452
C104  C     C_R   0.675694 0.072416 0.674947 -0.111312
C105  C     C_R   0.648848 0.074740 0.399453 -0.227760
C106  C     C_R   0.324277 0.927369 0.325091 -0.106769
C107  C     C_R   0.084064 0.673657 0.673490 -0.106115
C108  C     C_R   0.930689 0.325975 0.325797 -0.119145
C109  C     C_R   0.675015 0.675253 0.072545 -0.111931
C110  C     C_R   0.325067 0.324595 0.926859 -0.110719
C111  C     C_R   0.596966 0.022747 0.589531 0.075968
C112  C     C_R   0.402589 0.977126 0.410773 0.075083
C113  C     C_R   0.062160 0.581473 0.578825 0.069319
C114  C     C_R   0.994473 0.406039 0.397670 0.069012
C115  C     C_R   0.589609 0.597234 0.022127 0.074885
C116  C     C_R   0.601019 0.350855 0.924460 -0.229777
C117  C     C_R   0.410875 0.402924 0.976418 0.074135
C118  C     C_R   0.695501 0.134784 0.702378 0.154109
C119  C     C_R   0.754635 0.101424 0.756171 -0.020969
C120  C     C_R   0.780398 0.162030 0.771381 -0.193634
C121  C     C_R   0.747817 0.256213 0.732857 -0.119760
C122  C     C_R   0.688087 0.290035 0.680446 -0.140937
C123  C     C_R   0.662185 0.229674 0.665040 -0.195082
C124  C     C_R   0.305894 0.863960 0.297815 0.154768
C125  C     C_R   0.246853 0.895912 0.244259 -0.019426
C126  C     C_R   0.224536 0.834051 0.227196 -0.227222
H1    H     H_    0.422134 0.885499 0.734316 0.136095
H2    H     H_    0.326156 0.675455 0.091488 0.135072
H3    H     H_    0.953608 0.668301 0.306313 0.139603
H4    H     H_    0.077588 0.324231 0.686935 0.136084
H5    H     H_    0.502191 0.907506 0.806272 0.177526
H6    H     H_    0.497170 0.092733 0.194066 0.177390
H7    H     H_    0.092214 0.770325 0.400707 0.189887
H8    H     H_    0.092043 0.186181 0.505533 0.182951
H9    H     H_    0.806380 0.502366 0.907358 0.176400
H10   H     H_    0.194367 0.497050 0.092381 0.176797
H11   H     H_    0.246237 0.887110 0.596661 0.181746
H12   H     H_    0.576943 0.114959 0.266279 0.136487
H13   H     H_    0.754583 0.110438 0.403616 0.181684
H14   H     H_    0.596663 0.245451 0.888235 0.184793
H15   H     H_    0.403620 0.755560 0.108565 0.189783
H16   H     H_    0.910734 0.596518 0.240257 0.186193
H17   H     H_    0.093267 0.401345 0.766820 0.191529
H18   H     H_    0.782483 0.028517 0.784334 0.128538
H19   H     H_    0.826477 0.135927 0.812167 0.111152
H20   H     H_    0.768434 0.303011 0.744036 0.127515
H21   H     H_    0.662622 0.363020 0.650921 0.132678
H22   H     H_    0.617610 0.256738 0.622412 0.133225
H23   H     H_    0.051130 0.704410 0.329303 0.134804
H24   H     H_    0.217063 0.968592 0.217061 0.130475
H25   H     H_    0.178667 0.858977 0.186439 0.116001
H26   H     H_    0.242160 0.692228 0.251476 0.135440
H27   H     H_    0.347170 0.634831 0.344811 0.135989
H28   H     H_    0.386794 0.743292 0.375896 0.134091
H29   H     H_    0.266423 0.620818 0.639541 0.131157
H30   H     H_    0.355971 0.658241 0.697525 0.135247
H31   H     H_    0.278105 0.759679 0.797238 0.123957
H32   H     H_    0.109918 0.825522 0.837620 0.107970
H33   H     H_    0.019063 0.788178 0.781285 0.131232
H34   H     H_    0.114087 0.256775 0.587449 0.137024
H35   H     H_    0.747545 0.382952 0.391836 0.132803
H36   H     H_    0.632543 0.359618 0.354674 0.130823
H37   H     H_    0.681150 0.268758 0.249392 0.130254
H38   H     H_    0.845590 0.197873 0.183810 0.113487
H39   H     H_    0.961623 0.220056 0.220377 0.130669
H40   H     H_    0.779748 0.785013 0.033684 0.127973
H41   H     H_    0.814018 0.817769 0.144512 0.112189
H42   H     H_    0.756808 0.745076 0.310282 0.135534
H43   H     H_    0.666283 0.637684 0.365318 0.131833
H44   H     H_    0.630556 0.604638 0.255604 0.132871
H45   H     H_    0.734365 0.422304 0.885176 0.135959
H46   H     H_    0.218063 0.216056 0.968597 0.128690
H47   H     H_    0.187643 0.176748 0.859683 0.111715
H48   H     H_    0.250456 0.241802 0.693223 0.130125
H49   H     H_    0.341242 0.349451 0.635500 0.132375
H50   H     H_    0.372874 0.389276 0.743303 0.131374
H51   H     H_    0.266642 0.577276 0.114064 0.136287
H52   H     H_    0.326514 0.903686 0.674286 0.136133
H53   H     H_    0.673672 0.094886 0.326045 0.134725
H54   H     H_    0.674426 0.325847 0.904598 0.135096
O1    O     O_R   0.982940 0.138950 0.510160 -0.634781
O2    O     O_R   0.982940 0.510160 0.138950 -0.645982
O3    O     O_R   0.861050 0.017060 0.489840 -0.626506
O4    O     O_R   0.138950 0.982940 0.510160 -0.644157
O5    O     O_R   0.867700 0.025880 0.612340 -0.619326
O6    O     O_R   0.132300 0.974120 0.387660 -0.633548
O7    O     O_R   0.025880 0.612340 0.867700 -0.621682
O8    O     O_R   0.974120 0.387660 0.132300 -0.624375
O9    O     O_R   0.612340 0.867700 0.025880 -0.625990
O10   O     O_R   0.387660 0.132300 0.974120 -0.624796
O11   O     O_R   0.387660 0.974120 0.132300 -0.637968
O12   O     O_R   0.017060 0.861050 0.489840 -0.631873
O13   O     O_R   0.612340 0.025880 0.867700 -0.640031
O14   O     O_R   0.132300 0.387660 0.974120 -0.639147
O15   O     O_R   0.867700 0.612340 0.025880 -0.637181
O16   O     O_R   0.974120 0.132300 0.387660 -0.640378
O17   O     O_R   0.025880 0.867700 0.612340 -0.634042
O18   O     O_R   0.138950 0.510160 0.982940 -0.628742
O19   O     O_R   0.861050 0.489840 0.017060 -0.631039
O20   O     O_R   0.510160 0.982940 0.138950 -0.631193
O21   O     O_R   0.489840 0.017060 0.861050 -0.631315
O22   O     O_R   0.489840 0.861050 0.017060 -0.642323
O23   O     O_R   0.510160 0.138950 0.982940 -0.642045
O24   O     O_R   0.017060 0.489840 0.861050 -0.649026
Zn1   Zn    Zn3+2 0.004880 0.004880 0.583590 0.918976
Zn2   Zn    Zn3+2 0.995120 0.995120 0.416410 0.916808
Zn3   Zn    Zn3+2 0.004880 0.583590 0.004880 0.922088
Zn4   Zn    Zn3+2 0.995120 0.416410 0.995120 0.914423
Zn5   Zn    Zn3+2 0.583590 0.004880 0.004880 0.917319
Zn6   Zn    Zn3+2 0.416410 0.995120 0.995120 0.918987

loop_
_geom_bond_atom_site_label_1
_geom_bond_atom_site_label_2
_ccdc_geom_bond_type
C25   H44   S    
C100  C110  A    
C55   H15   S    
C89   C102  A    
C36   O11   A    
C30   H49   S    
C15   H36   S    
O17   Zn1   S    
C19   C20   A    
C91   C104  A    
C32   O16   A    
C85   C112  A    
C1    C45   A    
C1    H1    S    
C88   C101  A    
C3    C126  A    
C35   O19   A    
C7    C8    A    
C35   C96   S    
C42   O2    A    
C5    C124  A    
C3    H26   S    
C79   C112  A    
C33   O12   A    
C84   C97   A    
C48   H8    S    
C28   C29   A    
C51   H10   S    
C105  H53   S    
C82   C115  A    
C62   C114  A    
C38   C101  S    
C2    C55   A    
C59   C66   A    
C46   H6    S    
C54   C87   A    
C81   C95   A    
C28   H47   S    
C43   O5    A    
C101  C109  A    
C15   C16   A    
C45   C78   A    
C34   C97   S    
C48   C81   A    
C41   O7    A    
O2    Zn3   S    
C94   H52   S    
C90   C113  A    
C55   C88   A    
C118  C119  A    
C85   C98   A    
C24   C67   A    
C44   C98   S    
C54   H14   S    
C46   C79   A    
C63   C69   A    
C60   C67   A    
C16   C17   A    
C49   C72   A    
C54   C116  A    
C81   C114  A    
C6    C107  S    
C102  C108  A    
C53   C86   A    
C64   C70   A    
C2    C69   A    
C52   H11   S    
C9    C10   A    
C44   O4    A    
C35   O15   A    
C66   C94   A    
C13   C56   A    
C22   H42   S    
C36   C92   S    
C44   O6    A    
C99   C104  A    
C49   H9    S    
C39   H12   S    
C120  H19   S    
C61   C76   A    
C21   C22   A    
C47   H7    S    
C119  H18   S    
C62   C76   A    
C60   C113  A    
C47   C80   A    
O22   Zn6   S    
C72   C75   A    
C19   C25   A    
C42   C102  S    
C65   C105  A    
C18   H39   S    
C59   C112  A    
C47   C50   A    
C104  C118  S    
C31   H50   S    
C19   C109  S    
C16   H37   S    
C60   C77   A    
C82   C96   A    
C57   C90   A    
C83   H51   S    
C11   H33   S    
C58   C111  A    
C74   C83   A    
O5    Zn1   S    
C32   O1    A    
C52   C85   A    
C10   C11   A    
C61   H34   S    
C6    C11   A    
C12   C108  S    
C57   H17   S    
C21   H41   S    
C8    C9    A    
C70   C116  A    
C65   C71   A    
C66   C73   A    
C64   C117  A    
C41   C103  S    
C37   O13   A    
C49   C82   A    
O1    Zn1   S    
C72   H45   S    
C37   O21   A    
C29   C30   A    
C17   H38   S    
C53   C105  A    
C126  H25   S    
C34   O18   A    
C58   C65   A    
O13   Zn5   S    
C23   H43   S    
C40   O23   A    
C33   O17   A    
C38   O9    A    
C20   C21   A    
C12   C18   A    
C17   C18   A    
C26   C27   A    
C7    H29   S    
C69   C74   A    
C122  H21   S    
C80   C113  A    
C41   O24   A    
C52   C94   A    
C86   C99   A    
C121  C122  A    
C78   C111  A    
C95   C108  A    
C39   C46   A    
O24   Zn4   S    
C92   C106  A    
C56   C89   A    
C12   C14   A    
C45   H5    S    
C116  H54   S    
C125  C126  A    
C106  C124  S    
C3    C4    A    
C50   C77   A    
C51   C83   A    
O21   Zn6   S    
C70   C75   A    
O14   Zn4   S    
C120  C121  A    
O4    Zn1   S    
C79   C92   A    
C87   C100  A    
C24   C57   A    
C42   O8    A    
C68   C77   A    
C26   C110  S    
C89   C114  A    
O8    Zn4   S    
C64   C74   A    
O18   Zn3   S    
C53   H13   S    
O12   Zn2   S    
C22   C23   A    
C36   O20   A    
C43   C99   S    
C4    C5    A    
C33   C93   S    
C40   C100  S    
C119  C120  A    
C87   C117  A    
C6    C7    A    
C78   C91   A    
C51   C84   A    
C20   H40   S    
C96   C109  A    
O20   Zn5   S    
C98   C106  A    
C62   C68   A    
C1    C73   A    
C9    H31   S    
C88   C115  A    
C86   C111  A    
O10   Zn6   S    
C56   H16   S    
O9    Zn5   S    
C93   C107  A    
C97   C110  A    
C50   H23   S    
C34   O14   A    
C48   C61   A    
C30   C31   A    
C63   C75   A    
C63   C115  A    
C14   H35   S    
O6    Zn2   S    
C43   O3    A    
O19   Zn4   S    
C4    H27   S    
C118  C123  A    
C23   C25   A    
O16   Zn2   S    
C8    H30   S    
C90   C103  A    
C125  H24   S    
C84   C117  A    
O11   Zn6   S    
C121  H20   S    
C24   H4    S    
C10   H32   S    
C26   C31   A    
C32   C95   S    
C40   O10   A    
C123  H22   S    
C58   C73   A    
O15   Zn3   S    
C38   O22   A    
O7    Zn3   S    
C27   C28   A    
C122  C123  A    
O3    Zn2   S    
C39   C71   A    
C14   C15   A    
O23   Zn5   S    
C103  C107  A    
C67   C76   A    
C80   C93   A    
C27   H46   S    
C29   H48   S    
C13   H3    S    
C5    H28   S    
C37   C91   S    
C59   C71   A    
C124  C125  A    
C13   C68   A    
C2    H2    S    
