data_str_m9_o2_o19_f0_sra.sym.76
_audit_creation_date              2013-03-05T16:02:30-0500
_audit_creation_method            fapswitch 2.2
_symmetry_space_group_name_H-M    P1
_symmetry_Int_Tables_number       1
_space_group_crystal_system       triclinic
_cell_length_a                    16.459975
_cell_length_b                    7.256387
_cell_length_c                    15.359015
_cell_angle_alpha                 89.567891
_cell_angle_beta                  94.52465
_cell_angle_gamma                 89.048671
_cell_volume                      1828.43860368

loop_
_atom_site_label
_atom_site_type_symbol
_atom_site_description
_atom_site_fract_x
_atom_site_fract_y
_atom_site_fract_z
_atom_type_partial_charge
O1    O     O_R   0.663460 0.361760 0.165970 -0.585150
O2    O     O_R   0.336540 0.638240 0.834030 -0.585190
O3    O     O_R   0.836540 0.861760 0.334030 -0.567870
O4    O     O_R   0.163460 0.138240 0.665970 -0.567900
O5    O     O_R   0.827100 0.689870 0.163730 -0.545699
O6    O     O_R   0.172900 0.310130 0.836270 -0.545706
O7    O     O_R   0.672900 0.189870 0.336270 -0.566225
O8    O     O_R   0.327100 0.810130 0.663730 -0.566307
H1    H     H_    0.212193 0.061998 0.509848 0.138611
H2    H     H_    0.787807 0.938064 0.490154 0.138606
H3    H     H_    0.289507 0.418943 0.995720 0.141201
H4    H     H_    0.710482 0.581162 0.004275 0.141228
C1    C     C_R   0.853182 0.522391 0.143526 0.967227
C2    C     C_R   0.146817 0.477609 0.856473 0.967239
C3    C     C_R   0.646729 0.023436 0.356400 0.966284
C4    C     C_R   0.353271 0.976564 0.643599 0.966294
O9    O     O_R   0.663490 0.691370 0.155500 -0.569487
O10   O     O_R   0.336510 0.308630 0.844500 -0.569429
O11   O     O_R   0.836510 0.191370 0.344500 -0.587323
O12   O     O_R   0.163490 0.808630 0.655500 -0.587287
O13   O     O_R   0.671770 0.863320 0.325740 -0.540540
O14   O     O_R   0.328230 0.136680 0.674260 -0.540512
O15   O     O_R   0.828230 0.363320 0.174260 -0.563547
O16   O     O_R   0.171770 0.636680 0.825740 -0.563517
C5    C     C_R   0.634423 0.524771 0.135549 0.947997
C6    C     C_R   0.365578 0.475229 0.864449 0.947967
C7    C     C_R   0.865796 0.021352 0.363838 0.948291
C8    C     C_R   0.134207 0.978650 0.636159 0.948288
H5    H     H_    0.136577 0.084674 0.238981 0.229125
H6    H     H_    0.863420 0.915522 0.761024 0.229103
H7    H     H_    0.365597 0.476709 0.265045 0.221219
H8    H     H_    0.634396 0.523312 0.734954 0.221214
O17   O     O_3   0.752910 0.528800 0.305860 -0.272078
O18   O     O_3   0.247090 0.471200 0.694140 -0.272095
O19   O     O_3   0.747090 0.028800 0.194140 -0.274310
O20   O     O_3   0.252910 0.971200 0.805860 -0.274290
V1    V     V_3+5 0.749460 0.803010 0.239640 1.310065
V2    V     V_3+5 0.250540 0.196990 0.760360 1.310091
V3    V     V_3+5 0.750540 0.303010 0.260360 1.282646
V4    V     V_3+5 0.249460 0.696990 0.739640 1.282630
C9    C     C_1   0.468936 0.994041 0.530222 0.190868
C10   C     C_1   0.531061 0.005962 0.469775 0.190891
C11   C     C_1   0.031131 0.495435 0.969812 0.189044
C12   C     C_1   0.968867 0.504567 0.030185 0.189035
C13   C     C_R   0.040459 0.041800 0.323046 0.256947
C14   C     C_R   0.959542 0.958280 0.676952 0.256975
C15   C     C_R   0.460478 0.504006 0.178120 0.258529
C16   C     C_R   0.539521 0.495948 0.821884 0.258502
C17   C     C_R   0.121298 0.073050 0.306113 -0.205855
C18   C     C_R   0.878699 0.927101 0.693890 -0.205832
C19   C     C_R   0.380489 0.470866 0.197638 -0.209829
C20   C     C_R   0.619502 0.529168 0.802360 -0.209873
C21   C     C_R   0.182585 0.083195 0.373455 0.391754
C22   C     C_R   0.817412 0.916944 0.626550 0.391755
C23   C     C_R   0.319339 0.438397 0.132050 0.401769
C24   C     C_R   0.680648 0.561697 0.867946 0.401787
C25   C     C_R   0.162742 0.058159 0.459309 -0.311778
C26   C     C_R   0.837258 0.941917 0.540693 -0.311779
C27   C     C_R   0.338714 0.440414 0.045222 -0.316402
C28   C     C_R   0.661277 0.559661 0.954775 -0.316422
C29   C     C_R   0.081622 0.026301 0.479797 0.069919
C30   C     C_R   0.918380 0.973738 0.520201 0.069915
C31   C     C_R   0.419083 0.471959 0.022243 0.067715
C32   C     C_R   0.580913 0.528065 0.977757 0.067717
C33   C     C_R   0.018002 0.025008 0.410912 -0.049135
C34   C     C_R   0.982001 0.975031 0.589086 -0.049166
C35   C     C_R   0.482497 0.498372 0.089880 -0.043867
C36   C     C_R   0.517503 0.501616 0.910123 -0.043809
C37   C     C_R   0.064517 0.994747 0.567914 -0.194086
C38   C     C_R   0.935486 0.005265 0.432083 -0.194066
C39   C     C_R   0.435563 0.479534 0.932820 -0.193329
C40   C     C_R   0.564436 0.520465 0.067181 -0.193377
C41   C     C_1   0.416117 0.984857 0.581595 -0.114806
C42   C     C_1   0.583881 0.015144 0.418404 -0.114702
C43   C     C_1   0.084014 0.487482 0.918458 -0.108572
C44   C     C_1   0.915984 0.512519 0.081541 -0.108617
N1    N     N_R   0.734377 0.887579 0.645465 0.255147
O21   O     O_R   0.710599 0.924134 0.722398 -0.365061
O22   O     O_R   0.681889 0.823427 0.586003 -0.411129
N2    N     N_R   0.265618 0.112598 0.354544 0.255136
O23   O     O_R   0.289402 0.076058 0.277612 -0.365100
O24   O     O_R   0.318102 0.176744 0.414013 -0.411097
N3    N     N_R   0.763177 0.589741 0.846664 0.255137
O25   O     O_R   0.786303 0.541199 0.770910 -0.369206
O26   O     O_R   0.816034 0.663327 0.902941 -0.413498
N4    N     N_R   0.236807 0.410403 0.153329 0.255132
O27   O     O_R   0.213683 0.458976 0.229079 -0.369204
O28   O     O_R   0.183947 0.336811 0.097058 -0.413522
N5    N     N_R   0.985237 0.005387 0.249096 0.224562
O29   O     O_R   0.972459 0.130888 0.188475 -0.386808
O30   O     O_R   0.971403 0.834437 0.229243 -0.393856
N6    N     N_R   0.014773 0.994639 0.750900 0.224558
O31   O     O_R   0.027578 0.869065 0.811483 -0.386814
O32   O     O_R   0.028587 0.165573 0.770802 -0.393871
N7    N     N_R   0.514687 0.567388 0.248186 0.222825
O33   O     O_R   0.532940 0.460240 0.315401 -0.378629
O34   O     O_R   0.523678 0.744066 0.256686 -0.398806
N8    N     N_R   0.485333 0.432389 0.751838 0.222830
O35   O     O_R   0.467101 0.539351 0.684551 -0.378622
O36   O     O_R   0.476330 0.255689 0.743453 -0.398790

loop_
_geom_bond_atom_site_label_1
_geom_bond_atom_site_label_2
_geom_bond_distance
_ccdc_geom_bond_type
C26   C30   1.418015 A    
C23   C27   1.395468 A    
C9    C10   1.437561 S    
C8    C37   1.494028 S    
O10   C6    1.336384 A    
H5    C17   1.083425 S    
N1    O21   1.301525 A    
C30   C38   1.421592 A    
C18   C22   1.389895 A    
O18   V4    1.785889 S    
C32   C36   1.429653 A    
O7    V3    1.980404 S    
H2    C26   1.080393 S    
C14   C34   1.431931 A    
O5    V1    1.970074 S    
O12   V4    1.996585 S    
N4    O28   1.301116 A    
C34   C37   1.430529 A    
C14   N6    1.426752 S    
C33   C38   1.430536 A    
O14   V2    1.957682 S    
C1    O15   1.327400 A    
C35   C40   1.430668 A    
C2    O16   1.327400 A    
C12   C44   1.220854 T    
H8    C20   1.083553 S    
O17   V3    1.785890 S    
N7    O33   1.300665 A    
O6    V2    1.970074 S    
N5    O30   1.299134 A    
C13   N5    1.426770 S    
O5    C1    1.329256 A    
C22   N1    1.438477 S    
O7    C3    1.331305 A    
H6    C18   1.083427 S    
O8    C4    1.331307 A    
O1    C5    1.335506 A    
C6    C39   1.497173 S    
H3    C27   1.080345 S    
C15   C35   1.430967 A    
O4    C8    1.332026 A    
N1    O22   1.300950 A    
C11   C43   1.220854 T    
C31   C35   1.429666 A    
C10   C42   1.221567 T    
C30   C34   1.428894 A    
C4    C41   1.461948 S    
C21   N2    1.438473 S    
N2    O24   1.300959 A    
H7    C19   1.083560 S    
C21   C25   1.394554 A    
N4    O27   1.301664 A    
C15   C19   1.397447 A    
O12   C8    1.339703 A    
C19   C23   1.391001 A    
C24   C28   1.395477 A    
C11   C12   1.436386 S    
O2    V4    1.995110 S    
O6    C2    1.329257 A    
N3    O25   1.301656 A    
C1    C44   1.460797 S    
C13   C17   1.397606 A    
N6    O32   1.299136 A    
O2    C6    1.335507 A    
C5    C40   1.497171 S    
O9    V1    2.023379 S    
C16   C36   1.430958 A    
C7    C38   1.494028 S    
O11   V3    1.996586 S    
N3    O26   1.301125 A    
O4    V2    2.009897 S    
N8    O36   1.299373 A    
C13   C33   1.431940 A    
O11   C7    1.339695 A    
C24   N3    1.439369 S    
C22   C26   1.394555 A    
C29   C37   1.421591 A    
C4    O14   1.328364 A    
O19   V1    1.774997 S    
C31   C39   1.421660 A    
N2    O23   1.301531 A    
N7    O34   1.299370 A    
C25   C29   1.418010 A    
C16   N8    1.426689 S    
C14   C18   1.397598 A    
C27   C31   1.417557 A    
C28   C32   1.417555 A    
O9    C5    1.336383 A    
C2    C43   1.460798 S    
C23   N4    1.439361 S    
O20   V2    1.774998 S    
O10   V2    2.023380 S    
C3    O13   1.328365 A    
C36   C39   1.430655 A    
C17   C21   1.389900 A    
O3    C7    1.332039 A    
N6    O31   1.300173 A    
O16   V4    1.962708 S    
H1    C25   1.080392 S    
C32   C40   1.421665 A    
O1    V3    1.995110 S    
C9    C41   1.221567 T    
H4    C28   1.080345 S    
C29   C33   1.428897 A    
C16   C20   1.397454 A    
C3    C42   1.461949 S    
O13   V1    1.957682 S    
O3    V1    2.009898 S    
N8    O35   1.300666 A    
C15   N7    1.426670 S    
O8    V4    1.980401 S    
N5    O29   1.300175 A    
O15   V3    1.962710 S    
C20   C24   1.391011 A    
