data_str_m2_o22_o22_f0_pcu.sym.157
_audit_creation_date              2012-12-10T18:09:31-0500
_audit_creation_method            fapswitch 2.2
_symmetry_space_group_name_H-M    P1
_symmetry_Int_Tables_number       1
_space_group_crystal_system       triclinic
_cell_length_a                    15.298808
_cell_length_b                    15.182532
_cell_length_c                    9.651688
_cell_angle_alpha                 90.188089
_cell_angle_beta                  89.370404
_cell_angle_gamma                 89.834705
_cell_volume                      2241.68538422

loop_
_atom_site_label
_atom_site_type_symbol
_atom_type_description
_atom_site_fract_x
_atom_site_fract_y
_atom_site_fract_z
_atom_type_partial_charge
C1    C     C_R   0.120485 0.381210 0.499702 0.898954
C2    C     C_R   0.117828 0.621597 0.499930 0.901097
C3    C     C_R   0.619143 0.879753 0.499591 0.889874
C4    C     C_R   0.617744 0.121764 0.499731 0.888733
C5    C     C_3   0.083599 0.541957 0.080300 0.595920
C6    C     C_3   0.076937 0.552743 0.912614 0.638423
C7    C     C_3   0.590625 0.023575 0.084368 0.620744
C8    C     C_3   0.593136 0.011803 0.916295 0.632428
C9    C     C_R   0.878347 0.382579 0.500156 0.877153
C10   C     C_R   0.879954 0.619219 0.500331 0.865712
C11   C     C_R   0.378374 0.882435 0.500395 0.861090
C12   C     C_R   0.381572 0.120922 0.500549 0.862747
C13   C     C_3   0.758092 0.313372 0.642522 0.136686
C14   C     C_3   0.850367 0.221644 0.478211 0.180021
C15   C     C_3   0.846407 0.774941 0.432245 0.125833
C16   C     C_3   0.731396 0.656917 0.410110 0.190334
C17   C     C_3   0.263477 0.806867 0.647829 0.149201
C18   C     C_3   0.349168 0.722421 0.465789 0.198107
C19   C     C_3   0.223257 0.149911 0.547340 0.154384
C20   C     C_3   0.334772 0.265199 0.609092 0.132195
C21   C     C_3   0.186180 0.741282 0.643299 0.211832
C22   C     C_3   0.278554 0.649029 0.480234 0.124337
C23   C     C_3   0.152052 0.223666 0.555956 0.137608
C24   C     C_3   0.265498 0.340629 0.600699 0.172346
C25   C     C_3   0.683118 0.245288 0.638775 0.197021
C26   C     C_3   0.778702 0.148873 0.486907 0.157453
C27   C     C_3   0.776378 0.849660 0.444599 0.200832
C28   C     C_3   0.662761 0.732705 0.399527 0.127828
C29   C     C_3   0.740730 0.332384 0.382669 -0.418575
C30   C     C_3   0.777215 0.707997 0.649102 -0.456157
C31   C     C_3   0.235719 0.836961 0.394036 -0.446951
C32   C     C_3   0.303899 0.232675 0.355477 -0.450439
C33   C     C_3   0.808057 0.314880 0.499847 -0.150949
C34   C     C_3   0.810547 0.688016 0.499577 -0.115034
C35   C     C_3   0.307941 0.814669 0.501031 -0.138607
C36   C     C_3   0.312946 0.190695 0.501874 -0.106472
C37   C     C_3   0.185914 0.691732 0.500543 -0.161583
C38   C     C_3   0.190118 0.312922 0.500551 -0.153498
C39   C     C_3   0.685819 0.192106 0.499347 -0.172734
C40   C     C_3   0.687888 0.810381 0.498942 -0.153607
C41   C     C_3   0.169555 0.761066 0.384942 -0.409867
C42   C     C_3   0.229101 0.299248 0.352641 -0.395514
C43   C     C_3   0.672152 0.258309 0.378258 -0.421304
C44   C     C_3   0.701358 0.773312 0.647633 -0.415857
C45   C     C_3   0.924707 0.550822 0.088234 0.624530
C46   C     C_3   0.918681 0.541004 0.921510 0.482424
C47   C     C_3   0.996475 0.406661 0.083086 0.641502
C48   C     C_3   0.011618 0.407049 0.915892 0.608144
C49   C     C_3   0.437786 0.067021 0.086863 0.717428
C50   C     C_3   0.445376 0.074293 0.920705 0.558338
C51   C     C_3   0.479095 0.909520 0.081180 0.582082
C52   C     C_3   0.468943 0.913095 0.914628 0.613787
Cu1   Cu    Cu3+1 0.000100 0.500000 0.642410 1.103604
Cu2   Cu    Cu3+1 0.000100 0.500000 0.357590 1.138913
Cu3   Cu    Cu3+1 0.500100 0.000000 0.642410 1.066971
Cu4   Cu    Cu3+1 0.500100 0.000000 0.357590 1.103081
N1    N     N_3   0.001260 0.500000 0.143650 -0.216898
N2    N     N_3   0.001260 0.500000 0.856350 -0.237505
N3    N     N_3   0.501260 0.000000 0.143650 -0.247472
N4    N     N_3   0.501260 1.000000 0.856350 -0.282074
O1    O     O_R   0.091250 0.408820 0.620260 -0.520888
O2    O     O_R   0.091250 0.408820 0.379740 -0.503812
O3    O     O_R   0.091250 0.591180 0.620260 -0.501328
O4    O     O_R   0.091250 0.591180 0.379740 -0.505438
O5    O     O_R   0.591250 0.908820 0.620260 -0.496876
O6    O     O_R   0.591250 0.908820 0.379740 -0.538378
O7    O     O_R   0.591250 0.091180 0.620260 -0.535790
O8    O     O_R   0.591250 0.091180 0.379740 -0.505121
O9    O     O_R   0.908940 0.408800 0.620260 -0.563315
O10   O     O_R   0.908940 0.408800 0.379740 -0.487175
O11   O     O_R   0.908940 0.591200 0.620260 -0.549745
O12   O     O_R   0.908940 0.591200 0.379740 -0.526969
O13   O     O_R   0.408940 0.908800 0.620260 -0.535194
O14   O     O_R   0.408940 0.908800 0.379740 -0.503709
O15   O     O_R   0.408940 0.091200 0.620260 -0.625564
O16   O     O_R   0.408940 0.091200 0.379740 -0.516207
O17   O     O_3   0.729339 0.396622 0.689432 -0.672791
H1    H     H_    0.699063 0.427210 0.613626 0.341617
O18   O     O_3   0.901554 0.216029 0.356120 -0.633994
H2    H     H_    0.863105 0.223469 0.275285 0.355316
O19   O     O_3   0.928980 0.800924 0.481034 -0.683846
H3    H     H_    0.928969 0.797610 0.583261 0.352781
O20   O     O_3   0.695329 0.577065 0.457519 -0.709416
H4    H     H_    0.666667 0.587505 0.548521 0.339809
O21   O     O_3   0.239064 0.887997 0.709018 -0.637565
H5    H     H_    0.212401 0.926289 0.638449 0.350768
O22   O     O_3   0.391985 0.720962 0.335787 -0.613065
H6    H     H_    0.347819 0.728406 0.262613 0.352469
O23   O     O_3   0.198740 0.078119 0.463439 -0.708479
H7    H     H_    0.187876 0.099572 0.368501 0.351039
O24   O     O_3   0.421166 0.296365 0.599124 -0.659703
H8    H     H_    0.434906 0.310460 0.501434 0.322283
H9    H     H_    0.804945 0.289610 0.721168 0.126474
H10   H     H_    0.896165 0.210198 0.565276 0.160016
H11   H     H_    0.856254 0.761797 0.319792 0.127686
H12   H     H_    0.755629 0.643715 0.303156 0.128282
H13   H     H_    0.312913 0.776981 0.716723 0.098214
H14   H     H_    0.400423 0.708561 0.543844 0.105960
H15   H     H_    0.230720 0.122751 0.653600 0.143309
H16   H     H_    0.328770 0.236152 0.714556 0.160722
H17   H     H_    0.198323 0.692537 0.726418 0.148871
H18   H     H_    0.293165 0.611768 0.576512 0.143771
H19   H     H_    0.135775 0.233342 0.667688 0.126684
H20   H     H_    0.237227 0.348799 0.706714 0.180200
H21   H     H_    0.696457 0.199339 0.724158 0.161796
H22   H     H_    0.789845 0.111545 0.584337 0.135015
H23   H     H_    0.765739 0.875936 0.338513 0.162559
H24   H     H_    0.666995 0.758253 0.291686 0.132539
O25   O     O_3   0.104872 0.781094 0.674588 -0.629821
H25   H     H_    0.096247 0.831700 0.611748 0.356786
O26   O     O_3   0.283244 0.586446 0.372167 -0.663648
H26   H     H_    0.259393 0.613033 0.287259 0.337985
O27   O     O_3   0.073012 0.198863 0.493462 -0.648210
H27   H     H_    0.080542 0.200680 0.391686 0.361138
O28   O     O_3   0.302041 0.422884 0.566045 -0.655325
H28   H     H_    0.333243 0.417306 0.476111 0.364293
O29   O     O_3   0.600464 0.282533 0.667436 -0.609036
H29   H     H_    0.589438 0.329729 0.599360 0.357347
O30   O     O_3   0.786157 0.086166 0.379374 -0.617140
H30   H     H_    0.767800 0.113603 0.291741 0.328410
O31   O     O_3   0.804359 0.921644 0.525229 -0.631600
H31   H     H_    0.822110 0.899999 0.617347 0.343285
O32   O     O_3   0.576179 0.702907 0.416802 -0.643271
H32   H     H_    0.564286 0.693319 0.516450 0.327136
H33   H     H_    0.707479 0.396811 0.396547 0.222439
H34   H     H_    0.773374 0.337160 0.279818 0.240337
H35   H     H_    0.830201 0.736575 0.712111 0.221196
H36   H     H_    0.755956 0.646794 0.702311 0.203354
H37   H     H_    0.200923 0.898872 0.421034 0.222214
H38   H     H_    0.263869 0.848871 0.289826 0.230887
H39   H     H_    0.290909 0.181807 0.276535 0.209087
H40   H     H_    0.365348 0.265222 0.322001 0.196302
H41   H     H_    0.101685 0.787152 0.390345 0.245454
H42   H     H_    0.176699 0.731157 0.281600 0.214484
H43   H     H_    0.178948 0.275170 0.280004 0.216617
H44   H     H_    0.252617 0.362400 0.307971 0.238747
H45   H     H_    0.605181 0.286783 0.381571 0.198904
H46   H     H_    0.677452 0.225098 0.276703 0.226621
H47   H     H_    0.715736 0.826729 0.722231 0.248600
H48   H     H_    0.641280 0.741164 0.688124 0.201401
O33   O     O_3   0.934812 0.640648 0.124821 -0.679050
H49   H     H_    0.877428 0.671030 0.121093 0.295839
O34   O     O_3   0.904301 0.625838 0.867852 -0.692108
H50   H     H_    0.845474 0.645369 0.900036 0.303173
O35   O     O_3   0.063087 0.355125 0.141086 -0.632103
H51   H     H_    0.050772 0.292178 0.120596 0.327790
O36   O     O_3   0.097906 0.377044 0.889455 -0.636760
H52   H     H_    0.099724 0.311727 0.895309 0.330282
O37   O     O_3   0.455209 0.150290 0.146665 -0.625160
H53   H     H_    0.412836 0.193687 0.109679 0.327476
O38   O     O_3   0.483938 0.156618 0.891052 -0.620651
H54   H     H_    0.483934 0.165922 0.790049 0.421089
O39   O     O_3   0.547194 0.849486 0.110515 -0.721232
H55   H     H_    0.532134 0.815298 0.194797 0.416450
O40   O     O_3   0.516107 0.843634 0.850141 -0.677339
H56   H     H_    0.496220 0.786718 0.889677 0.320395
O41   O     O_3   0.847149 0.520879 0.153498 -0.689226
H57   H     H_    0.796629 0.551641 0.111569 0.320618
O42   O     O_3   0.845114 0.489835 0.888800 -0.774568
H58   H     H_    0.828514 0.503502 0.792553 0.403906
O43   O     O_3   0.917973 0.364180 0.123701 -0.717765
H59   H     H_    0.867486 0.383813 0.069999 0.345298
O44   O     O_3   0.958365 0.345491 0.846424 -0.717583
H60   H     H_    0.896551 0.350978 0.871716 0.346239
O45   O     O_3   0.352152 0.043928 0.128253 -0.736942
H61   H     H_    0.310771 0.090590 0.099517 0.332108
O46   O     O_3   0.359027 0.078896 0.869495 -0.751516
H62   H     H_    0.345393 0.030597 0.805761 0.414320
O47   O     O_3   0.402662 0.872679 0.140847 -0.718846
H63   H     H_    0.348241 0.899986 0.108659 0.366838
O48   O     O_3   0.380835 0.900564 0.880477 -0.713748
H64   H     H_    0.364205 0.839096 0.902980 0.327942
O49   O     O_3   0.097259 0.625858 0.137934 -0.691540
H65   H     H_    0.150620 0.651103 0.094139 0.273602
O50   O     O_3   0.068560 0.642106 0.871360 -0.664423
H66   H     H_    0.037960 0.678715 0.941287 0.387212
O51   O     O_3   0.156468 0.488929 0.114741 -0.641644
H67   H     H_    0.211365 0.521428 0.095637 0.312128
O52   O     O_3   0.155496 0.523029 0.850034 -0.621570
H68   H     H_    0.202102 0.566111 0.871866 0.295232
O53   O     O_3   0.609516 0.112283 0.117332 -0.636675
H69   H     H_    0.672437 0.123776 0.099945 0.293430
O54   O     O_3   0.631322 0.088200 0.862371 -0.656329
H70   H     H_    0.695477 0.084643 0.877187 0.302471
O55   O     O_3   0.655027 0.971358 0.148612 -0.692093
H71   H     H_    0.713016 0.986548 0.108297 0.297291
O56   O     O_3   0.648521 0.942032 0.871802 -0.719460
H72   H     H_    0.651678 0.894744 0.941355 0.359823

loop_
_geom_bond_atom_site_label_1
_geom_bond_atom_site_label_2
_ccdc_geom_bond_type
C16   C28   S    
C9    C33   S    
O22   H6    S    
C47   O35   S    
O41   H57   S    
Cu4   O16   S    
C29   H33   S    
C6    O52   S    
O47   H63   S    
C6    N2    S    
O26   H26   S    
O48   H64   S    
Cu1   O9    S    
C1    O2    A    
C26   H22   S    
C14   C33   S    
C41   H41   S    
O43   H59   S    
C27   O31   S    
C28   O32   S    
C25   H21   S    
O32   H32   S    
C15   O19   S    
C48   O44   S    
O49   H65   S    
C52   O40   S    
C49   O45   S    
C45   N1    S    
O45   H61   S    
O20   H4    S    
C17   O21   S    
C32   C36   S    
C9    O9    A    
C38   C42   S    
C31   H38   S    
C19   C36   S    
C15   H11   S    
C5    C6    S    
C26   C39   S    
C47   N1    S    
C6    O50   S    
C28   C40   S    
O34   H50   S    
C48   O36   S    
C29   C33   S    
C43   H46   S    
C42   H44   S    
C49   C50   S    
C52   N4    S    
O36   H52   S    
C16   C34   S    
Cu1   O1    S    
C50   O38   S    
C9    O10   A    
C23   H19   S    
O42   H58   S    
Cu1   Cu2   S    
Cu2   O10   S    
C24   C38   S    
O38   H54   S    
C12   C36   S    
C18   C35   S    
C15   C34   S    
O24   H8    S    
C21   H17   S    
C10   O11   A    
C44   H48   S    
C29   H34   S    
C46   N2    S    
C45   O33   S    
C30   C44   S    
C3    O5    A    
O33   H49   S    
C22   H18   S    
C52   O48   S    
C7    N3    S    
C41   H42   S    
Cu3   O5    S    
C2    O4    A    
O35   H51   S    
C13   O17   S    
C8    O56   S    
C20   O24   S    
C30   H36   S    
C16   H12   S    
Cu4   O14   S    
C30   C34   S    
C51   C52   S    
C47   C48   S    
C20   C24   S    
C7    C8    S    
C45   O41   S    
C26   O30   S    
C11   O13   A    
O46   H62   S    
C4    O8    A    
C7    O53   S    
C39   C43   S    
Cu2   O2    S    
O17   H1    S    
C22   C37   S    
C16   O20   S    
O19   H3    S    
O52   H68   S    
C13   H9    S    
C42   H43   S    
C24   H20   S    
Cu3   O13   S    
O53   H69   S    
C19   C23   S    
O54   H70   S    
C13   C33   S    
C19   O23   S    
C23   O27   S    
C25   C39   S    
C15   C27   S    
O50   H66   S    
C20   H16   S    
C4    C39   S    
C27   H23   S    
C27   C40   S    
O30   H30   S    
Cu3   Cu4   S    
O31   H31   S    
C21   C37   S    
C10   C34   S    
C14   O18   S    
C14   C26   S    
C5    O51   S    
O21   H5    S    
C1    C38   S    
C8    O54   S    
C50   O46   S    
C3    C40   S    
O51   H67   S    
C44   H47   S    
C12   O16   A    
C31   C35   S    
C3    O6    A    
C51   N3    S    
Cu1   O11   S    
C32   H40   S    
C2    O3    A    
O27   H27   S    
C25   O29   S    
C30   H35   S    
C51   O39   S    
C47   O43   S    
C19   H15   S    
C31   C41   S    
C18   C22   S    
C5    O49   S    
C7    O55   S    
C13   C25   S    
C11   O14   A    
C1    O1    A    
C4    O7    A    
Cu3   O7    S    
Cu1   N2    S    
C48   N2    S    
C46   O34   S    
C49   O37   S    
C23   C38   S    
C17   C35   S    
C18   O22   S    
C49   N3    S    
Cu4   N3    S    
C5    N1    S    
C50   N4    S    
C11   C35   S    
O23   H7    S    
Cu3   O15   S    
O56   H72   S    
C31   H37   S    
Cu4   O8    S    
O37   H53   S    
C8    N4    S    
Cu1   O3    S    
C2    C37   S    
O55   H71   S    
Cu2   O4    S    
C28   H24   S    
Cu4   O6    S    
C46   O42   S    
C43   H45   S    
C37   C41   S    
C17   C21   S    
O44   H60   S    
Cu3   N4    S    
O18   H2    S    
C20   C36   S    
C45   C46   S    
C40   C44   S    
Cu2   O12   S    
C24   O28   S    
C22   O26   S    
C12   O15   A    
O25   H25   S    
O40   H56   S    
C32   C42   S    
C18   H14   S    
O39   H55   S    
O29   H29   S    
C17   H13   S    
C14   H10   S    
C32   H39   S    
C29   C43   S    
O28   H28   S    
C51   O47   S    
C21   O25   S    
Cu2   N1    S    
C10   O12   A    
