data_str_m9_o18_o19_f0_sra.sym.77
_audit_creation_date              2013-03-05T15:51:59-0500
_audit_creation_method            fapswitch 2.2
_symmetry_space_group_name_H-M    P1
_symmetry_Int_Tables_number       1
_space_group_crystal_system       triclinic
_cell_length_a                    22.963668
_cell_length_b                    7.299941
_cell_length_c                    15.177673
_cell_angle_alpha                 89.999159
_cell_angle_beta                  107.359818
_cell_angle_gamma                 90.001376
_cell_volume                      2428.3925876

loop_
_atom_site_label
_atom_site_type_symbol
_atom_site_description
_atom_site_fract_x
_atom_site_fract_y
_atom_site_fract_z
_atom_type_partial_charge
O1    O     O_R   0.711000 0.648610 0.341170 -0.583970
O2    O     O_R   0.289000 0.351390 0.658830 -0.570995
O3    O     O_R   0.789000 0.148610 0.158830 -0.571134
O4    O     O_R   0.211000 0.851390 0.841170 -0.584025
O5    O     O_R   0.829650 0.322030 0.336650 -0.576675
O6    O     O_R   0.170350 0.677970 0.663350 -0.587573
O7    O     O_R   0.670350 0.822030 0.163350 -0.587635
O8    O     O_R   0.329650 0.177970 0.836650 -0.576732
C1    C     C_R   0.854285 0.485866 0.356759 0.973100
C2    C     C_R   0.145718 0.514105 0.643231 0.969342
C3    C     C_R   0.645720 0.985893 0.143228 0.969433
C4    C     C_R   0.354285 0.014136 0.856759 0.973044
O9    O     O_R   0.713950 0.319280 0.352070 -0.574384
O10   O     O_R   0.286050 0.680720 0.647930 -0.585785
O11   O     O_R   0.786050 0.819280 0.147930 -0.585951
O12   O     O_R   0.213950 0.180720 0.852070 -0.574422
O13   O     O_R   0.672470 0.142870 0.174360 -0.573493
O14   O     O_R   0.327530 0.857130 0.825640 -0.585684
O15   O     O_R   0.827530 0.642870 0.325640 -0.585640
O16   O     O_R   0.172470 0.357130 0.674360 -0.573411
C5    C     C_R   0.701241 0.487194 0.375686 0.915294
C6    C     C_R   0.298774 0.512249 0.624351 0.914073
C7    C     C_R   0.798756 0.987757 0.124332 0.914144
C8    C     C_R   0.201240 0.012801 0.875684 0.915254
O17   O     O_3   0.736530 0.478650 0.191680 -0.283310
O18   O     O_3   0.263470 0.521350 0.808320 -0.285468
O19   O     O_3   0.763470 0.978650 0.308320 -0.285364
O20   O     O_3   0.236530 0.021350 0.691680 -0.283107
V1    V     V_3+5 0.752500 0.206170 0.260820 1.245478
V2    V     V_3+5 0.247500 0.793830 0.739180 1.220507
V3    V     V_3+5 0.747500 0.706170 0.239180 1.220225
V4    V     V_3+5 0.252500 0.293830 0.760820 1.245578
C9    C     C_R   0.827252 0.001509 0.050218 -0.199379
C10   C     C_R   0.172456 0.010146 0.949723 -0.201318
C11   C     C_R   0.672464 0.489831 0.449734 -0.201330
C12   C     C_R   0.327272 0.498500 0.550234 -0.199737
C13   C     C_R   0.821474 0.063773 0.891368 -0.086208
C14   C     C_R   0.177779 0.057081 0.109616 -0.088450
C15   C     C_R   0.677804 0.442935 0.609639 -0.088060
C16   C     C_R   0.321512 0.436230 0.391391 -0.086456
C17   C     C_R   0.792126 0.026260 0.957895 0.121229
C18   C     C_R   0.207328 0.025926 0.042734 0.124445
C19   C     C_R   0.707345 0.474076 0.542744 0.124421
C20   C     C_R   0.292148 0.474008 0.457882 0.121740
C21   C     C_R   0.890731 0.011744 0.074330 -0.102495
C22   C     C_R   0.108941 0.019929 0.925445 -0.102992
C23   C     C_R   0.608950 0.479982 0.425470 -0.102925
C24   C     C_R   0.390749 0.488022 0.574378 -0.102567
C25   C     C_R   0.920745 0.065177 0.009685 0.141006
C26   C     C_R   0.078717 0.066993 0.990813 0.141061
C27   C     C_R   0.578738 0.432899 0.490852 0.141042
C28   C     C_R   0.420770 0.434609 0.509739 0.141038
C29   C     C_R   0.885486 0.082848 0.915877 -0.098956
C30   C     C_R   0.113850 0.078279 0.085011 -0.099549
C31   C     C_R   0.613877 0.421684 0.585048 -0.099534
C32   C     C_R   0.385517 0.416987 0.415926 -0.098824
C33   C     C_R   0.985058 0.094958 0.035504 -0.143468
C34   C     C_R   0.014395 0.097478 0.965316 -0.142101
C35   C     C_R   0.514421 0.402337 0.465369 -0.142100
C36   C     C_R   0.485086 0.404844 0.535560 -0.143411
C37   C     C_R   0.978436 0.137139 0.873151 0.230002
C38   C     C_R   0.020961 0.129431 0.128226 0.230096
C39   C     C_R   0.520999 0.370436 0.628284 0.230067
C40   C     C_R   0.478465 0.362628 0.373211 0.229986
C41   C     C_R   0.914353 0.127907 0.848948 0.235944
C42   C     C_R   0.084993 0.119426 0.152429 0.235420
C43   C     C_R   0.585029 0.380546 0.652479 0.235579
C44   C     C_R   0.414384 0.371885 0.349003 0.235937
H1    H     H_    0.083984 0.990986 0.854511 0.150720
H2    H     H_    0.915933 0.976633 0.144420 0.149229
H3    H     H_    0.415947 0.523009 0.644486 0.149240
H4    H     H_    0.583984 0.508879 0.354535 0.150709
H5    H     H_    0.793343 0.082246 0.820755 0.175296
H6    H     H_    0.205743 0.069421 0.180693 0.175498
H7    H     H_    0.705772 0.430634 0.680716 0.175379
H8    H     H_    0.293398 0.417761 0.320769 0.174973
C45   C     C_1   0.416767 0.006874 0.918728 -0.219584
C46   C     C_1   0.583245 0.993317 0.081240 -0.220684
C47   C     C_1   0.083243 0.506678 0.581245 -0.220514
C48   C     C_1   0.916766 0.493131 0.418731 -0.219596
C49   C     C_1   0.469144 0.002482 0.969945 0.144564
C50   C     C_1   0.530872 0.997876 0.030015 0.144637
C51   C     C_1   0.030870 0.502122 0.530021 0.144708
C52   C     C_1   0.969142 0.497520 0.469949 0.144568
N1    N     N_R   0.878674 0.173935 0.756825 0.256032
O21   O     O_R   0.879671 0.340118 0.726500 -0.363885
O22   O     O_R   0.849750 0.046748 0.700714 -0.409291
N2    N     N_R   0.120654 0.161795 0.245043 0.256514
O23   O     O_R   0.119635 0.326453 0.277189 -0.364045
O24   O     O_R   0.149099 0.032329 0.299972 -0.411173
N3    N     N_R   0.620703 0.338282 0.745099 0.256469
O25   O     O_R   0.619798 0.173557 0.777229 -0.364045
O26   O     O_R   0.649089 0.467839 0.800024 -0.410911
N4    N     N_R   0.378706 0.325901 0.256874 0.256027
O27   O     O_R   0.379668 0.159703 0.226552 -0.363901
O28   O     O_R   0.349833 0.453141 0.200750 -0.409295
N5    N     N_2   0.272110 0.011301 0.070421 -0.097579
H9    H     H_    0.292689 0.054845 0.022350 0.158202
C53   C     C_3   0.294876 0.835680 0.110011 -0.648858
H10   H     H_    0.345525 0.836147 0.131397 0.273699
H11   H     H_    0.278220 0.725044 0.058265 0.229606
H12   H     H_    0.279922 0.807661 0.171916 0.241123
N6    N     N_2   0.727300 0.014586 0.930610 -0.098937
H13   H     H_    0.707306 0.054355 0.980020 0.156624
C54   C     C_3   0.703483 0.842592 0.887532 -0.642251
H14   H     H_    0.652855 0.845138 0.866949 0.273292
H15   H     H_    0.719904 0.727630 0.936762 0.232476
H16   H     H_    0.717845 0.819758 0.824638 0.239968
N7    N     N_2   0.227321 0.486247 0.430544 -0.098815
H17   H     H_    0.207253 0.448899 0.480251 0.155489
C55   C     C_3   0.203603 0.657024 0.385838 -0.640383
H18   H     H_    0.152980 0.655337 0.365882 0.273227
H19   H     H_    0.217601 0.676254 0.322344 0.238699
H20   H     H_    0.220453 0.773807 0.433765 0.233203
N8    N     N_2   0.772127 0.488676 0.570413 -0.097617
H21   H     H_    0.792698 0.445106 0.522336 0.158197
C56   C     C_3   0.794908 0.664294 0.609992 -0.648631
H22   H     H_    0.845556 0.663796 0.631373 0.273616
H23   H     H_    0.779959 0.692343 0.671899 0.241268
H24   H     H_    0.778258 0.774926 0.558240 0.229649
N9    N     N_R   0.005675 0.212678 0.807239 0.243350
O29   O     O_R   0.991812 0.148055 0.723596 -0.356605
O30   O     O_R   0.043006 0.350800 0.829987 -0.390307
N10   N     N_R   0.993704 0.200335 0.195133 0.243897
O31   O     O_R   0.007493 0.131012 0.277823 -0.355946
O32   O     O_R   0.956382 0.338770 0.174278 -0.390726
N11   N     N_R   0.493758 0.299473 0.695200 0.243858
O33   O     O_R   0.456435 0.161037 0.674341 -0.390760
O34   O     O_R   0.507560 0.368748 0.777901 -0.356022
N12   N     N_R   0.505706 0.287045 0.307312 0.243353
O35   O     O_R   0.543056 0.148976 0.330096 -0.390285
O36   O     O_R   0.491841 0.351602 0.223656 -0.356575

loop_
_geom_bond_atom_site_label_1
_geom_bond_atom_site_label_2
_geom_bond_distance
_ccdc_geom_bond_type
O17   V3    1.798160 S    
O1    C5    1.335345 A    
O19   V1    1.798152 S    
C9    C21   1.395012 A    
O3    C7    1.331594 A    
C55   H18   1.110468 S    
C10   C18   1.404577 A    
C48   C52   1.222299 T    
O4    V2    2.012359 S    
O15   V3    1.968220 S    
C38   N10   1.438838 S    
C49   C50   1.438914 S    
C25   C33   1.427074 A    
C33   C38   1.425194 A    
C55   H19   1.112022 S    
N1    O21   1.300122 A    
O7    C3    1.319472 A    
C54   H15   1.112036 S    
C35   C40   1.425859 A    
C26   C30   1.418956 A    
C36   C39   1.425205 A    
C40   C44   1.407967 A    
O2    V4    2.012344 S    
C14   C18   1.397729 A    
C56   H23   1.111352 S    
C42   N2    1.433615 S    
O4    C8    1.335330 A    
N8    H21   1.030760 S    
O1    V3    2.012341 S    
O13   V1    1.968207 S    
C37   N9    1.438580 S    
O3    V1    2.012362 S    
C22   H1    1.078874 S    
C28   C36   1.427132 A    
C19   N8    1.424068 S    
C1    O15   1.319469 A    
C15   C31   1.411183 A    
C51   C52   1.438912 S    
C2    O16   1.319291 A    
N8    C56   1.445865 S    
O2    C6    1.331608 A    
C12   C24   1.395072 A    
C10   C22   1.395523 A    
C15   H7    1.082068 S    
C11   C19   1.404587 A    
C16   C20   1.398317 A    
C13   C29   1.411458 A    
C20   N7    1.423954 S    
C34   C37   1.425893 A    
O11   C7    1.337285 A    
C11   C23   1.395528 A    
C35   C36   1.420334 A    
O12   C8    1.333646 A    
O10   V2    2.028611 S    
N5    C53   1.445865 S    
N5    H9    1.030752 S    
O5    V1    1.990443 S    
N1    O22   1.300354 A    
C54   H16   1.111601 S    
C39   C43   1.407159 A    
O7    V3    1.990463 S    
C38   C42   1.407131 A    
C26   C34   1.428244 A    
C7    C9    1.463870 S    
C18   N5    1.424072 S    
N3    O25   1.300089 A    
O18   V4    1.798162 S    
C23   C27   1.412463 A    
C16   C32   1.411425 A    
C32   C44   1.407596 A    
C44   N4    1.433714 S    
C16   H8    1.082094 S    
C1    C48   1.463155 S    
O8    V4    1.990467 S    
N12   O36   1.301675 A    
N11   O34   1.301671 A    
O5    C1    1.319286 A    
C3    C46   1.463164 S    
C37   C41   1.407999 A    
N3    O26   1.300017 A    
C46   C50   1.222302 T    
C31   C43   1.407487 A    
C53   H10   1.110320 S    
C14   C30   1.411184 A    
C45   C49   1.222300 T    
O8    C4    1.319291 A    
C4    C45   1.463158 S    
C43   N3    1.433605 S    
C21   C25   1.411884 A    
O9    C5    1.333640 A    
N6    C54   1.445542 S    
N4    O28   1.300362 A    
N9    O29   1.301673 A    
O14   V2    1.968209 S    
O6    V2    1.990442 S    
N2    O24   1.299995 A    
C56   H24   1.111831 S    
C27   C35   1.428227 A    
C24   H3    1.079291 S    
N11   O33   1.301583 A    
C29   C41   1.407591 A    
N10   O32   1.301584 A    
O16   V4    1.968217 S    
O9    V1    2.028609 S    
C13   H5    1.082109 S    
C3    O13   1.319289 A    
C53   H11   1.111823 S    
C21   H2    1.079304 S    
C40   N12   1.438590 S    
O6    C2    1.319469 A    
C15   C19   1.397746 A    
C2    C47   1.463164 S    
O11   V3    2.028577 S    
C30   C42   1.407490 A    
O12   V4    2.028578 S    
C6    C12   1.463931 S    
C54   H14   1.110353 S    
C22   C26   1.412456 A    
C9    C17   1.404385 A    
O10   C6    1.337293 A    
N7    C55   1.445922 S    
C5    C11   1.464027 S    
C41   N1    1.433721 S    
C56   H22   1.110318 S    
C47   C51   1.222300 T    
C33   C34   1.420321 A    
C25   C29   1.418269 A    
O20   V2    1.798154 S    
C14   H6    1.082059 S    
N12   O35   1.301576 A    
C55   H20   1.112504 S    
C27   C31   1.418932 A    
C13   C17   1.398154 A    
N4    O27   1.300121 A    
C8    C10   1.464009 S    
C23   H4    1.078878 S    
N9    O30   1.301572 A    
C12   C20   1.404494 A    
C17   N6    1.423695 S    
C24   C28   1.411885 A    
C53   H12   1.111345 S    
N2    O23   1.300085 A    
C4    O14   1.319468 A    
N6    H13   1.031004 S    
N7    H17   1.031183 S    
C39   N11   1.438838 S    
C28   C32   1.418252 A    
N10   O31   1.301672 A    
