data_str_m3_o10_o17_f0_pcu.sym.108
_audit_creation_date              2012-12-10T16:52:02-0500
_audit_creation_method            fapswitch 2.2
_symmetry_space_group_name_H-M    P1
_symmetry_Int_Tables_number       1
_space_group_crystal_system       triclinic
_cell_length_a                    7.772603
_cell_length_b                    8.551514
_cell_length_c                    14.873909
_cell_angle_alpha                 91.110877
_cell_angle_beta                  85.937915
_cell_angle_gamma                 93.578089
_cell_volume                      984.114773947

loop_
_atom_site_label
_atom_site_type_symbol
_atom_type_description
_atom_site_fract_x
_atom_site_fract_y
_atom_site_fract_z
_atom_type_partial_charge
C1    C     C_R   0.545699 0.794672 0.497670 0.959168
C2    C     C_R   0.602175 0.615727 0.810848 -0.224984
C3    C     C_R   0.493461 0.502583 0.232123 -0.062354
C4    C     C_R   0.506537 0.497417 0.767878 -0.062384
C5    C     C_R   0.590430 0.620109 0.184820 -0.213743
C6    C     C_R   0.409554 0.379902 0.815181 -0.213724
C7    C     C_R   0.591746 0.621273 0.091842 0.070147
C8    C     C_R   0.408243 0.378739 0.908158 0.070122
C9    C     C_R   0.497952 0.500462 0.046833 -0.010742
C10   C     C_R   0.502049 0.499546 0.953167 -0.010759
C11   C     C_R   0.401208 0.380064 0.095685 0.021040
C12   C     C_R   0.454301 0.205328 0.502330 0.959164
C13   C     C_R   0.598802 0.619935 0.904314 0.021068
C14   C     C_R   0.686038 0.740610 0.043594 -0.332548
C15   C     C_R   0.313955 0.259399 0.956405 -0.332499
C16   C     C_3   0.691650 0.997443 0.908581 -0.319542
C17   C     C_3   0.308555 0.002618 0.091494 -0.319630
C18   C     C_R   0.687238 0.742834 0.949774 0.522565
C19   C     C_R   0.312777 0.257164 0.050223 0.522566
C20   C     C_2   0.569839 0.958153 0.496310 -0.379328
C21   C     C_2   0.430161 0.041847 0.503689 -0.379325
C22   C     C_R   0.502226 0.499693 0.672798 0.874513
C23   C     C_R   0.497774 0.500306 0.327203 0.874504
C24   C     C_R   0.397837 0.384266 0.189152 -0.225048
H1    H     H_    0.325593 0.294000 0.228879 0.178799
H2    H     H_    0.986318 0.617503 0.568048 0.195570
H3    H     H_    0.681955 0.044661 0.978862 0.168340
H4    H     H_    0.560611 0.977365 0.883063 0.152233
H5    H     H_    0.763361 0.088135 0.865872 0.206957
H6    H     H_    0.439423 0.022799 0.117187 0.152309
H7    H     H_    0.236756 0.911827 0.134089 0.206978
H8    H     H_    0.318635 0.955467 0.021215 0.168253
H9    H     H_    0.674427 0.705986 0.771120 0.178817
H10   H     H_    0.663373 0.710662 0.220747 0.140071
H11   H     H_    0.336599 0.289352 0.779254 0.140079
H12   H     H_    0.758635 0.832404 0.078564 0.176479
H13   H     H_    0.241364 0.167599 0.921436 0.176508
H14   H     H_    0.701816 0.009069 0.489251 0.182877
H15   H     H_    0.298184 0.990931 0.510748 0.182878
H16   H     H_    0.013682 0.382497 0.431951 0.195568
N1    N     N_2   0.950330 0.457950 0.475660 -0.172184
N2    N     N_2   0.049670 0.542050 0.524340 -0.172183
O1    O     O_R   0.389250 0.738570 0.505970 -0.611742
O2    O     O_3   0.216879 0.140168 0.097718 -0.605407
O3    O     O_R   0.610750 0.261430 0.494030 -0.611743
O4    O     O_R   0.678390 0.711620 0.490370 -0.632553
O5    O     O_R   0.321610 0.288380 0.509630 -0.632554
O6    O     O_R   0.355420 0.513510 0.639950 -0.610171
O7    O     O_R   0.644580 0.486490 0.360050 -0.610176
O8    O     O_R   0.644560 0.486560 0.624350 -0.624712
O9    O     O_R   0.355440 0.513440 0.375650 -0.624710
O10   O     O_3   0.783169 0.859801 0.902268 -0.605412
Zn1   Zn    Zn3+2 0.306940 0.517990 0.510420 0.951292
Zn2   Zn    Zn3+2 0.693060 0.482010 0.489580 0.951289

loop_
_geom_bond_atom_site_label_1
_geom_bond_atom_site_label_2
_ccdc_geom_bond_type
C16   H4    S    
C22   O6    A    
C24   H1    S    
C20   H14   S    
C9    C10   A    
C14   C18   A    
C23   O9    A    
C21   H15   S    
C22   O8    A    
O5    Zn1   S    
C5    H10   S    
O4    Zn2   S    
C16   H3    S    
C16   H5    S    
C17   O2    S    
C18   O10   S    
C19   O2    S    
C15   C19   A    
C17   H6    S    
C9    C11   A    
N1    Zn2   S    
C11   C19   A    
C3    C24   A    
O8    Zn2   S    
C13   C18   A    
C12   O5    A    
C2    C4    A    
C2    H9    S    
C4    C6    A    
H16   N1    S    
O1    Zn1   S    
O3    Zn2   S    
C8    C15   A    
C5    C7    A    
N2    Zn1   S    
C14   H12   S    
O6    Zn1   S    
C17   H7    S    
C1    O4    A    
C23   O7    A    
C17   H8    S    
O7    Zn2   S    
C11   C24   A    
C4    C22   S    
C6    H11   S    
H2    N2    S    
C8    C10   A    
N1    N2    D    
C7    C9    A    
C2    C13   A    
C15   H13   S    
C1    C20   S    
C6    C8    A    
C3    C5    A    
C20   C21   D    
C3    C23   S    
C12   C21   S    
C1    O1    A    
C7    C14   A    
C16   O10   S    
C12   O3    A    
O9    Zn1   S    
C10   C13   A    
