data_str_m4_o4_o4_f0_acs.sym.15
_audit_creation_date              2012-12-11T15:52:18-0500
_audit_creation_method            fapswitch 2.2
_symmetry_space_group_name_H-M    P1
_symmetry_Int_Tables_number       1
_space_group_crystal_system       triclinic
_cell_length_a                    11.025795
_cell_length_b                    11.05053
_cell_length_c                    18.792999
_cell_angle_alpha                 89.79461
_cell_angle_beta                  90.436
_cell_angle_gamma                 120.111091
_cell_volume                      1980.70548218

loop_
_atom_site_label
_atom_site_type_symbol
_atom_type_description
_atom_site_fract_x
_atom_site_fract_y
_atom_site_fract_z
_atom_type_partial_charge
C1    C     C_R   0.520444 0.453820 0.146151 0.535039
C2    C     C_3   0.901792 0.648044 0.472370 0.134984
C3    C     C_3   0.762231 0.057028 0.467842 0.136162
C4    C     C_3   0.324869 0.239269 0.465632 0.183427
C5    C     C_R   0.517288 0.458418 0.352956 0.592425
C6    C     C_R   0.541958 0.058421 0.352833 0.571356
C7    C     C_R   0.944408 0.484542 0.351899 0.596863
C8    C     C_R   0.456232 0.519805 0.645602 0.529410
C9    C     C_R   0.127508 0.580132 0.639205 0.555900
C10   C     C_R   0.480760 0.938677 0.646323 0.541336
C11   C     C_R   0.505386 0.013761 0.919401 -0.022111
C12   C     C_R   0.550124 0.075372 0.143667 0.584749
C13   C     C_R   0.989168 0.493010 0.920032 -0.032081
C14   C     C_R   0.495848 0.505880 0.924371 0.005129
C15   C     C_R   0.952497 0.483834 0.068106 0.055355
C16   C     C_R   0.533208 0.052838 0.067323 0.048202
C17   C     C_R   0.500809 0.474512 0.072298 0.031677
C18   C     C_R   0.392358 0.997012 0.960827 -0.008131
C19   C     C_R   0.002973 0.395199 0.962038 -0.003848
C20   C     C_R   0.540161 0.620137 0.970647 0.003713
C21   C     C_R   0.984782 0.391153 0.034935 -0.016947
C22   C     C_R   0.406705 0.015973 0.033704 -0.040637
C23   C     C_R   0.926345 0.475933 0.144132 0.561057
C24   C     C_R   0.543466 0.604794 0.043099 0.036326
C25   C     C_R   0.652640 0.096385 0.024516 -0.109984
C26   C     C_R   0.913188 0.562837 0.024709 -0.103349
C27   C     C_R   0.441071 0.356494 0.027152 -0.111087
C28   C     C_R   0.929907 0.566120 0.951148 -0.131205
C29   C     C_R   0.639239 0.079091 0.950756 -0.166213
C30   C     C_R   0.439676 0.372011 0.953776 -0.138457
C31   C     C_3   0.244853 0.877369 0.967683 0.125945
C32   C     C_3   0.120575 0.365023 0.969892 0.170578
C33   C     C_3   0.668427 0.762700 0.973463 0.162077
C34   C     C_R   0.458620 0.520375 0.852424 0.536374
C35   C     C_3   0.099543 0.360258 0.049931 0.148854
C36   C     C_3   0.261964 0.898178 0.048020 0.158357
C37   C     C_3   0.670199 0.744569 0.053927 0.140604
C38   C     C_R   0.497375 0.996580 0.575422 -0.025402
C39   C     C_R   0.102063 0.563655 0.562776 -0.040403
C40   C     C_R   0.482096 0.505108 0.571614 -0.020054
C41   C     C_R   0.026514 0.524227 0.417960 0.016568
C42   C     C_R   0.517042 0.011693 0.426122 0.011664
C43   C     C_R   0.487785 0.497243 0.422140 0.022992
C44   C     C_R   0.628590 0.069654 0.542763 -0.053334
C45   C     C_R   0.061731 0.541583 0.852462 0.536474
C46   C     C_R   0.065396 0.652070 0.528118 0.030984
C47   C     C_R   0.371412 0.399252 0.533937 0.002261
C48   C     C_R   0.024564 0.629280 0.458058 -0.004135
C49   C     C_R   0.635749 0.072325 0.469913 0.068263
C50   C     C_R   0.375523 0.393261 0.461056 -0.026842
C51   C     C_R   0.385034 0.951519 0.457911 -0.111611
C52   C     C_R   0.088901 0.452664 0.448365 -0.125492
C53   C     C_R   0.588969 0.615824 0.458856 -0.112456
C54   C     C_R   0.119259 0.467025 0.521911 -0.163368
C55   C     C_R   0.376057 0.948385 0.532328 -0.138435
C56   C     C_R   0.480692 0.939120 0.852297 0.533460
C57   C     C_R   0.591482 0.613953 0.533610 -0.145388
C58   C     C_3   0.765391 0.068387 0.548225 0.144826
C59   C     C_3   0.952878 0.683443 0.548304 0.105894
C60   C     C_3   0.310302 0.245946 0.544961 0.118251
Cr1   Cr    Cr6+3 0.769160 0.541570 0.250690 1.024927
Cr2   Cr    Cr6+3 0.458430 0.227590 0.250690 1.045888
Cr3   Cr    Cr6+3 0.772410 0.230840 0.250690 1.043423
Cr4   Cr    Cr6+3 0.541570 0.769160 0.749310 1.036169
Cr5   Cr    Cr6+3 0.227590 0.458430 0.749310 1.012120
Cr6   Cr    Cr6+3 0.230840 0.772410 0.749310 1.025815
H1    H     H_    0.755298 0.136199 0.048272 0.166846
H2    H     H_    0.063031 0.255983 0.074825 0.160116
H3    H     H_    0.193508 0.933200 0.072809 0.195373
H4    H     H_    0.763347 0.742882 0.075566 0.154868
H5    H     H_    0.290957 0.913719 0.425758 0.145193
H6    H     H_    0.103565 0.379107 0.417230 0.150745
H7    H     H_    0.676636 0.698741 0.430728 0.126628
H8    H     H_    0.145960 0.396990 0.547933 0.196829
H9    H     H_    0.273823 0.900536 0.556179 0.206008
H10   H     H_    0.682601 0.691059 0.561940 0.143486
H11   H     H_    0.853161 0.167705 0.569870 0.194275
H12   H     H_    0.874680 0.626323 0.047640 0.161965
H13   H     H_    0.878703 0.612567 0.589477 0.141488
H14   H     H_    0.375770 0.216229 0.578056 0.125757
H15   H     H_    0.903957 0.734926 0.441394 0.168533
H16   H     H_    0.739140 0.953824 0.445955 0.103929
H17   H     H_    0.225380 0.172440 0.436130 0.174669
H18   H     H_    0.150713 0.906921 0.888283 0.353834
H19   H     H_    0.092740 0.243403 0.890479 0.350556
H20   H     H_    0.781274 0.791465 0.890406 0.342985
H21   H     H_    0.194623 0.455189 0.136287 0.334601
H22   H     H_    0.324216 0.760690 0.060557 0.356394
H23   H     H_    0.400006 0.252310 0.048389 0.153016
H24   H     H_    0.635181 0.810413 0.141768 0.335739
H25   H     H_    0.667267 0.870409 0.564177 0.324816
H26   H     H_    0.930574 0.837753 0.578224 0.358510
H27   H     H_    0.167836 0.171666 0.617453 0.353803
H28   H     H_    0.778870 0.447991 0.496014 0.316037
H29   H     H_    0.948614 0.143866 0.432049 0.320550
H30   H     H_    0.517582 0.273206 0.476630 0.330538
H31   H     H_    0.910806 0.636961 0.919741 0.214404
H32   H     H_    0.730825 0.101204 0.919992 0.160892
H33   H     H_    0.392641 0.279716 0.920272 0.163779
H34   H     H_    0.229079 0.775320 0.948600 0.145447
H35   H     H_    0.223346 0.451200 0.951288 0.164174
H36   H     H_    0.648388 0.847005 0.956254 0.169498
O1    O     O_R   0.911480 0.572650 0.170990 -0.513910
O2    O     O_R   0.528970 0.640340 0.824320 -0.507666
O3    O     O_R   0.111370 0.471030 0.824320 -0.511777
O4    O     O_R   0.359660 0.888630 0.824320 -0.515815
O5    O     O_R   0.909980 0.572450 0.331530 -0.500934
O6    O     O_R   0.427550 0.337530 0.331530 -0.489317
O7    O     O_R   0.662470 0.090020 0.331530 -0.488062
O8    O     O_R   0.572450 0.909980 0.668470 -0.467717
O9    O     O_R   0.337530 0.427550 0.668470 -0.527695
O10   O     O_R   0.090020 0.662470 0.668470 -0.491445
O11   O     O_R   0.638950 0.528780 0.324500 -0.478378
O12   O     O_R   0.427350 0.338830 0.170990 -0.524935
O13   O     O_R   0.471220 0.110170 0.324500 -0.450271
O14   O     O_R   0.889830 0.361050 0.324500 -0.454371
O15   O     O_R   0.528780 0.638950 0.675500 -0.497029
O16   O     O_R   0.110170 0.471220 0.675500 -0.497930
O17   O     O_R   0.361050 0.889830 0.675500 -0.517726
O18   O     O_3   0.666667 0.333333 0.250560 -0.266475
O19   O     O_3   0.333333 0.666667 0.749440 -0.279900
O20   O     O_3   0.147300 0.912150 0.940816 -0.672023
O21   O     O_3   0.083967 0.232844 0.942897 -0.692810
O22   O     O_3   0.784135 0.766735 0.940932 -0.716033
O23   O     O_R   0.661170 0.088520 0.170990 -0.512439
O24   O     O_3   0.213871 0.471525 0.084618 -0.715783
O25   O     O_3   0.259647 0.785490 0.084608 -0.686740
O26   O     O_3   0.637551 0.834310 0.090660 -0.716345
O27   O     O_3   0.757673 0.950346 0.579961 -0.696840
O28   O     O_3   0.010013 0.826095 0.563132 -0.693865
O29   O     O_3   0.169058 0.180424 0.564897 -0.699023
O30   O     O_3   0.774453 0.520161 0.466152 -0.712471
O31   O     O_3   0.875354 0.170598 0.435810 -0.689059
O32   O     O_3   0.432053 0.212006 0.448128 -0.683867
O33   O     O_R   0.572650 0.911480 0.829010 -0.525505
O34   O     O_R   0.338830 0.427350 0.829010 -0.532557
O35   O     O_R   0.088520 0.661170 0.829010 -0.527590
O36   O     O_R   0.640340 0.528970 0.175680 -0.537453
O37   O     O_R   0.471030 0.111370 0.175680 -0.513961
O38   O     O_R   0.888630 0.359660 0.175680 -0.535472

loop_
_geom_bond_atom_site_label_1
_geom_bond_atom_site_label_2
_ccdc_geom_bond_type
C44   C49   A    
C28   H31   S    
C40   C47   A    
C13   C45   S    
C11   C18   A    
C46   C59   S    
Cr3   O38   S    
C10   O8    A    
C44   C58   S    
C25   H1    S    
C9    C39   S    
C3    C49   S    
C59   O28   S    
Cr6   O35   S    
C26   H12   S    
C29   H32   S    
C57   H10   S    
Cr1   O1    S    
Cr6   O4    S    
Cr2   O12   S    
H22   O25   S    
Cr1   O36   S    
C39   C54   A    
Cr2   O6    S    
C58   O27   S    
H18   O20   S    
Cr4   O19   S    
H29   O31   S    
C5    O11   A    
Cr5   O9    S    
C10   O17   A    
C58   H11   S    
C47   C60   S    
C54   H8    S    
C43   C53   A    
C23   O1    A    
C38   C55   A    
C20   C24   A    
C45   O3    A    
C32   H35   S    
C33   O22   S    
C2    O30   S    
Cr5   O16   S    
C13   C28   A    
C27   H23   S    
Cr5   O19   S    
Cr2   O37   S    
C41   C52   A    
Cr2   O18   S    
C42   C51   A    
C37   O26   S    
C55   H9    S    
C9    O10   A    
C15   C23   S    
C5    C43   S    
Cr4   O33   S    
C37   H4    S    
C27   C30   A    
C9    O16   A    
C32   O21   S    
C51   H5    S    
C14   C30   A    
C19   C32   S    
C60   O29   S    
Cr5   O3    S    
C52   C54   A    
C8    O15   A    
C47   C50   A    
C25   C29   A    
C46   C48   A    
Cr6   O19   S    
C17   C24   A    
C13   C19   A    
C33   H36   S    
C17   C27   A    
C32   C35   S    
C12   C16   S    
C23   O38   A    
C8    O9    A    
C59   H13   S    
C53   C57   A    
C2    C59   S    
C15   C26   A    
H30   O32   S    
C12   O23   A    
C2    C48   S    
C30   H33   S    
C33   C37   S    
Cr4   O15   S    
C4    C50   S    
C3    O31   S    
C7    O14   A    
Cr3   O7    S    
C35   O24   S    
H26   O28   S    
C38   C44   A    
C52   H6    S    
C14   C20   A    
Cr4   O8    S    
C34   O34   A    
C4    C60   S    
C3    H16   S    
C45   O35   A    
C24   C37   S    
C12   O37   A    
C31   H34   S    
C56   O4    A    
Cr3   O23   S    
C39   C46   A    
H25   O27   S    
C20   C33   S    
Cr6   O17   S    
H28   O30   S    
H20   O22   S    
C6    O7    A    
C7    O5    A    
C36   O25   S    
C1    O12   A    
Cr3   O14   S    
C56   O33   A    
C36   H3    S    
C4    O32   S    
C16   C25   A    
Cr4   O2    S    
C60   H14   S    
C16   C22   A    
C40   C57   A    
C19   C21   A    
C18   C22   A    
C26   C28   A    
C53   H7    S    
C31   O20   S    
C14   C34   S    
C43   C50   A    
C21   C35   S    
C22   C36   S    
C1    C17   S    
C10   C38   S    
Cr2   O13   S    
Cr1   O11   S    
Cr3   O18   S    
C4    H17   S    
C35   H2    S    
C41   C48   A    
H19   O21   S    
C51   C55   A    
C7    C41   S    
Cr1   O5    S    
C34   O2    A    
C6    O13   A    
Cr5   O34   S    
C1    O36   A    
C42   C49   A    
C3    C58   S    
C15   C21   A    
C11   C29   A    
C6    C42   S    
H24   O26   S    
C31   C36   S    
C2    H15   S    
C18   C31   S    
C8    C40   S    
Cr6   O10   S    
H27   O29   S    
H21   O24   S    
C11   C56   S    
Cr1   O18   S    
C5    O6    A    
