data_str_m2_o4_o5_f0_pcu.sym.239
_audit_creation_date              2012-12-10T19:08:09-0500
_audit_creation_method            fapswitch 2.2
_symmetry_space_group_name_H-M    P1
_symmetry_Int_Tables_number       1
_space_group_crystal_system       triclinic
_cell_length_a                    9.043749
_cell_length_b                    10.832562
_cell_length_c                    9.641396
_cell_angle_alpha                 89.595323
_cell_angle_beta                  89.892363
_cell_angle_gamma                 91.905918
_cell_volume                      943.990180869

loop_
_atom_site_label
_atom_site_type_symbol
_atom_type_description
_atom_site_fract_x
_atom_site_fract_y
_atom_site_fract_z
_atom_type_partial_charge
C1    C     C_R   0.501609 0.262494 0.500458 0.818671
C2    C     C_R   0.564238 0.938129 0.383242 -0.190879
C3    C     C_R   0.515980 0.870737 0.500824 -0.125234
C4    C     C_R   0.485207 0.933797 0.622528 0.115614
C5    C     C_3   0.351154 0.920635 0.713165 -0.247890
C6    C     C_3   0.349282 0.060815 0.713749 -0.368120
C7    C     C_R   0.622306 0.538631 0.072327 0.223002
C8    C     C_R   0.386162 0.445028 0.074927 -0.015901
C9    C     C_R   0.384131 0.448872 0.926875 0.009201
C10   C     C_R   0.623401 0.536592 0.926258 0.234610
C11   C     C_3   0.705787 0.657855 0.918076 -0.471892
C12   C     C_R   0.221057 0.500175 0.500135 0.865873
C13   C     C_3   0.701479 0.661282 0.075914 -0.478191
C14   C     C_R   0.503269 0.737312 0.499681 0.777041
C15   C     C_R   0.778988 0.500552 0.500000 0.831317
C16   C     C_1   0.065737 0.500773 0.500538 -0.178921
C17   C     C_1   0.934360 0.500897 0.500284 -0.199736
C18   C     C_R   0.483459 0.061199 0.622863 0.111521
C19   C     C_R   0.513946 0.129221 0.501909 -0.111411
C20   C     C_R   0.564031 0.067053 0.384072 -0.227261
Cu1   Cu    Cu3+1 0.499990 0.499980 0.640670 0.967907
Cu2   Cu    Cu3+1 0.500010 0.500020 0.359330 0.942782
H1    H     H_    0.598240 0.117396 0.291408 0.163574
H2    H     H_    0.641473 0.730798 0.867371 0.240254
H3    H     H_    0.812691 0.656028 0.124082 0.186081
H4    H     H_    0.631174 0.734867 0.116890 0.230109
H5    H     H_    0.597242 0.891697 0.289750 0.171686
H6    H     H_    0.254675 0.876653 0.659015 0.114183
H7    H     H_    0.251277 0.097053 0.659314 0.199246
H8    H     H_    0.373877 0.103041 0.816188 0.256458
H9    H     H_    0.819310 0.648359 0.875921 0.185894
N1    N     N_R   0.500920 0.500930 0.147930 -0.202426
N2    N     N_R   0.500930 0.500890 0.852020 -0.212680
O1    O     O_R   0.500000 0.319640 0.618810 -0.529829
O2    O     O_R   0.500020 0.319680 0.381230 -0.598590
O3    O     O_R   0.288380 0.499980 0.618770 -0.575017
O4    O     O_R   0.288400 0.500020 0.381190 -0.570865
O5    O     O_R   0.499980 0.680320 0.618770 -0.599037
O6    O     O_R   0.500000 0.680360 0.381190 -0.579146
O7    O     O_R   0.711600 0.499980 0.618810 -0.575562
O8    O     O_R   0.711620 0.500020 0.381230 -0.591794
C21   C     C_2   0.382590 0.861799 0.851719 0.401240
H10   H     H_    0.334160 0.771135 0.875668 0.064428
O9    O     O_2   0.464509 0.912449 0.936092 -0.574515
C22   C     C_R   0.267821 0.369640 0.145225 0.171630
C23   C     C_R   0.123884 0.414296 0.156833 -0.164224
C24   C     C_R   0.008091 0.337252 0.206388 -0.135000
C25   C     C_R   0.034571 0.215218 0.244163 -0.121431
C26   C     C_R   0.176014 0.168966 0.228571 -0.147263
C27   C     C_R   0.291250 0.245006 0.176180 -0.080574
H11   H     H_    0.101667 0.508393 0.126681 0.110648
H12   H     H_    0.897736 0.372043 0.214979 0.152908
H13   H     H_    0.944945 0.155952 0.283229 0.132394
H14   H     H_    0.195797 0.073556 0.254557 0.143778
H15   H     H_    0.398296 0.206424 0.157713 0.135644
C28   C     C_2   0.250732 0.398044 0.857711 0.455074
H16   H     H_    0.145584 0.441652 0.872118 0.027436
O10   O     O_2   0.255329 0.305061 0.788306 -0.566820

loop_
_geom_bond_atom_site_label_1
_geom_bond_atom_site_label_2
_ccdc_geom_bond_type
C7    C10   A    
C5    C21   S    
C21   O9    D    
C24   H12   S    
Cu1   O1    S    
C25   H13   S    
C14   O5    A    
C5    H6    S    
C26   H14   S    
C19   C20   A    
C20   H1    S    
C4    C18   A    
C2    C3    A    
C11   H9    S    
Cu1   O3    S    
C9    C28   S    
C23   C24   A    
Cu1   Cu2   S    
C9    N2    A    
Cu2   O2    S    
C11   C13   S    
C13   H3    S    
C2    H5    S    
C3    C14   S    
Cu2   N1    S    
C22   C27   A    
Cu2   O6    S    
C25   C26   A    
C6    H8    S    
C28   O10   D    
C1    O1    A    
C18   C19   A    
C10   N2    A    
C5    C6    S    
C6    C18   S    
C15   O7    A    
C1    C19   S    
Cu2   O8    S    
C12   O3    A    
C21   H10   S    
C13   H4    S    
C2    C20   A    
C3    C4    A    
C8    N1    A    
C24   C25   A    
C12   C16   S    
C11   H2    S    
C7    C13   S    
C6    H7    S    
Cu1   N2    S    
C28   H16   S    
C15   O8    A    
C26   C27   A    
C10   C11   S    
C12   O4    A    
C15   C17   S    
C1    O2    A    
C8    C22   S    
C8    C9    A    
C7    N1    A    
C14   O6    A    
C22   C23   A    
Cu2   O4    S    
C23   H11   S    
Cu1   O5    S    
C27   H15   S    
C16   C17   T    
C4    C5    S    
Cu1   O7    S    
