data_str_m2_o5_o29_f0_pcu.sym.16
_audit_creation_date              2013-03-05T16:36:12-0500
_audit_creation_method            fapswitch 2.2
_symmetry_space_group_name_H-M    P1
_symmetry_Int_Tables_number       1
_space_group_crystal_system       triclinic
_cell_length_a                    27.884463
_cell_length_b                    9.078462
_cell_length_c                    7.777276
_cell_angle_alpha                 90.017226
_cell_angle_beta                  90.0795
_cell_angle_gamma                 90.156191
_cell_volume                      1968.79285647

loop_
_atom_site_label
_atom_site_type_symbol
_atom_site_description
_atom_site_fract_x
_atom_site_fract_y
_atom_site_fract_z
_atom_type_partial_charge
O1    O     O_R   0.500000 0.288390 0.642760 -0.575569
O2    O     O_R   0.500000 0.711610 0.357240 -0.575568
O3    O     O_R   0.500000 0.711610 0.642760 -0.574951
O4    O     O_R   0.500000 0.288390 0.357240 -0.574952
C1    C     C_R   0.499991 0.220013 0.499984 0.853151
C2    C     C_R   0.500008 0.779987 0.500016 0.853154
O5    O     O_R   0.430260 0.500000 0.642770 -0.585846
O6    O     O_R   0.569740 0.500000 0.357230 -0.585841
O7    O     O_R   0.569740 0.500000 0.642770 -0.586158
O8    O     O_R   0.430260 0.500000 0.357230 -0.586151
C3    C     C_R   0.407224 0.499773 0.499863 0.797269
C4    C     C_R   0.592776 0.500224 0.500138 0.797269
Cu1   Cu    Cu3+1 0.500000 0.500000 0.669080 1.007829
Cu2   Cu    Cu3+1 0.500000 0.500000 0.330920 1.007832
C5    C     C_R   0.178181 0.382020 0.430806 0.556281
C6    C     C_R   0.821818 0.617892 0.569315 0.556248
C7    C     C_R   0.178852 0.619768 0.560889 0.532518
C8    C     C_R   0.821148 0.380069 0.439414 0.532526
O9    O     O_2   0.203453 0.265912 0.372103 -0.492764
O10   O     O_2   0.796547 0.734076 0.627828 -0.492757
O11   O     O_2   0.205071 0.733514 0.621336 -0.546488
O12   O     O_2   0.794929 0.266324 0.378962 -0.546473
N1    N     N_R   0.202291 0.499926 0.497085 -0.472915
N2    N     N_R   0.797709 0.499976 0.503055 -0.472920
C9    C     C_R   0.278858 0.491663 0.653915 -0.093884
C10   C     C_R   0.721151 0.508198 0.346142 -0.093849
C11   C     C_R   0.279085 0.505757 0.342649 -0.099025
C12   C     C_R   0.720906 0.494262 0.657426 -0.099078
C13   C     C_R   0.328866 0.492122 0.654803 -0.209271
C14   C     C_R   0.671143 0.507766 0.345222 -0.209284
C15   C     C_R   0.329073 0.505804 0.343172 -0.207531
C16   C     C_R   0.670919 0.494240 0.656871 -0.207502
C17   C     C_R   0.253794 0.498697 0.497910 0.356628
C18   C     C_R   0.746206 0.501231 0.502175 0.356643
C19   C     C_R   0.102240 0.502211 0.495186 -0.120776
C20   C     C_R   0.897759 0.497567 0.505274 -0.120787
C21   C     C_R   0.127614 0.380825 0.425699 -0.014601
C22   C     C_R   0.872384 0.619014 0.574607 -0.014622
C23   C     C_R   0.128120 0.624469 0.562270 -0.052535
C24   C     C_R   0.871879 0.375301 0.438206 -0.052525
C25   C     C_R   0.101807 0.262996 0.351741 0.180741
C26   C     C_R   0.898187 0.736799 0.648673 0.180772
C27   C     C_R   0.102236 0.747065 0.625783 0.153250
C28   C     C_R   0.897764 0.252620 0.374919 0.153249
C29   C     C_R   0.354425 0.499241 0.499339 -0.038352
C30   C     C_R   0.645575 0.500739 0.500680 -0.038346
H1    H     H_    0.347813 0.511511 0.221466 0.161443
H2    H     H_    0.652173 0.488605 0.778574 0.161443
H3    H     H_    0.347457 0.486723 0.776989 0.161160
H4    H     H_    0.652558 0.513110 0.223018 0.161143
H5    H     H_    0.259930 0.511790 0.221631 0.140588
H6    H     H_    0.740054 0.488280 0.778465 0.140553
H7    H     H_    0.259519 0.485889 0.774400 0.141395
H8    H     H_    0.740498 0.513897 0.225663 0.141380
C31   C     C_R   0.974291 0.376656 0.434672 0.009020
C32   C     C_R   0.025708 0.623031 0.566027 0.009020
C33   C     C_R   0.974581 0.620552 0.571919 0.037127
C34   C     C_R   0.025417 0.379149 0.428737 0.037133
C35   C     C_R   0.949010 0.498402 0.503547 0.068819
C36   C     C_R   0.050989 0.501321 0.497056 0.068820
C37   C     C_R   0.947515 0.254331 0.376241 -0.187818
C38   C     C_R   0.052485 0.745317 0.624568 -0.187788
C39   C     C_R   0.948063 0.735659 0.647875 -0.264611
C40   C     C_R   0.051931 0.264050 0.352751 -0.264615
H9    H     H_    0.963957 0.154512 0.331388 0.155857
H10   H     H_    0.036046 0.845076 0.669610 0.155853
H11   H     H_    0.964657 0.827571 0.711855 0.136371
H12   H     H_    0.035332 0.172104 0.288851 0.136384
C41   C     C_1   0.499997 0.065395 0.499978 -0.167438
C42   C     C_1   0.500003 0.934605 0.500022 -0.167439
N3    N     N_1   0.500000 0.500000 0.076820 -0.049887
N4    N     N_1   0.500000 0.500000 0.923180 -0.049888
N5    N     N_3   0.125728 0.141537 0.271035 -0.507276
H13   H     H_    0.114286 0.044135 0.330151 0.218029
H14   H     H_    0.115104 0.137591 0.142049 0.220452
N6    N     N_3   0.874260 0.858267 0.729340 -0.507312
H15   H     H_    0.885842 0.955726 0.670667 0.217947
H16   H     H_    0.884743 0.861862 0.858503 0.220501
N7    N     N_3   0.124693 0.877283 0.693155 -0.583899
H17   H     H_    0.145853 0.926102 0.598032 0.276072
H18   H     H_    0.145258 0.849768 0.800857 0.267542
N8    N     N_3   0.875307 0.122348 0.307699 -0.583873
H19   H     H_    0.854772 0.149752 0.199887 0.267533
H20   H     H_    0.854117 0.073678 0.402835 0.276215

loop_
_geom_bond_atom_site_label_1
_geom_bond_atom_site_label_2
_geom_bond_distance
_ccdc_geom_bond_type
C31   C35   1.417914 A    
C16   H2    1.083058 S    
Cu2   N3    1.976205 S    
C20   C35   1.429185 A    
C13   H3    1.083033 S    
C11   C17   1.400611 A    
C5    O9    1.349365 S    
C7    N1    1.364383 A    
O1    C1    1.271976 A    
C40   H12   1.074708 S    
C19   C21   1.418453 A    
N6    H16   1.046281 S    
C22   C26   1.409677 A    
C28   N8    1.434860 S    
C33   C35   1.419584 A    
C34   C36   1.419591 A    
O7    Cu1   1.955678 S    
C32   C33   1.426546 A    
C7    C23   1.415442 A    
C8    C24   1.415445 A    
C5    C21   1.410569 A    
C1    C41   1.403693 S    
C10   C18   1.400948 A    
N1    C17   1.436215 S    
C8    N2    1.364395 A    
C24   C28   1.417298 A    
O3    Cu1   1.932029 S    
C6    O10   1.349377 S    
O3    C2    1.272089 A    
C5    N1    1.363161 A    
C14   H4    1.083054 S    
C12   C18   1.400636 A    
C6    N2    1.363164 A    
C15   H1    1.083025 S    
Cu1   Cu2   2.629964 S    
C21   C25   1.409695 A    
N5    H14   1.046168 S    
O2    C2    1.271976 A    
C10   H8    1.083026 S    
C11   H5    1.083022 S    
C33   C39   1.411665 A    
N5    H13   1.046049 S    
C9    C13   1.394435 A    
C39   H11   1.074700 S    
C38   H10   1.074985 S    
C11   C15   1.393896 A    
C20   C24   1.420967 A    
N6    H15   1.046160 S    
C4    C30   1.472269 S    
O8    Cu2   1.955680 S    
N7    H18   1.045196 S    
C23   C27   1.417297 A    
C34   C40   1.411662 A    
C7    O11   1.347771 S    
C32   C36   1.417931 A    
C13   C29   1.405774 A    
C19   C36   1.429193 A    
C19   C23   1.420973 A    
O5    C3    1.282925 A    
C12   C16   1.393869 A    
O6    C4    1.282935 A    
C10   C14   1.394455 A    
N8    H20   1.044902 S    
C32   C38   1.411215 A    
C3    C29   1.472264 S    
O1    Cu1   1.931908 S    
C2    C42   1.403694 S    
O6    Cu2   1.955113 S    
C8    O12   1.347778 S    
C16   C30   1.405836 A    
C14   C30   1.405817 A    
C9    H7    1.082996 S    
O4    C1    1.272089 A    
Cu1   N4    1.976205 S    
C28   C37   1.387337 A    
C26   N6    1.435103 S    
C20   C22   1.418445 A    
N3    N4    1.194901 T    
C12   H6    1.083040 S    
C31   C37   1.411202 A    
O4    Cu2   1.932030 S    
C41   C42   1.187376 T    
O2    Cu2   1.931907 S    
O7    C4    1.282615 A    
N2    C18   1.436214 S    
O8    C3    1.282626 A    
C25   N5    1.435105 S    
N7    H17   1.044920 S    
C37   H9    1.074990 S    
O5    Cu1   1.955116 S    
N8    H19   1.045176 S    
C15   C29   1.405816 A    
C31   C34   1.426531 A    
C9    C17   1.400917 A    
C25   C40   1.390841 A    
C27   N7    1.434884 S    
C26   C39   1.390852 A    
C27   C38   1.387327 A    
C6    C22   1.410561 A    
