data_str_m2_o12_o29_f0_pcu.sym.146
_audit_creation_date              2012-12-10T17:08:43-0500
_audit_creation_method            fapswitch 2.2
_symmetry_space_group_name_H-M    P1
_symmetry_Int_Tables_number       1
_space_group_crystal_system       triclinic
_cell_length_a                    27.852318
_cell_length_b                    11.120938
_cell_length_c                    9.879876
_cell_angle_alpha                 111.411157
_cell_angle_beta                  99.587006
_cell_angle_gamma                 88.708169
_cell_volume                      2806.79846963

loop_
_atom_site_label
_atom_site_type_symbol
_atom_type_description
_atom_site_fract_x
_atom_site_fract_y
_atom_site_fract_z
_atom_type_partial_charge
C1    C     C_R   0.496879 0.254547 0.440992 0.843341
C2    C     C_R   0.502247 0.745131 0.558733 0.833989
C3    C     C_R   0.101209 0.512186 0.494873 -0.104816
C4    C     C_R   0.899546 0.508114 0.504151 -0.103415
C5    C     C_R   0.128871 0.408831 0.511124 -0.054988
C6    C     C_R   0.876967 0.626251 0.566684 -0.061024
C7    C     C_R   0.104600 0.300507 0.515792 0.261319
C8    C     C_R   0.905403 0.743188 0.620047 0.270231
C9    C     C_R   0.124482 0.618263 0.483686 -0.067265
C10   C     C_R   0.872024 0.390880 0.449336 -0.063935
C11   C     C_R   0.354540 0.506823 0.504137 -0.224940
C12   C     C_R   0.646455 0.500469 0.503079 -0.225397
C13   C     C_R   0.973814 0.388887 0.453894 -0.017573
C14   C     C_R   0.023869 0.621864 0.498145 -0.018808
C15   C     C_R   0.975643 0.624788 0.528103 0.020347
C16   C     C_R   0.025657 0.395531 0.478231 0.018542
C17   C     C_R   0.949672 0.507123 0.495136 0.046084
C18   C     C_R   0.050178 0.509692 0.489777 0.041443
C19   C     C_R   0.945385 0.270432 0.391124 0.238230
C20   C     C_R   0.047153 0.725455 0.478023 0.247371
C21   C     C_R   0.894761 0.273921 0.390698 -0.179400
C22   C     C_R   0.096959 0.721264 0.469808 -0.162726
C23   C     C_R   0.407502 0.501160 0.500691 0.838478
C24   C     C_R   0.592742 0.499721 0.500122 0.837880
C25   C     C_R   0.053727 0.295152 0.499410 -0.277622
C26   C     C_R   0.953792 0.740881 0.598754 -0.299983
C27   C     C_2   0.488507 0.117940 0.410407 -0.409862
C28   C     C_2   0.509012 0.881601 0.589114 -0.378103
C29   C     C_2   0.508443 0.063384 0.506653 0.252184
C30   C     C_2   0.488419 0.937242 0.494322 0.251683
C31   C     C_2   0.506046 0.502637 0.080857 -0.041686
C32   C     C_2   0.500051 0.483193 0.917393 -0.056155
C33   C     C_R   0.180032 0.419333 0.525359 0.590276
C34   C     C_R   0.826809 0.622445 0.573662 0.594491
C35   C     C_R   0.174768 0.617019 0.482112 0.535320
C36   C     C_R   0.821684 0.393309 0.449653 0.527694
C37   C     C_R   0.286016 0.608243 0.626535 0.118758
C38   C     C_R   0.728598 0.453721 0.605317 0.116759
C39   C     C_R   0.336659 0.603346 0.622448 0.144093
C40   C     C_R   0.677302 0.447953 0.595936 0.152111
C41   C     C_R   0.321624 0.413373 0.392859 0.118490
C42   C     C_R   0.667707 0.559664 0.420921 0.117782
C43   C     C_R   0.271311 0.424479 0.391268 0.249498
C44   C     C_R   0.718381 0.560814 0.426239 0.246911
C45   C     C_R   0.253427 0.520428 0.507596 0.207192
C46   C     C_R   0.748688 0.507192 0.516333 0.212440
Cu1   Cu    Cu3+1 0.508480 0.521810 0.644910 0.917774
Cu2   Cu    Cu3+1 0.491520 0.478190 0.355090 0.925570
H1    H     H_    0.536216 0.932852 0.684028 0.159115
H2    H     H_    0.460481 0.066997 0.317077 0.159419
H3    H     H_    0.477563 0.401653 0.838277 0.160569
H4    H     H_    0.535546 0.565406 0.156190 0.151116
H5    H     H_    0.872540 0.185322 0.343263 0.196046
H6    H     H_    0.114121 0.799004 0.451291 0.188223
H7    H     H_    0.036700 0.213405 0.509462 0.180164
H8    H     H_    0.974777 0.831075 0.645551 0.174061
N1    N     N_R   0.201673 0.520799 0.507864 -0.429821
N2    N     N_R   0.800438 0.507258 0.515540 -0.430956
N3    N     N_2   0.478780 0.445430 0.137360 -0.135247
N4    N     N_2   0.521220 0.554570 0.862640 -0.159655
O1    O     O_R   0.504520 0.332330 0.577400 -0.568029
O2    O     O_R   0.495480 0.667670 0.422600 -0.579304
O3    O     O_R   0.490210 0.295500 0.332650 -0.568081
O4    O     O_R   0.509790 0.704500 0.667350 -0.584804
O5    O     O_R   0.437420 0.518430 0.622370 -0.566280
O6    O     O_R   0.562580 0.481570 0.377630 -0.583358
O7    O     O_R   0.423110 0.481600 0.377610 -0.596154
O8    O     O_R   0.576890 0.518400 0.622390 -0.578569
O9    O     O_2   0.208327 0.329746 0.556932 -0.515688
O10   O     O_2   0.804121 0.732308 0.636465 -0.507440
O11   O     O_2   0.793966 0.282747 0.383502 -0.568985
O12   O     O_2   0.196663 0.711065 0.455225 -0.577786
N5    N     N_2   0.338171 0.303578 0.284956 -0.433057
H9    H     H_    0.360631 0.323434 0.222778 0.272992
C47   C     C_3   0.354313 0.200610 0.336118 -0.678403
H10   H     H_    0.387176 0.233080 0.423078 0.218830
H11   H     H_    0.363507 0.116448 0.242512 0.222685
H12   H     H_    0.324899 0.169307 0.380939 0.244086
N6    N     N_2   0.638982 0.616443 0.328788 -0.437207
H13   H     H_    0.613718 0.554412 0.246386 0.260399
C48   C     C_3   0.622443 0.744045 0.403970 -0.659865
H14   H     H_    0.597606 0.740859 0.479449 0.223979
H15   H     H_    0.602599 0.781865 0.321716 0.220945
H16   H     H_    0.654057 0.811143 0.468501 0.237005
C49   C     C_3   0.552899 0.665921 0.957795 -0.130851
C50   C     C_3   0.523663 0.781552 0.034080 -0.860415
H17   H     H_    0.498915 0.809385 0.951020 0.266737
H18   H     H_    0.501756 0.758716 0.106069 0.231882
H19   H     H_    0.548966 0.865094 0.103332 0.227523
H20   H     H_    0.579843 0.641653 0.039189 0.128309
H21   H     H_    0.574648 0.694355 0.889076 0.211723
C51   C     C_3   0.431102 0.388386 0.053422 -0.127874
C52   C     C_3   0.429865 0.241652 0.006224 -0.825336
H22   H     H_    0.461824 0.201380 0.953825 0.236769
H23   H     H_    0.429725 0.212747 0.102184 0.266646
H24   H     H_    0.396137 0.199789 0.925633 0.218168
H25   H     H_    0.402632 0.428779 0.120741 0.182854
H26   H     H_    0.419162 0.414782 0.955631 0.125053
N7    N     N_2   0.237788 0.336252 0.273618 -0.407569
H27   H     H_    0.248481 0.242032 0.236441 0.284117
C53   C     C_3   0.220577 0.380886 0.154453 -0.669017
H28   H     H_    0.192672 0.310383 0.071986 0.225859
H29   H     H_    0.251279 0.390065 0.099473 0.230209
H30   H     H_    0.203595 0.475791 0.196475 0.251474
N8    N     N_2   0.739690 0.618090 0.341507 -0.387966
H31   H     H_    0.723888 0.701560 0.336938 0.285511
C54   C     C_3   0.746560 0.528660 0.198177 -0.682874
H32   H     H_    0.764783 0.580530 0.142621 0.225467
H33   H     H_    0.710783 0.487392 0.129938 0.224093
H34   H     H_    0.769894 0.449297 0.208724 0.251807
N9    N     N_2   0.130800 0.195016 0.534694 -0.379298
H35   H     H_    0.119236 0.163088 0.610010 0.236812
C55   C     C_3   0.135722 0.091313 0.397783 -0.612531
H36   H     H_    0.158082 0.015311 0.421914 0.237240
H37   H     H_    0.154189 0.128090 0.328302 0.248381
H38   H     H_    0.099330 0.047787 0.335787 0.204323
N10   N     N_2   0.885939 0.864404 0.693913 -0.370468
H39   H     H_    0.897344 0.938267 0.665431 0.242966
C56   C     C_3   0.892100 0.900173 0.852143 -0.625605
H40   H     H_    0.873281 0.991138 0.900444 0.229563
H41   H     H_    0.931446 0.915881 0.901176 0.199963
H42   H     H_    0.876007 0.823557 0.880246 0.242293
N11   N     N_2   0.656719 0.379740 0.671230 -0.418678
H43   H     H_    0.625705 0.323971 0.614401 0.248400
C57   C     C_3   0.656832 0.446796 0.827533 -0.657674
H44   H     H_    0.619109 0.467391 0.848380 0.227298
H45   H     H_    0.678673 0.539502 0.872257 0.231307
H46   H     H_    0.672077 0.383340 0.886885 0.217486
N12   N     N_2   0.369319 0.697545 0.736904 -0.424376
H47   H     H_    0.396608 0.735989 0.704122 0.248615
C58   C     C_3   0.384138 0.672431 0.871708 -0.634139
H48   H     H_    0.424200 0.664255 0.892319 0.241923
H49   H     H_    0.366853 0.581314 0.866332 0.218319
H50   H     H_    0.373982 0.754016 0.966062 0.217760
C59   C     C_3   0.761894 0.402188 0.709286 -0.326497
C60   C     C_3   0.789687 0.511452 0.841813 -0.851426
H51   H     H_    0.808133 0.471697 0.924072 0.239166
H52   H     H_    0.764448 0.585883 0.894482 0.255474
H53   H     H_    0.818056 0.557724 0.808516 0.258311
H54   H     H_    0.741460 0.343113 0.751489 0.231610
H55   H     H_    0.788181 0.335234 0.651214 0.223235
C61   C     C_3   0.266936 0.706662 0.757646 -0.336612
C62   C     C_3   0.252591 0.644349 0.860498 -0.823066
H56   H     H_    0.220353 0.577401 0.806037 0.262177
H57   H     H_    0.283154 0.590370 0.894957 0.253049
H58   H     H_    0.243134 0.720679 0.960680 0.238786
H59   H     H_    0.294288 0.786085 0.823272 0.225627
H60   H     H_    0.235315 0.755766 0.720745 0.221382
N13   N     N_2   0.967091 0.152387 0.314011 -0.443849
H61   H     H_    0.989758 0.159776 0.244539 0.261860
C63   C     C_3   0.940282 0.029551 0.263507 -0.733526
H62   H     H_    0.965031 0.949833 0.221377 0.243795
H63   H     H_    0.925964 0.016839 0.356083 0.237662
H64   H     H_    0.909952 0.023501 0.172592 0.231740
N14   N     N_2   0.020197 0.824386 0.444158 -0.434649
H65   H     H_    0.983591 0.805425 0.401965 0.260310
C64   C     C_3   0.034043 0.955748 0.542596 -0.744390
H66   H     H_    0.005889 0.021986 0.522227 0.245636
H67   H     H_    0.069009 0.984648 0.522478 0.240376
H68   H     H_    0.038013 0.965131 0.659798 0.224459
N15   N     N_2   0.447481 0.877623 0.381768 -0.448874
H69   H     H_    0.454155 0.795550 0.296639 0.268807
C65   C     C_3   0.402163 0.872131 0.432924 -0.674063
H70   H     H_    0.404058 0.802945 0.490849 0.212720
H71   H     H_    0.372006 0.839279 0.337031 0.225404
H72   H     H_    0.394097 0.969569 0.508366 0.234717
N16   N     N_2   0.552820 0.116757 0.606002 -0.433747
H73   H     H_    0.577562 0.156029 0.565667 0.241215
C66   C     C_3   0.550027 0.183874 0.760436 -0.652232
H74   H     H_    0.512631 0.176564 0.782442 0.217160
H75   H     H_    0.561123 0.287169 0.794636 0.236825
H76   H     H_    0.575586 0.141499 0.827998 0.219723

loop_
_geom_bond_atom_site_label_1
_geom_bond_atom_site_label_2
_ccdc_geom_bond_type
C62   H58   S    
C21   H5    S    
C52   H22   S    
C20   N14   S    
N14   C64   S    
C8    C26   A    
N5    H9    S    
C14   C18   A    
C65   H70   S    
C31   H4    S    
C58   H50   S    
N15   H69   S    
C49   H21   S    
C51   H26   S    
C59   C60   S    
C22   H6    S    
C49   C50   S    
Cu2   O3    S    
N8    C54   S    
C45   N1    S    
C53   H28   S    
C54   H34   S    
C65   H71   S    
C43   N7    S    
C55   H36   S    
C36   N2    A    
N13   C63   S    
C50   H18   S    
C9    C22   A    
N11   C57   S    
C27   C29   D    
C31   N3    D    
C62   H56   S    
C3    C18   A    
C62   H57   S    
C66   H74   S    
C63   H64   S    
C23   O7    A    
C11   C23   S    
C12   C42   A    
N15   C65   S    
Cu1   N4    S    
C64   H66   S    
Cu1   Cu2   S    
C2    O4    A    
C5    C33   A    
C8    N10   S    
C57   H46   S    
C63   H62   S    
C34   O10   S    
C36   O11   S    
C24   O6    A    
C55   H38   S    
C1    C27   S    
C42   N6    S    
C64   H67   S    
C46   N2    S    
C54   H33   S    
C42   C44   A    
C60   H53   S    
C1    O3    A    
C48   H15   S    
C44   C46   A    
C51   H25   S    
C48   H14   S    
C56   H41   S    
C10   C21   A    
C59   H54   S    
C37   C61   S    
C13   C19   A    
C9    C35   A    
C61   H60   S    
N11   H43   S    
C65   H72   S    
C60   H52   S    
Cu1   O4    S    
C5    C7    A    
C50   H17   S    
C15   C26   A    
C6    C8    A    
C39   N12   S    
C3    C5    A    
C44   N8    S    
C6    C34   A    
N16   C66   S    
C1    O1    A    
C12   C40   A    
C47   H10   S    
C32   H3    S    
C29   C30   S    
C3    C9    A    
C14   C20   A    
C43   C45   A    
C28   H1    S    
Cu2   O2    S    
N7    H27   S    
C56   H40   S    
N9    C55   S    
C38   C59   S    
C11   C39   A    
C47   H11   S    
C4    C17   A    
C4    C6    A    
N7    C53   S    
C20   C22   A    
C35   O12   S    
C64   H68   S    
C57   H44   S    
C66   H76   S    
N5    C47   S    
C54   H32   S    
C4    C10   A    
C58   H48   S    
Cu1   O8    S    
N16   H73   S    
C48   H16   S    
Cu2   N3    S    
C34   N2    A    
N12   H47   S    
C66   H75   S    
C56   H42   S    
C16   C25   A    
C15   C17   A    
C40   N11   S    
C33   N1    A    
N9    H35   S    
C19   C21   A    
C14   C15   A    
C61   H59   S    
C31   C32   S    
C41   C43   A    
C25   H7    S    
C60   H51   S    
C58   H49   S    
C50   H19   S    
C26   H8    S    
Cu1   O1    S    
C10   C36   A    
C49   H20   S    
C27   H2    S    
C33   O9    S    
C52   H24   S    
N8    H31   S    
C12   C24   S    
N6    C48   S    
C7    C25   A    
C53   H29   S    
C13   C17   A    
C35   N1    A    
C23   O5    A    
N10   C56   S    
C37   C39   A    
N10   H39   S    
C38   C40   A    
C29   N16   S    
C52   H23   S    
C55   H37   S    
C28   C30   D    
C51   C52   S    
C19   N13   S    
C7    N9    S    
C11   C41   A    
N3    C51   S    
C63   H63   S    
Cu2   O7    S    
C47   H12   S    
C38   C46   A    
C24   O8    A    
C41   N5    S    
N6    H13   S    
C59   H55   S    
C16   C18   A    
C13   C16   A    
N14   H65   S    
C57   H45   S    
C32   N4    D    
C61   C62   S    
N4    C49   S    
C2    C28   S    
C53   H30   S    
C30   N15   S    
Cu2   O6    S    
N13   H61   S    
C37   C45   A    
Cu1   O5    S    
C2    O2    A    
N12   C58   S    
