data_str_m4_o1_o14_f0_acs.sym.114
_audit_creation_date              2012-12-11T14:43:57-0500
_audit_creation_method            fapswitch 2.2
_symmetry_space_group_name_H-M    P1
_symmetry_Int_Tables_number       1
_space_group_crystal_system       triclinic
_cell_length_a                    18.860224
_cell_length_b                    10.982838
_cell_length_c                    18.837447
_cell_angle_alpha                 89.981786
_cell_angle_beta                  89.67399
_cell_angle_gamma                 90.071722
_cell_volume                      3901.89945392

loop_
_atom_site_label
_atom_site_type_symbol
_atom_type_description
_atom_site_fract_x
_atom_site_fract_y
_atom_site_fract_z
_atom_type_partial_charge
C1    C     C_R   0.731713 0.381646 0.147463 0.537055
C2    C     C_R   0.268292 0.381654 0.852539 0.534672
C3    C     C_R   0.231713 0.881647 0.147463 0.537055
C4    C     C_R   0.768292 0.881654 0.852539 0.534672
C5    C     C_R   0.508835 0.389593 0.926614 -0.059276
C6    C     C_R   0.491063 0.389402 0.073422 -0.059288
C7    C     C_R   0.008835 0.889593 0.926614 -0.059276
C8    C     C_R   0.991062 0.889402 0.073422 -0.059288
C9    C     C_R   0.004329 0.999082 0.963435 -0.114348
C10   C     C_R   0.995493 0.998986 0.036629 -0.113798
C11   C     C_R   0.504329 0.499082 0.963435 -0.114348
C12   C     C_R   0.495493 0.498986 0.036629 -0.113798
C13   C     C_R   0.675865 0.941970 0.026732 -0.158311
C14   C     C_R   0.324150 0.942166 0.973253 -0.158201
C15   C     C_R   0.175864 0.441970 0.026732 -0.158311
C16   C     C_R   0.824150 0.442166 0.973253 -0.158201
C17   C     C_R   0.682141 0.915463 0.954323 -0.165419
C18   C     C_R   0.317881 0.915677 0.045676 -0.165966
C19   C     C_R   0.182141 0.415463 0.954323 -0.165419
C20   C     C_R   0.817881 0.415677 0.045676 -0.165966
C21   C     C_R   0.745611 0.941841 0.918647 0.005068
C22   C     C_R   0.254439 0.941917 0.081351 0.003645
C23   C     C_R   0.245611 0.441841 0.918647 0.005068
C24   C     C_R   0.754439 0.441917 0.081351 0.003645
C25   C     C_R   0.795486 0.016919 0.951657 -0.085299
C26   C     C_R   0.204615 0.016900 0.048331 -0.085435
C27   C     C_R   0.295486 0.516919 0.951657 -0.085299
C28   C     C_R   0.704615 0.516900 0.048331 -0.085435
C29   C     C_R   0.789967 0.045229 0.022905 0.097228
C30   C     C_R   0.210107 0.045142 0.977066 0.097277
C31   C     C_R   0.289967 0.545229 0.022905 0.097228
C32   C     C_R   0.710107 0.545141 0.977066 0.097277
C33   C     C_R   0.731529 0.000687 0.062720 0.046254
C34   C     C_R   0.268504 0.000716 0.937254 0.046533
C35   C     C_R   0.231529 0.500687 0.062720 0.046254
C36   C     C_R   0.768504 0.500716 0.937254 0.046533
C37   C     C_R   0.536858 0.057806 0.474411 0.194525
C38   C     C_R   0.532830 0.067138 0.548192 0.172324
C39   C     C_R   0.036858 0.557806 0.474411 0.194526
C40   C     C_R   0.032830 0.567138 0.548192 0.172325
C41   C     C_R   0.505160 0.172430 0.579010 -0.039781
C42   C     C_R   0.517075 0.159088 0.431494 -0.051511
C43   C     C_R   0.005160 0.672430 0.579010 -0.039780
C44   C     C_R   0.017075 0.659088 0.431494 -0.051512
C45   C     C_R   0.531279 0.155464 0.146801 0.527007
C46   C     C_R   0.468729 0.155523 0.853194 0.531040
C47   C     C_R   0.031279 0.655464 0.146801 0.527007
C48   C     C_R   0.968729 0.655523 0.853194 0.531040
C49   C     C_R   0.492174 0.277179 0.536894 0.216853
C50   C     C_R   0.493045 0.267714 0.463366 0.203625
C51   C     C_R   0.992174 0.777179 0.536894 0.216854
C52   C     C_R   0.993045 0.767714 0.463366 0.203625
C53   C     C_R   0.783991 0.029306 0.473500 -0.101479
C54   C     C_R   0.184048 0.911910 0.545492 -0.160295
C55   C     C_R   0.283991 0.529306 0.473500 -0.101479
C56   C     C_R   0.684048 0.411908 0.545492 -0.160295
C57   C     C_R   0.785278 0.012421 0.545820 -0.123686
C58   C     C_R   0.177834 0.900836 0.472878 -0.165243
C59   C     C_R   0.285278 0.512421 0.545820 -0.123686
C60   C     C_R   0.677835 0.400833 0.472878 -0.165241
C61   C     C_R   0.750604 0.912379 0.575685 0.092313
C62   C     C_R   0.238632 0.895614 0.429318 0.062283
C63   C     C_R   0.250604 0.412379 0.575685 0.092313
C64   C     C_R   0.738632 0.395615 0.429318 0.062284
C65   C     C_R   0.709984 0.833187 0.532282 0.104981
C66   C     C_R   0.306327 0.894579 0.459531 0.058378
C67   C     C_R   0.209984 0.333187 0.532282 0.104982
C68   C     C_R   0.806328 0.394584 0.459531 0.058378
C69   C     C_R   0.709394 0.850984 0.459319 -0.105503
C70   C     C_R   0.312286 0.906828 0.532779 -0.133501
C71   C     C_R   0.209394 0.350984 0.459319 -0.105502
C72   C     C_R   0.812286 0.406834 0.532778 -0.133501
C73   C     C_R   0.747266 0.947079 0.429976 0.030708
C74   C     C_R   0.251170 0.920467 0.575307 0.003673
C75   C     C_R   0.247266 0.447079 0.429976 0.030709
C76   C     C_R   0.751170 0.420468 0.575307 0.003672
C77   C     C_R   0.727432 0.021390 0.140077 0.566981
C78   C     C_R   0.272588 0.021358 0.859886 0.568352
C79   C     C_R   0.227432 0.521390 0.140077 0.566981
C80   C     C_R   0.772588 0.521358 0.859886 0.568352
C81   C     C_R   0.727865 0.373995 0.354348 0.576763
C82   C     C_R   0.270040 0.377218 0.647186 0.578974
C83   C     C_R   0.227865 0.873995 0.354348 0.576763
C84   C     C_R   0.770040 0.877218 0.647186 0.578974
C85   C     C_R   0.535547 0.155666 0.355888 0.559730
C86   C     C_R   0.470075 0.158517 0.647877 0.580262
C87   C     C_R   0.035548 0.655666 0.355888 0.559730
C88   C     C_R   0.970075 0.658517 0.647877 0.580261
C89   C     C_R   0.740613 0.975798 0.355838 0.557457
C90   C     C_R   0.258663 0.969834 0.646045 0.556260
C91   C     C_R   0.240613 0.475798 0.355838 0.557457
C92   C     C_R   0.758663 0.469834 0.646044 0.556260
C93   C     C_R   0.497147 0.164290 0.925477 0.006245
C94   C     C_R   0.502900 0.164177 0.074502 0.006131
C95   C     C_R   0.997147 0.664290 0.925477 0.006245
C96   C     C_R   0.002900 0.664177 0.074502 0.006131
C97   C     C_R   0.501606 0.276918 0.962351 0.026412
C98   C     C_R   0.498366 0.276840 0.037655 0.026030
C99   C     C_R   0.001606 0.776918 0.962351 0.026412
C100  C     C_R   0.998366 0.776840 0.037655 0.026030
C101  C     C_R   0.500342 0.055035 0.036360 -0.158560
C102  C     C_R   0.499812 0.055098 0.963589 -0.158487
C103  C     C_R   0.000342 0.555035 0.036360 -0.158560
C104  C     C_R   0.999812 0.555098 0.963589 -0.158487
Cr1   Cr    Cr6+3 0.772000 0.169640 0.250110 1.041215
Cr2   Cr    Cr6+3 0.228000 0.169640 0.749890 1.046811
Cr3   Cr    Cr6+3 0.272000 0.669640 0.250110 1.041216
Cr4   Cr    Cr6+3 0.728000 0.669640 0.749890 1.046811
Cr5   Cr    Cr6+3 0.614960 0.323350 0.249260 1.022252
Cr6   Cr    Cr6+3 0.385040 0.323350 0.750740 1.020445
Cr7   Cr    Cr6+3 0.114960 0.823350 0.249260 1.022252
Cr8   Cr    Cr6+3 0.885040 0.823350 0.750740 1.020445
Cr9   Cr    Cr6+3 0.616670 0.010620 0.250840 1.050269
Cr10  Cr    Cr6+3 0.383330 0.010620 0.749160 1.023743
Cr11  Cr    Cr6+3 0.116670 0.510620 0.250840 1.050269
Cr12  Cr    Cr6+3 0.883330 0.510620 0.749160 1.023743
H1    H     H_    0.502174 0.967328 0.062613 0.131110
H2    H     H_    0.498042 0.967426 0.937313 0.131263
H3    H     H_    0.002174 0.467328 0.062613 0.131110
H4    H     H_    0.998042 0.467426 0.937313 0.131263
H5    H     H_    0.811283 0.107935 0.451797 0.157956
H6    H     H_    0.136667 0.921732 0.577743 0.142627
H7    H     H_    0.311283 0.607935 0.451797 0.157955
H8    H     H_    0.636667 0.421727 0.577744 0.142626
H9    H     H_    0.816037 0.074631 0.578045 0.143117
H10   H     H_    0.125060 0.896615 0.450729 0.182137
H11   H     H_    0.316037 0.574631 0.578045 0.143117
H12   H     H_    0.625061 0.396608 0.450729 0.182135
H13   H     H_    0.679477 0.789682 0.425708 0.135959
H14   H     H_    0.364836 0.913873 0.555438 0.136351
H15   H     H_    0.179477 0.289682 0.425708 0.135959
H16   H     H_    0.864836 0.413883 0.555437 0.136351
H17   H     H_    0.520052 0.394916 0.870413 0.143315
H18   H     H_    0.479854 0.394551 0.129626 0.145703
H19   H     H_    0.020052 0.894917 0.870413 0.143315
H20   H     H_    0.979854 0.894551 0.129626 0.145703
H21   H     H_    0.007727 0.084494 0.934941 0.115510
H22   H     H_    0.992061 0.084321 0.065150 0.116890
H23   H     H_    0.507727 0.584494 0.934941 0.115510
H24   H     H_    0.492061 0.584321 0.065150 0.116890
H25   H     H_    0.628588 0.913321 0.054905 0.132038
H26   H     H_    0.371401 0.913624 0.945082 0.132332
H27   H     H_    0.128588 0.413321 0.054905 0.132038
H28   H     H_    0.871401 0.413624 0.945082 0.132332
H29   H     H_    0.638819 0.870927 0.927404 0.115143
H30   H     H_    0.361184 0.871275 0.072609 0.115042
H31   H     H_    0.138819 0.370927 0.927404 0.115143
H32   H     H_    0.861184 0.371275 0.072609 0.115042
H33   H     H_    0.842636 0.046844 0.923511 0.141242
H34   H     H_    0.157505 0.046765 0.076479 0.141763
H35   H     H_    0.342636 0.546844 0.923511 0.141242
H36   H     H_    0.657505 0.546765 0.076479 0.141763
O1    O     O_R   0.787540 0.042690 0.170470 -0.483787
O2    O     O_R   0.212460 0.042690 0.829530 -0.486486
O3    O     O_R   0.287540 0.542690 0.170470 -0.483787
O4    O     O_R   0.712460 0.542690 0.829530 -0.486486
O5    O     O_R   0.556540 0.252920 0.323970 -0.504226
O6    O     O_R   0.443460 0.252920 0.676030 -0.496440
O7    O     O_R   0.056540 0.752920 0.323970 -0.504226
O8    O     O_R   0.943460 0.752920 0.676030 -0.496440
O9    O     O_R   0.545870 0.051100 0.330840 -0.435883
O10   O     O_R   0.454130 0.051100 0.669160 -0.482246
O11   O     O_R   0.045870 0.551100 0.330840 -0.435883
O12   O     O_R   0.954130 0.551100 0.669160 -0.482246
O13   O     O_R   0.681340 0.959300 0.325510 -0.469191
O14   O     O_R   0.318660 0.959300 0.674490 -0.507736
O15   O     O_R   0.181340 0.459300 0.325510 -0.469191
O16   O     O_R   0.818660 0.459300 0.674490 -0.507736
O17   O     O_3   0.667880 0.167870 0.250070 -0.285019
O18   O     O_3   0.332120 0.167870 0.749930 -0.277271
O19   O     O_3   0.167880 0.667870 0.250070 -0.285019
O20   O     O_3   0.832120 0.667870 0.749930 -0.277272
O21   O     O_R   0.765660 0.292160 0.175050 -0.529124
O22   O     O_R   0.234340 0.292160 0.824950 -0.531073
O23   O     O_R   0.265660 0.792160 0.175050 -0.529124
O24   O     O_R   0.734340 0.792160 0.824950 -0.531073
O25   O     O_R   0.670190 0.408980 0.168550 -0.521598
O26   O     O_R   0.329810 0.408980 0.831450 -0.525810
O27   O     O_R   0.170190 0.908980 0.168550 -0.521598
O28   O     O_R   0.829810 0.908980 0.831450 -0.525810
O29   O     O_R   0.556580 0.251450 0.175160 -0.514107
O30   O     O_R   0.443420 0.251450 0.824840 -0.516969
O31   O     O_R   0.056580 0.751450 0.175160 -0.514107
O32   O     O_R   0.943420 0.751450 0.824840 -0.516969
O33   O     O_R   0.545920 0.049510 0.170320 -0.534201
O34   O     O_R   0.454080 0.049510 0.829680 -0.529155
O35   O     O_R   0.045920 0.549510 0.170320 -0.534201
O36   O     O_R   0.954080 0.549510 0.829680 -0.529155
O37   O     O_R   0.681390 0.957840 0.176710 -0.510628
O38   O     O_R   0.318610 0.957840 0.823290 -0.509273
O39   O     O_R   0.181390 0.457840 0.176710 -0.510628
O40   O     O_R   0.818610 0.457840 0.823290 -0.509273
O41   O     O_R   0.787500 0.044280 0.330990 -0.517290
O42   O     O_R   0.212500 0.044280 0.669010 -0.496620
O43   O     O_R   0.287500 0.544280 0.330990 -0.517290
O44   O     O_R   0.712500 0.544280 0.669010 -0.496619
O45   O     O_R   0.765610 0.293630 0.323860 -0.471264
O46   O     O_R   0.234390 0.293630 0.676140 -0.454089
O47   O     O_R   0.265610 0.793630 0.323860 -0.471263
O48   O     O_R   0.734390 0.793630 0.676140 -0.454089
O49   O     O_R   0.670140 0.410570 0.329080 -0.523091
O50   O     O_R   0.329860 0.410570 0.670920 -0.507764
O51   O     O_R   0.170140 0.910570 0.329080 -0.523091
O52   O     O_R   0.829860 0.910570 0.670920 -0.507764
N1    N     N_3   0.672722 0.730614 0.560950 -0.561686
H37   H     H_    0.619063 0.738970 0.548498 0.226871
H38   H     H_    0.691870 0.653253 0.535157 0.232143
N2    N     N_3   0.368663 0.886402 0.415986 -0.601684
H39   H     H_    0.398992 0.964751 0.424347 0.237037
H40   H     H_    0.398256 0.811650 0.433174 0.241805
N3    N     N_3   0.172722 0.230614 0.560950 -0.561686
H41   H     H_    0.119063 0.238970 0.548499 0.226871
H42   H     H_    0.191870 0.153254 0.535156 0.232143
N4    N     N_3   0.868663 0.386413 0.415985 -0.601685
H43   H     H_    0.898989 0.464766 0.424345 0.237034
H44   H     H_    0.898259 0.311665 0.433173 0.241806
N5    N     N_3   0.845928 0.113901 0.055052 -0.602420
H45   H     H_    0.821862 0.187690 0.079085 0.252883
H46   H     H_    0.879337 0.151874 0.016470 0.195954
N6    N     N_3   0.154157 0.113617 0.944909 -0.603024
H47   H     H_    0.178239 0.187532 0.920895 0.253017
H48   H     H_    0.120742 0.151421 0.983479 0.196161
N7    N     N_3   0.345928 0.613901 0.055052 -0.602420
H49   H     H_    0.321862 0.687690 0.079085 0.252883
H50   H     H_    0.379337 0.651874 0.016470 0.195954
N8    N     N_3   0.654157 0.613618 0.944909 -0.603024
H51   H     H_    0.678239 0.687532 0.920895 0.253017
H52   H     H_    0.620742 0.651421 0.983479 0.196161
O53   O     O_3   0.562021 0.952297 0.442972 -0.664190
H53   H     H_    0.561395 0.883575 0.476610 0.323457
O54   O     O_3   0.556475 0.974314 0.591267 -0.675961
H54   H     H_    0.524710 0.903764 0.582919 0.316545
O55   O     O_3   0.062021 0.452297 0.442972 -0.664189
H55   H     H_    0.061395 0.383575 0.476610 0.323456
O56   O     O_3   0.056475 0.474314 0.591267 -0.675961
H56   H     H_    0.024710 0.403763 0.582919 0.316545
O57   O     O_3   0.474492 0.388573 0.565649 -0.627225
H57   H     H_    0.503879 0.400206 0.608578 0.318759
O58   O     O_3   0.470701 0.367168 0.424611 -0.637596
H58   H     H_    0.450904 0.337915 0.379102 0.323614
O59   O     O_3   0.974492 0.888573 0.565649 -0.627225
H59   H     H_    0.003879 0.900206 0.608578 0.318758
O60   O     O_3   0.970702 0.867168 0.424611 -0.637596
H60   H     H_    0.950905 0.837915 0.379102 0.323614

loop_
_geom_bond_atom_site_label_1
_geom_bond_atom_site_label_2
_ccdc_geom_bond_type
C58   C62   A    
Cr1   O1    S    
C62   C83   S    
C14   H26   S    
C101  C102  A    
C56   C76   A    
C48   C95   S    
C55   C59   A    
C8    H20   S    
C85   O9    A    
C14   C18   A    
C87   O11   A    
O58   H58   S    
C78   O38   A    
C72   C76   A    
Cr5   O5    S    
C26   C30   A    
N6    H48   S    
C97   C98   A    
C45   O29   A    
Cr8   O32   S    
Cr3   O3    S    
Cr3   O19   S    
N1    H37   S    
C84   O48   A    
C5    H17   S    
C41   C86   S    
Cr12  O36   S    
C1    O21   A    
O53   H53   S    
C57   C61   A    
C7    C99   A    
Cr10  O38   S    
C43   C88   S    
C56   H8    S    
C91   O15   A    
C50   O58   S    
C16   H28   S    
C5    C11   A    
C64   C68   A    
C81   O45   A    
C95   C99   A    
Cr10  O10   S    
C65   N1    S    
Cr6   O26   S    
C59   H11   S    
O60   H60   S    
C29   C33   A    
C70   H14   S    
C66   N2    S    
Cr12  O20   S    
C25   H33   S    
O59   H59   S    
C15   C35   A    
C37   C42   A    
C11   H23   S    
Cr10  O18   S    
C3    O27   A    
C103  C104  A    
C77   O1    A    
C15   C19   A    
C9    H21   S    
C41   C49   A    
C40   C43   A    
C20   C24   A    
C94   C101  A    
N2    H39   S    
Cr2   O2    S    
C90   O42   A    
C70   C74   A    
C27   H35   S    
O56   H56   S    
C12   H24   S    
C67   N3    S    
C86   O10   A    
C13   H25   S    
Cr4   O44   S    
C44   C87   S    
C68   N4    S    
C9    C10   A    
C34   C78   S    
C67   C71   A    
Cr6   O6    S    
C75   C91   S    
Cr2   O46   S    
Cr11  O39   S    
C10   H22   S    
C44   C52   A    
C29   N5    S    
Cr12  O40   S    
Cr9   O33   S    
C54   C74   A    
O57   H57   S    
C90   O14   A    
Cr7   O27   S    
Cr2   O18   S    
C51   O59   S    
C1    O25   A    
C4    O28   A    
C40   O56   S    
C45   C94   S    
Cr3   O43   S    
N6    H47   S    
C58   H10   S    
Cr5   O17   S    
C60   C64   A    
C72   H16   S    
C63   C67   A    
N1    H38   S    
C25   C29   A    
C55   H7    S    
Cr9   O13   S    
C71   C75   A    
Cr3   O47   S    
C30   C34   A    
C63   C82   S    
C27   C31   A    
C51   C52   A    
C6    C98   A    
C28   C32   A    
C48   O36   A    
C38   C41   A    
C49   O57   S    
C36   C80   S    
C52   O60   S    
Cr7   O51   S    
C39   C40   A    
C48   O32   A    
C62   C66   A    
N4    H43   S    
C78   O2    A    
C81   O49   A    
C18   H30   S    
N5    H45   S    
C88   O12   A    
C71   H15   S    
C47   C96   S    
C19   H31   S    
N7    H49   S    
C56   C60   A    
C68   C72   A    
Cr1   O21   S    
Cr4   O48   S    
C19   C23   A    
C73   C89   S    
C13   C33   A    
C37   C38   A    
C3    O23   A    
Cr11  O35   S    
C92   O16   A    
C93   C97   A    
Cr8   O20   S    
N3    H41   S    
Cr4   O4    S    
C26   H34   S    
C16   C20   A    
Cr10  O14   S    
C89   O41   A    
Cr7   O31   S    
Cr2   O42   S    
Cr2   O22   S    
C39   O55   S    
N8    H51   S    
C42   C85   S    
C46   O34   A    
C69   C73   A    
C32   N8    S    
C86   O6    A    
C47   O31   A    
C89   O13   A    
C38   O54   S    
Cr1   O17   S    
C42   C50   A    
C15   H27   S    
Cr6   O18   S    
C83   O51   A    
N3    H42   S    
C76   C92   S    
C28   H36   S    
C23   C27   A    
Cr4   O20   S    
C4    O24   A    
C17   H29   S    
C31   N7    S    
C59   C63   A    
C35   C79   S    
Cr11  O19   S    
Cr8   O52   S    
C47   O35   A    
C45   O33   A    
C32   C36   A    
O54   H54   S    
C80   O4    A    
C95   C104  A    
C82   O50   A    
C54   C58   A    
Cr5   O29   S    
C7    C9    A    
C21   C25   A    
C53   C57   A    
Cr8   O8    S    
Cr11  O15   S    
C18   C22   A    
C30   N6    S    
C53   C73   A    
Cr12  O12   S    
C103  H3    S    
C24   C28   A    
C60   H12   S    
Cr7   O7    S    
C92   O44   A    
C61   C84   S    
C102  H2    S    
C93   C102  A    
C14   C34   A    
Cr9   O17   S    
C11   C12   A    
N7    H50   S    
C82   O46   A    
C39   C44   A    
N5    H46   S    
C79   O3    A    
Cr9   O37   S    
C91   O43   A    
C96   C100  A    
N8    H52   S    
Cr10  O34   S    
C99   C100  A    
C13   C17   A    
Cr6   O50   S    
C77   O37   A    
C101  H1    S    
C46   O30   A    
Cr5   O49   S    
C8    C100  A    
C55   C75   A    
C6    H18   S    
N2    H40   S    
C53   H5    S    
C16   C36   A    
C57   H9    S    
C6    C12   A    
C4    C21   S    
Cr1   O41   S    
C33   C77   S    
C20   H32   S    
C66   C70   A    
C46   C93   S    
Cr3   O23   S    
C43   C51   A    
C69   H13   S    
C65   C69   A    
C74   C90   S    
Cr4   O24   S    
C31   C35   A    
Cr1   O45   S    
C87   O7    A    
C5    C97   A    
N4    H44   S    
C88   O8    A    
C61   C65   A    
Cr11  O11   S    
Cr8   O28   S    
C17   C21   A    
C64   C81   S    
C7    H19   S    
C80   O40   A    
Cr9   O9    S    
Cr5   O25   S    
C54   H6    S    
Cr6   O30   S    
C1    C24   S    
C8    C10   A    
C49   C50   A    
C22   C26   A    
C96   C103  A    
C2    C23   S    
C85   O5    A    
C94   C98   A    
Cr12  O16   S    
C3    C22   S    
C79   O39   A    
C37   O53   S    
C2    O26   A    
C84   O52   A    
C83   O47   A    
C2    O22   A    
O55   H55   S    
C104  H4    S    
Cr7   O19   S    
