data_str_m2_o1_o28_f0_pcu.sym.217
_audit_creation_date              2012-12-10T18:02:10-0500
_audit_creation_method            fapswitch 2.2
_symmetry_space_group_name_H-M    P1
_symmetry_Int_Tables_number       1
_space_group_crystal_system       triclinic
_cell_length_a                    10.830958
_cell_length_b                    9.607062
_cell_length_c                    23.529282
_cell_angle_alpha                 89.595415
_cell_angle_beta                  93.045453
_cell_angle_gamma                 89.867595
_cell_volume                      2444.78095951

loop_
_atom_site_label
_atom_site_type_symbol
_atom_type_description
_atom_site_fract_x
_atom_site_fract_y
_atom_site_fract_z
_atom_type_partial_charge
C1    C     C_R   0.262378 0.500423 0.500524 0.776191
C2    C     C_R   0.737536 0.500346 0.498765 0.775511
C3    C     C_R   0.574362 0.614360 0.243844 0.406682
C4    C     C_R   0.421723 0.645090 0.752436 0.418721
C5    C     C_R   0.578236 0.597092 0.302963 -0.384285
C6    C     C_R   0.426173 0.624392 0.693716 -0.388663
C7    C     C_R   0.496894 0.506090 0.328836 -0.112992
C8    C     C_R   0.484077 0.506638 0.671549 -0.125983
C9    C     C_R   0.408564 0.432593 0.294918 0.213939
C10   C     C_R   0.531989 0.404179 0.709784 0.243415
C11   C     C_R   0.413060 0.438767 0.235647 -0.197607
C12   C     C_R   0.514038 0.416673 0.767926 -0.192124
C13   C     C_R   0.494486 0.529540 0.209585 0.197157
C14   C     C_R   0.463852 0.537980 0.790173 0.186319
C15   C     C_R   0.063516 0.376513 0.498309 -0.194445
C16   C     C_R   0.935867 0.628616 0.500695 -0.173719
C17   C     C_R   0.936136 0.377252 0.492965 -0.204168
C18   C     C_R   0.063945 0.628639 0.501426 -0.183641
C19   C     C_R   0.871382 0.502203 0.497057 -0.015003
C20   C     C_R   0.128378 0.501970 0.500544 -0.013736
C21   C     C_R   0.424012 0.075247 0.462146 0.247948
C22   C     C_R   0.575061 0.923722 0.538054 0.241782
C23   C     C_R   0.577840 0.073114 0.536800 0.247992
C24   C     C_R   0.427187 0.925594 0.460917 0.244247
C25   C     C_R   0.498358 0.500932 0.391205 0.848436
C26   C     C_R   0.497554 0.500378 0.609094 0.837209
C27   C     C_R   0.578771 0.543198 0.880913 0.606973
C28   C     C_R   0.385014 0.576378 0.119075 0.614691
C29   C     C_R   0.359185 0.563466 0.878830 0.690335
C30   C     C_R   0.594159 0.497475 0.120615 0.680714
C31   C     C_R   0.361659 0.576180 0.938993 -0.137912
C32   C     C_R   0.596297 0.509483 0.060495 -0.130950
C33   C     C_R   0.476531 0.552285 0.969758 -0.053739
C34   C     C_R   0.483741 0.546549 0.029968 -0.050226
C35   C     C_R   0.584665 0.533603 0.940319 -0.075096
C36   C     C_R   0.377503 0.576567 0.059517 -0.075255
C37   C     C_R   0.255535 0.608469 0.969904 0.420676
C38   C     C_R   0.704243 0.486162 0.029376 0.425159
C39   C     C_R   0.265817 0.608134 0.029423 -0.165958
C40   C     C_R   0.696673 0.503053 0.970209 -0.165361
Cu1   Cu    Cu3+1 0.500000 0.640660 0.500000 0.971543
Cu2   Cu    Cu3+1 0.500000 0.359340 0.500000 1.003286
H1    H     H_    0.185036 0.632251 0.052713 0.245820
H2    H     H_    0.778898 0.487934 0.946788 0.246649
H3    H     H_    0.642286 0.658615 0.329263 0.186186
H4    H     H_    0.388652 0.704375 0.665035 0.195840
H5    H     H_    0.347730 0.378753 0.209437 0.176915
H6    H     H_    0.549916 0.336338 0.796913 0.182436
H7    H     H_    0.110748 0.277663 0.500597 0.160422
H8    H     H_    0.887846 0.727243 0.502770 0.140449
H9    H     H_    0.888721 0.279853 0.486175 0.157906
H10   H     H_    0.112101 0.727325 0.503365 0.144081
N1    N     N_R   0.467021 0.553016 0.851227 -0.451582
N2    N     N_R   0.491765 0.536613 0.148321 -0.454333
N3    N     N_R   0.500000 0.852070 0.500000 -0.211384
N4    N     N_R   0.500000 0.147930 0.500000 -0.214458
O1    O     O_R   0.319640 0.618740 0.500000 -0.583890
O2    O     O_R   0.680360 0.381260 0.500000 -0.554733
O3    O     O_R   0.680360 0.618740 0.500000 -0.578681
O4    O     O_R   0.319640 0.381260 0.500000 -0.553122
O5    O     O_R   0.499960 0.618810 0.417880 -0.559089
O6    O     O_R   0.500040 0.381190 0.582120 -0.535683
O7    O     O_R   0.500040 0.618810 0.582120 -0.560238
O8    O     O_R   0.499960 0.381190 0.417880 -0.553928
O9    O     O_2   0.684160 0.539786 0.852723 -0.509962
O10   O     O_2   0.286102 0.615627 0.147744 -0.506409
O11   O     O_2   0.251198 0.556724 0.848003 -0.424404
O12   O     O_2   0.691736 0.445944 0.151704 -0.429406
S1    S     S_3+6 0.110749 0.662622 0.937693 0.104626
O13   O     O_2   0.047816 0.540796 0.908867 -0.205994
O14   O     O_2   0.028110 0.719140 0.981492 -0.242654
O15   O     O_3   0.133961 0.788559 0.889512 -0.420291
H11   H     H_    0.050919 0.808855 0.871663 0.395140
S2    S     S_3+6 0.851986 0.438643 0.060675 0.097185
O16   O     O_2   0.945728 0.424859 0.016178 -0.249494
O17   O     O_2   0.895210 0.548224 0.102397 -0.179857
O18   O     O_3   0.841614 0.284409 0.094380 -0.456290
H12   H     H_    0.923645 0.270138 0.114258 0.387470
S3    S     S_3+6 0.665395 0.748244 0.215382 0.063048
O19   O     O_2   0.609185 0.799773 0.159345 -0.223599
O20   O     O_2   0.674821 0.868100 0.256110 -0.294521
O21   O     O_3   0.808280 0.687186 0.205850 -0.416850
H13   H     H_    0.838861 0.652975 0.243855 0.340025
S4    S     S_3+6 0.369129 0.808915 0.775697 0.056997
O22   O     O_2   0.420593 0.841077 0.834691 -0.217016
O23   O     O_2   0.408264 0.921769 0.735966 -0.327267
O24   O     O_3   0.213946 0.807384 0.775183 -0.438223
H14   H     H_    0.186490 0.787523 0.735240 0.334879
N5    N     N_2   0.306731 0.366176 0.319424 -0.432594
H15   H     H_    0.273001 0.282307 0.296311 0.259481
C41   C     C_3   0.209102 0.461997 0.332836 -0.638718
H16   H     H_    0.129651 0.403953 0.348939 0.219973
H17   H     H_    0.175861 0.520814 0.294097 0.248607
H18   H     H_    0.242506 0.536207 0.366163 0.220331
N6    N     N_2   0.611959 0.298209 0.691953 -0.435306
H19   H     H_    0.603888 0.206203 0.714367 0.269861
C42   C     C_3   0.739493 0.342609 0.690739 -0.632687
H20   H     H_    0.798766 0.253188 0.680167 0.227221
H21   H     H_    0.772876 0.382169 0.733114 0.260439
H22   H     H_    0.748847 0.425417 0.658047 0.224510
N7    N     N_2   0.349203 0.151082 0.421357 -0.348070
H23   H     H_    0.387106 0.159975 0.382325 0.268758
C43   C     C_3   0.217253 0.126002 0.418982 -0.682180
H24   H     H_    0.189429 0.059612 0.382168 0.214027
H25   H     H_    0.168343 0.226121 0.412368 0.244719
H26   H     H_    0.187502 0.076503 0.458844 0.201753
N8    N     N_2   0.655318 0.846819 0.576548 -0.382229
H27   H     H_    0.747016 0.845562 0.567055 0.237655
C44   C     C_3   0.633071 0.854534 0.636636 -0.596874
H28   H     H_    0.699259 0.926495 0.658655 0.202945
H29   H     H_    0.648231 0.750386 0.656381 0.241026
H30   H     H_    0.537107 0.889176 0.643396 0.245091
N9    N     N_2   0.656856 0.145942 0.575992 -0.344718
H31   H     H_    0.631052 0.132789 0.616896 0.275239
C45   C     C_3   0.788578 0.128875 0.570506 -0.695003
H32   H     H_    0.828451 0.056292 0.603458 0.204544
H33   H     H_    0.834288 0.230535 0.577911 0.244110
H34   H     H_    0.809507 0.088824 0.527858 0.208557
N10   N     N_2   0.355509 0.850186 0.419184 -0.384210
H35   H     H_    0.261557 0.849724 0.423927 0.237250
C46   C     C_3   0.392521 0.860596 0.360967 -0.585314
H36   H     H_    0.350954 0.952956 0.339045 0.203657
H37   H     H_    0.359078 0.767670 0.337110 0.232431
H38   H     H_    0.494836 0.865505 0.359525 0.244937

loop_
_geom_bond_atom_site_label_1
_geom_bond_atom_site_label_2
_ccdc_geom_bond_type
C38   C40   A    
O24   H14   S    
N7    H23   S    
C37   S1    S    
C8    C26   S    
Cu1   Cu2   S    
C11   H5    S    
N6    H19   S    
S4    O24   S    
Cu1   O5    S    
C12   H6    S    
C3    S3    S    
Cu2   O2    S    
C42   H20   S    
C18   H10   S    
C23   N4    A    
O18   H12   S    
C24   N3    A    
C30   N2    A    
S2    O17   D    
C16   H8    S    
N9    H31   S    
C44   H29   S    
C23   N9    S    
C45   H32   S    
C15   C17   A    
S1    O14   D    
Cu1   N3    S    
C46   H38   S    
Cu2   N4    S    
C29   O11   S    
C45   H33   S    
S2    O18   S    
N8    H27   S    
C31   C33   A    
C2    O2    A    
C32   C38   A    
N5    C41   S    
Cu2   O6    S    
C18   C20   A    
C3    C13   A    
C3    C5    A    
C21   N7    S    
N7    C43   S    
N8    C44   S    
C21   N4    A    
C17   H9    S    
C42   H21   S    
N10   C46   S    
C15   C20   A    
S2    O16   D    
S4    O22   D    
Cu1   O3    S    
C4    C6    A    
C1    O4    A    
Cu2   O4    S    
C41   H16   S    
S3    O20   D    
C28   N2    A    
C2    O3    A    
C17   C19   A    
C39   H1    S    
C27   C35   A    
C5    H3    S    
C31   C37   A    
C25   O8    A    
C32   C34   A    
S1    O15   S    
C28   O10   S    
C26   O7    A    
C27   O9    S    
C1    O1    A    
C41   H17   S    
C4    S4    S    
C29   C31   A    
C45   H34   S    
C27   N1    A    
C33   C34   A    
C43   H25   S    
C25   O5    A    
C9    C11   A    
C46   H36   S    
C10   C12   A    
C8    C10   A    
C12   C14   A    
C44   H30   S    
Cu1   O7    S    
C9    N5    S    
Cu2   O8    S    
C42   H22   S    
C5    C7    A    
C13   N2    S    
C38   S2    S    
C7    C9    A    
C24   N10   S    
C6    H4    S    
C2    C19   S    
C36   C39   A    
S4    O23   D    
O15   H11   S    
C1    C20   S    
S3    O21   S    
C6    C8    A    
N10   H35   S    
N6    C42   S    
C22   N3    A    
C7    C25   S    
C35   C40   A    
C26   O6    A    
Cu1   O1    S    
C37   C39   A    
C44   H28   S    
C41   H18   S    
C30   C32   A    
C11   C13   A    
C29   N1    A    
C10   N6    S    
C16   C19   A    
C33   C35   A    
C43   H26   S    
C34   C36   A    
C15   H7    S    
C4    C14   A    
S1    O13   D    
C46   H37   S    
S3    O19   D    
C40   H2    S    
C14   N1    S    
C28   C36   A    
C16   C18   A    
O21   H13   S    
C21   C24   A    
C43   H24   S    
C22   C23   A    
N5    H15   S    
C30   O12   S    
C22   N8    S    
N9    C45   S    
