data_str_m3_o4_o10_f0_pcu.sym.155
_audit_creation_date              2013-03-05T16:41:05-0500
_audit_creation_method            fapswitch 2.2
_symmetry_space_group_name_H-M    P1
_symmetry_Int_Tables_number       1
_space_group_crystal_system       triclinic
_cell_length_a                    8.613199
_cell_length_b                    10.686371
_cell_length_c                    9.863023
_cell_angle_alpha                 90.150069
_cell_angle_beta                  98.698077
_cell_angle_gamma                 90.069777
_cell_volume                      897.385244467

loop_
_atom_site_label
_atom_site_type_symbol
_atom_site_description
_atom_site_fract_x
_atom_site_fract_y
_atom_site_fract_z
_atom_type_partial_charge
O1    O     O_R   0.500020 0.316790 0.614690 -0.602877
O2    O     O_R   0.500000 0.316760 0.385350 -0.617820
C1    C     C_R   0.495700 0.259988 0.499332 0.916360
O3    O     O_R   0.271760 0.500010 0.587850 -0.644011
O4    O     O_R   0.271740 0.499970 0.358500 -0.593112
C2    C     C_R   0.201457 0.495157 0.463955 0.848093
Zn1   Zn    Zn3+2 0.500010 0.500020 0.653130 0.972537
Zn2   Zn    Zn3+2 0.499990 0.499980 0.346870 1.007487
O5    O     O_R   0.500000 0.683240 0.614650 -0.622905
O6    O     O_R   0.499980 0.683210 0.385310 -0.640171
O7    O     O_R   0.728260 0.500030 0.641500 -0.608237
O8    O     O_R   0.728240 0.499990 0.412150 -0.559370
C3    C     C_R   0.495360 0.740038 0.499533 0.873616
C4    C     C_R   0.798518 0.494572 0.535438 1.003211
C5    C     C_2   0.038219 0.473459 0.444340 0.140598
C6    C     C_2   0.963600 0.491754 0.552695 -0.503834
H1    H     H_    0.024157 0.518785 0.653326 0.164676
C7    C     C_R   0.472330 0.064266 0.619208 -0.000555
C8    C     C_R   0.472128 0.128611 0.496628 -0.090339
C9    C     C_R   0.442573 0.064312 0.371247 -0.186081
H2    H     H_    0.430860 0.112800 0.273984 0.167276
C10   C     C_R   0.441923 0.934919 0.371420 -0.209690
H3    H     H_    0.429665 0.885734 0.274173 0.168712
C11   C     C_R   0.470928 0.871386 0.497021 -0.069555
C12   C     C_R   0.471039 0.936532 0.619481 0.057405
C13   C     C_3   0.579581 0.928036 0.752907 -0.547827
C14   C     C_3   0.582288 0.070403 0.752746 0.303877
H4    H     H_    0.519617 0.888957 0.835628 0.177659
H5    H     H_    0.693806 0.883336 0.742488 0.210011
H6    H     H_    0.528427 0.113616 0.837063 0.132464
C15   C     C_R   0.446290 0.398289 0.063809 0.225681
N1    N     N_R   0.498950 0.499140 0.142680 -0.107287
C16   C     C_R   0.567715 0.594751 0.081218 -0.060554
H7    H     H_    0.619989 0.672312 0.142547 0.148577
C17   C     C_R   0.568037 0.594594 0.937281 -0.107765
H8    H     H_    0.621165 0.671668 0.890305 0.146518
N2    N     N_R   0.498950 0.499180 0.857030 -0.108991
C18   C     C_R   0.446103 0.398412 0.921270 0.232250
C19   C     C_3   0.284808 0.344421 0.893875 -0.505875
C20   C     C_3   0.284926 0.344270 0.047852 -0.471251
H9    H     H_    0.197806 0.410151 0.838370 0.228321
H10   H     H_    0.283803 0.248915 0.848877 0.200529
H11   H     H_    0.198332 0.410051 0.081032 0.266817
H12   H     H_    0.283655 0.248643 0.091571 0.202197
N3    N     N_R   0.963970 0.424696 0.314123 0.230759
O9    O     O_R   0.967034 0.488421 0.202366 -0.408972
O10   O     O_R   0.899190 0.314310 0.306936 -0.383831
O11   O     O_3   0.730763 0.121362 0.741211 -0.717963
H13   H     H_    0.770163 0.081624 0.661816 0.343244

loop_
_geom_bond_atom_site_label_1
_geom_bond_atom_site_label_2
_geom_bond_distance
_ccdc_geom_bond_type
C14   O11   1.409818 S    
O4    Zn2   1.986548 S    
C11   C12   1.392385 A    
C1    C8    1.417909 S    
N2    C18   1.363033 A    
C13   H4    1.111545 S    
C15   N1    1.363839 A    
C15   C18   1.405626 A    
Zn2   O8    1.974009 S    
N1    C16   1.368423 A    
C16   H7    1.081523 S    
Zn1   N2    2.012514 S    
C19   H9    1.110788 S    
N3    O9    1.300819 A    
C15   C20   1.490353 S    
C14   H6    1.111418 S    
Zn1   O7    1.986548 S    
C13   C14   1.521543 S    
O4    C2    1.281240 A    
C7    C12   1.365058 A    
O3    Zn1   1.974009 S    
Zn2   O6    1.993459 S    
O11   H13   0.993832 S    
C16   C17   1.420076 A    
C9    C10   1.382746 A    
O2    C1    1.284285 A    
C19   H10   1.111372 S    
C10   C11   1.403290 A    
N3    O10   1.301481 A    
C18   C19   1.489850 S    
O7    C4    1.286520 A    
C4    C6    1.406619 S    
C2    C5    1.408809 S    
C5    N3    1.441284 S    
C5    C6    1.341782 D    
Zn2   N1    2.012592 S    
C20   H12   1.110870 S    
C9    H2    1.082775 S    
C13   H5    1.112720 S    
O3    C2    1.279992 A    
C7    C8    1.392203 A    
C19   C20   1.518528 S    
Zn1   O5    1.995375 S    
O5    C3    1.284164 A    
C10   H3    1.083505 S    
C17   N2    1.368233 A    
C12   C13   1.497600 S    
O1    Zn1   1.993460 S    
O6    C3    1.284375 A    
C20   H11   1.109707 S    
O2    Zn2   1.995374 S    
C7    C14   1.502704 S    
C8    C9    1.402192 A    
C3    C11   1.419299 S    
O8    C4    1.275238 A    
C6    H1    1.087270 S    
O1    C1    1.283704 A    
C17   H8    1.080584 S    
