data_str_m12_o9_o22_f0_bcu.sym.155
_audit_creation_date              2012-12-11T17:45:23-0500
_audit_creation_method            fapswitch 2.2
_symmetry_space_group_name_H-M    P1
_symmetry_Int_Tables_number       1
_space_group_crystal_system       triclinic
_cell_length_a                    15.044795
_cell_length_b                    14.909129
_cell_length_c                    15.232413
_cell_angle_alpha                 110.583454
_cell_angle_beta                  108.736491
_cell_angle_gamma                 108.650247
_cell_volume                      2643.75076625

loop_
_atom_site_label
_atom_site_type_symbol
_atom_type_description
_atom_site_fract_x
_atom_site_fract_y
_atom_site_fract_z
_atom_type_partial_charge
C1    C     C_R   0.974879 0.250275 0.062528 -0.124060
C2    C     C_R   0.303186 0.858812 0.307242 0.059519
C3    C     C_R   0.304262 0.500841 0.941283 -0.001945
C4    C     C_R   0.955868 0.504943 0.309495 0.060837
C5    C     C_R   0.686402 0.409555 0.946019 -0.125707
C6    C     C_R   0.078483 0.593545 0.787285 -0.127817
C7    C     C_R   0.782825 0.254886 0.689693 -0.117409
C8    C     C_R   0.998557 0.801949 0.094356 -0.141477
C9    C     C_R   0.087080 0.803015 0.001872 -0.134287
C10   C     C_R   0.687122 0.233349 0.774445 -0.138927
C11   C     C_R   0.777462 0.593467 0.031281 -0.144151
C12   C     C_R   0.299376 0.800277 0.211037 -0.091002
C13   C     C_R   0.996607 0.410053 0.697664 -0.168958
C14   C     C_R   0.675953 0.501744 0.961352 0.020224
C15   C     C_R   0.042337 0.502503 0.691775 0.064785
C16   C     C_R   0.681355 0.211078 0.675596 0.049706
C17   C     C_R   0.055252 0.866011 0.064185 0.065339
C18   C     C_R   0.611154 0.313156 0.194565 -0.113433
C19   C     C_R   0.716310 0.386847 0.279021 -0.121770
C20   C     C_R   0.783563 0.347829 0.319690 0.113864
C21   C     C_R   0.744179 0.234077 0.274039 -0.186184
C22   C     C_R   0.639108 0.160564 0.189051 -0.111391
C23   C     C_R   0.211825 0.408894 0.908257 -0.164991
C24   C     C_R   0.572526 0.200069 0.149431 -0.104459
C25   C     C_R   0.926017 0.421107 0.502931 -0.238983
C26   C     C_R   0.026298 0.502062 0.594202 0.068503
C27   C     C_R   0.097465 0.590003 0.593759 0.012682
C28   C     C_R   0.067786 0.592079 0.499804 -0.235403
C29   C     C_R   0.968768 0.510206 0.408300 0.063750
C30   C     C_R   0.894813 0.426247 0.410156 0.015834
C31   C     C_R   0.214786 0.789199 0.731975 -0.185602
C32   C     C_R   0.313553 0.878266 0.818000 -0.119449
C33   C     C_R   0.400658 0.862167 0.859175 -0.097214
C34   C     C_R   0.006136 0.594588 0.302740 -0.141253
C35   C     C_R   0.388860 0.756867 0.814852 -0.127385
C36   C     C_R   0.289235 0.666687 0.730446 -0.140461
C37   C     C_R   0.201577 0.682516 0.688180 0.121815
C38   C     C_R   0.173013 0.085729 0.516580 -0.137436
C39   C     C_R   0.253201 0.089666 0.488131 -0.158890
C40   C     C_R   0.300453 0.024108 0.498645 0.122299
C41   C     C_R   0.271361 0.960288 0.544373 -0.182717
C42   C     C_R   0.185981 0.950574 0.565123 -0.141453
C43   C     C_R   0.136392 0.012875 0.550578 -0.093739
C44   C     C_R   0.490625 0.128245 0.566809 -0.239496
C45   C     C_R   0.300517 0.591991 0.000000 0.004053
C46   C     C_R   0.586970 0.134932 0.573341 0.071526
C47   C     C_R   0.589231 0.058606 0.488378 0.008005
C48   C     C_R   0.493746 0.975646 0.399732 -0.225773
C49   C     C_R   0.395924 0.960961 0.396843 0.061704
C50   C     C_R   0.394266 0.038184 0.482480 0.022232
C51   C     C_R   0.732345 0.091139 0.435968 -0.186857
C52   C     C_R   0.833366 0.103407 0.452502 -0.132330
C53   C     C_R   0.888564 0.076744 0.523395 -0.120317
C54   C     C_R   0.841555 0.034234 0.575301 -0.101785
C55   C     C_R   0.740754 0.022403 0.559567 -0.099132
C56   C     C_R   0.916790 0.411036 0.214122 -0.130118
C57   C     C_R   0.687428 0.054483 0.492599 0.119606
C58   C     C_3   0.476800 0.400601 0.843579 -0.396104
C59   C     C_3   0.373605 0.397824 0.841998 -0.493116
C60   C     C_3   0.567751 0.499830 0.047735 -0.480337
C61   C     C_3   0.576913 0.606573 0.950536 -0.406524
C62   C     C_3   0.576170 0.502225 0.949790 0.342968
C63   C     C_3   0.401947 0.502330 0.941937 0.271360
C64   C     C_3   0.467866 0.505037 0.046439 0.356616
C65   C     C_3   0.470302 0.602737 0.938153 -0.388199
C66   C     C_R   0.165084 0.055550 0.804441 -0.124198
C67   C     C_R   0.208950 0.798335 0.302505 -0.143140
C68   C     C_R   0.128041 0.059362 0.877750 -0.171243
C69   C     C_R   0.197632 0.135317 0.987905 0.112910
C70   C     C_R   0.305205 0.206207 0.024059 -0.150924
C71   C     C_R   0.342132 0.201244 0.949987 -0.170320
C72   C     C_R   0.272162 0.126468 0.840356 -0.118052
C73   C     C_R   0.165158 0.039458 0.081345 -0.226870
C74   C     C_R   0.089287 0.983150 0.103429 0.056185
C75   C     C_R   0.038856 0.037108 0.147637 0.014369
C76   C     C_R   0.060743 0.139331 0.158801 -0.230647
C77   C     C_R   0.100427 0.170022 0.096475 0.063463
C78   C     C_R   0.069768 0.254643 0.975417 -0.133101
C79   C     C_R   0.161325 0.123880 0.063921 0.024113
C80   C     C_R   0.841707 0.941671 0.082421 -0.131341
C81   C     C_R   0.755346 0.900103 0.099499 -0.166675
C82   C     C_R   0.773895 0.899270 0.195175 -0.095188
C83   C     C_R   0.878977 0.941987 0.274513 -0.108188
C84   C     C_R   0.965538 0.988381 0.259578 -0.213763
C85   C     C_R   0.947434 0.985007 0.162256 0.121903
C86   C     C_R   0.054183 0.226504 0.049312 0.060844
H1    H     H_    0.939607 0.236946 0.111018 0.093279
H2    H     H_    0.119543 0.679300 0.812568 0.112508
H3    H     H_    0.806749 0.255657 0.630726 0.119828
H4    H     H_    0.979720 0.827532 0.157691 0.119764
H5    H     H_    0.142981 0.830007 0.974695 0.091614
H6    H     H_    0.621499 0.200600 0.788633 0.095216
H7    H     H_    0.798515 0.678968 0.068109 0.115233
H8    H     H_    0.969136 0.326208 0.640090 0.111853
H9    H     H_    0.491102 0.143071 0.083878 0.109068
H10   H     H_    0.559702 0.344066 0.164730 0.109527
H11   H     H_    0.745049 0.474232 0.313316 0.117795
H12   H     H_    0.352087 0.828893 0.181150 0.087302
H13   H     H_    0.795440 0.202565 0.302994 0.113241
H14   H     H_    0.609388 0.073012 0.153896 0.106544
H15   H     H_    0.868293 0.357838 0.505860 0.133187
H16   H     H_    0.125440 0.656157 0.497675 0.133479
H17   H     H_    0.148030 0.802891 0.700203 0.113321
H18   H     H_    0.322889 0.959859 0.852244 0.129143
H19   H     H_    0.477584 0.931420 0.924867 0.097718
H20   H     H_    0.457797 0.746107 0.845397 0.101813
H21   H     H_    0.281082 0.585463 0.696465 0.103678
H22   H     H_    0.070725 0.005911 0.567200 0.091551
H23   H     H_    0.184324 0.324256 0.853058 0.105822
H24   H     H_    0.137623 0.137504 0.510095 0.104524
H25   H     H_    0.279814 0.145022 0.459977 0.117456
H26   H     H_    0.311703 0.914391 0.559241 0.126034
H27   H     H_    0.159470 0.896059 0.593955 0.109994
H28   H     H_    0.490821 0.187765 0.633443 0.128552
H29   H     H_    0.497933 0.915544 0.337979 0.151063
H30   H     H_    0.691638 0.115448 0.383738 0.126290
H31   H     H_    0.870127 0.135700 0.412231 0.120251
H32   H     H_    0.967885 0.089429 0.538067 0.094453
H33   H     H_    0.884280 0.012894 0.629554 0.104073
H34   H     H_    0.038181 0.680281 0.359156 0.098150
H35   H     H_    0.706556 0.993329 0.603170 0.110297
H36   H     H_    0.472693 0.322049 0.834640 0.149227
H37   H     H_    0.480582 0.404799 0.773250 0.170773
H38   H     H_    0.322308 0.391885 0.766536 0.180368
H39   H     H_    0.328026 0.322829 0.841835 0.173492
H40   H     H_    0.563752 0.423652 0.046358 0.125178
H41   H     H_    0.417764 0.432561 0.047606 0.079616
H42   H     H_    0.642723 0.680507 0.028055 0.179166
H43   H     H_    0.589957 0.613881 0.884913 0.157622
H44   H     H_    0.424627 0.594349 0.859615 0.154574
H45   H     H_    0.355099 0.677430 0.032850 0.093125
H46   H     H_    0.488943 0.681889 0.002524 0.177709
H47   H     H_    0.641581 0.569197 0.123754 0.209217
H48   H     H_    0.301668 0.122661 0.783806 0.129148
H49   H     H_    0.110888 0.995235 0.720483 0.104617
H50   H     H_    0.045756 0.001376 0.849227 0.117382
H51   H     H_    0.360675 0.262234 0.109170 0.122846
H52   H     H_    0.425374 0.253517 0.977238 0.106650
H53   H     H_    0.212655 0.005726 0.057029 0.126172
H54   H     H_    0.025691 0.181395 0.197285 0.127462
H55   H     H_    0.867490 0.326956 0.190094 0.107297
H56   H     H_    0.826555 0.941605 0.007892 0.112002
H57   H     H_    0.674016 0.867541 0.038184 0.112823
H58   H     H_    0.706913 0.865117 0.207577 0.152010
H59   H     H_    0.893455 0.939357 0.347564 0.130140
H60   H     H_    0.046539 0.022369 0.320783 0.132040
H61   H     H_    0.176267 0.821085 0.354024 0.119137
H62   H     H_    0.126342 0.251625 0.947789 0.127041
H63   H     H_    0.624248 0.327582 0.913031 0.082638
N1    N     N_R   0.947080 0.293830 0.002870 -0.044275
N2    N     N_R   0.054040 0.556820 0.847890 -0.043882
N3    N     N_R   0.848290 0.293830 0.791110 -0.044000
N4    N     N_R   0.995680 0.706170 0.053910 -0.042445
N5    N     N_R   0.052920 0.706170 0.997130 -0.042423
N6    N     N_R   0.791050 0.293830 0.847890 -0.040837
N7    N     N_R   0.846330 0.556820 0.053910 -0.038864
N8    N     N_R   0.997640 0.443180 0.791110 -0.037822
N9    N     N_R   0.208950 0.706170 0.152110 -0.039979
N10   N     N_R   0.153670 0.443180 0.946090 -0.035685
N11   N     N_R   0.002360 0.556820 0.208890 -0.037824
N12   N     N_R   0.210070 0.556820 0.002870 -0.042996
N13   N     N_R   0.945960 0.443180 0.152110 -0.040957
N14   N     N_R   0.151710 0.706170 0.208890 -0.041049
N15   N     N_R   0.004320 0.293830 0.946090 -0.045148
N16   N     N_R   0.789930 0.443180 0.997130 -0.035638
Ni1   Ni    Ni4+2 0.869690 0.369690 0.000000 0.216227
Ni2   Ni    Ni4+2 0.130310 0.630310 0.000000 0.214364
Ni3   Ni    Ni4+2 0.000970 0.369690 0.869780 0.216605
Ni4   Ni    Ni4+2 0.999030 0.630310 0.130220 0.214595
Cl1   Cl    Cl    0.507609 0.624057 0.168371 -0.720388

loop_
_geom_bond_atom_site_label_1
_geom_bond_atom_site_label_2
_ccdc_geom_bond_type
C58   C62   S    
C66   C68   A    
C55   H35   S    
C1    H1    S    
N16   Ni1   S    
C18   H10   S    
C73   C74   A    
C54   C55   A    
C3    C23   A    
C35   C36   A    
C2    C12   A    
C9    H5    S    
C63   C65   S    
C65   H44   S    
C19   H11   S    
C6    H2    S    
C20   C30   S    
C53   C54   A    
C78   N15   A    
C26   C27   A    
C80   C85   A    
C18   C24   A    
N2    N8    A    
C28   C29   A    
C38   C39   A    
C21   H13   S    
C11   C14   A    
N2    Ni2   S    
C66   H49   S    
N6    Ni1   S    
C14   C62   S    
C56   N13   A    
N7    Ni4   S    
C25   C30   A    
C5    H63   S    
N10   Ni3   S    
C60   C62   S    
C18   C19   A    
C41   C42   A    
C45   N12   A    
C6    C15   A    
C83   H59   S    
C75   C85   S    
C66   C72   A    
C83   C84   A    
C68   C69   A    
C41   H26   S    
C23   N10   A    
N11   Ni4   S    
C32   H18   S    
C70   C71   A    
C51   C57   A    
C5    N16   A    
C38   H24   S    
C12   H12   S    
C4    C29   S    
C78   H62   S    
C52   H31   S    
C78   C86   A    
C39   H25   S    
C10   H6    S    
N13   Ni1   S    
C21   C22   A    
C4    C56   A    
C36   H21   S    
C61   C62   S    
N8    Ni3   S    
C13   N8    A    
N3    Ni3   S    
C44   C46   A    
N9    Ni2   S    
C81   C82   A    
C71   H52   S    
C77   C79   A    
C34   H34   S    
C23   H23   S    
C4    C34   A    
C58   H36   S    
N1    Ni1   S    
C22   H14   S    
C74   C75   A    
C51   C52   A    
C34   N11   A    
C68   H50   S    
C33   H19   S    
C76   C77   A    
C28   H16   S    
C82   H58   S    
C2    C67   A    
C24   H9    S    
C16   C46   S    
C39   C40   A    
C11   H7    S    
C53   H32   S    
C15   C26   S    
C73   H53   S    
C58   C59   S    
C3    C45   A    
C7    N3    A    
C31   H17   S    
C75   C76   A    
C29   C30   A    
C2    C49   S    
C67   N14   A    
C47   C57   S    
C42   H27   S    
C72   H48   S    
C47   C48   A    
N3    N6    A    
N15   Ni3   S    
C64   H41   S    
N10   N12   A    
C58   H37   S    
C1    N1    A    
C84   C85   A    
C8    N4    A    
C5    C14   A    
N12   Ni2   S    
C11   N7    A    
C48   H29   S    
C6    N2    A    
N9    N14   A    
C9    C17   A    
C48   C49   A    
C77   C86   S    
C45   H45   S    
C3    C63   S    
C55   C57   A    
C67   H61   S    
C17   C74   S    
C59   H38   S    
C22   C24   A    
N5    Ni2   S    
C69   C79   S    
C8    H4    S    
C42   C43   A    
C56   H55   S    
C76   H54   S    
C65   H46   S    
C52   C53   A    
C44   C50   A    
C1    C86   A    
C46   C47   A    
C36   C37   A    
C59   C63   S    
C31   C32   A    
C7    C16   A    
C51   H30   S    
C80   C81   A    
C73   C79   A    
C10   N6    A    
C9    N5    A    
C61   H43   S    
C59   H39   S    
N1    N15   A    
C80   H56   S    
C8    C17   A    
C13   H8    S    
C60   C64   S    
C12   N9    A    
C32   C33   A    
C19   C20   A    
C13   C15   A    
C25   C26   A    
C38   C43   A    
C35   H20   S    
C10   C16   A    
C25   H15   S    
N7    N16   A    
C27   C37   S    
C40   C50   S    
C60   H40   S    
C33   C35   A    
C61   H42   S    
C43   H22   S    
C61   C65   S    
C64   Cl1   S    
C69   C70   A    
N14   Ni4   S    
C44   H28   S    
C63   C64   S    
C31   C37   A    
C81   H57   S    
C71   C72   A    
C20   C21   A    
C70   H51   S    
C49   C50   A    
N4    Ni4   S    
C27   C28   A    
C40   C41   A    
C84   H60   S    
C82   C83   A    
N4    N5    A    
C54   H33   S    
C60   H47   S    
N11   N13   A    
C7    H3    S    
