data_str_m12_o22_o22_f0_bcu.sym.65
_audit_creation_date              2012-12-11T15:55:02-0500
_audit_creation_method            fapswitch 2.2
_symmetry_space_group_name_H-M    P1
_symmetry_Int_Tables_number       1
_space_group_crystal_system       triclinic
_cell_length_a                    17.617254
_cell_length_b                    24.403627
_cell_length_c                    14.921475
_cell_angle_alpha                 89.940493
_cell_angle_beta                  125.202848
_cell_angle_gamma                 89.908499
_cell_volume                      5241.87176343

loop_
_atom_site_label
_atom_site_type_symbol
_atom_type_description
_atom_site_fract_x
_atom_site_fract_y
_atom_site_fract_z
_atom_type_partial_charge
C1    C     C_R   0.902495 0.879503 0.094375 -0.172243
C2    C     C_R   0.902061 0.119956 0.094219 -0.167821
C3    C     C_R   0.402523 0.379458 0.094391 -0.172562
C4    C     C_R   0.402039 0.619907 0.094208 -0.167610
C5    C     C_R   0.055897 0.846980 0.909317 0.313345
C6    C     C_R   0.055958 0.153024 0.909131 0.315277
C7    C     C_R   0.555576 0.346827 0.909485 0.304045
C8    C     C_R   0.556259 0.652872 0.908958 0.325009
C9    C     C_R   0.146028 0.152056 0.091718 -0.227461
C10   C     C_R   0.145763 0.847730 0.091925 -0.236431
C11   C     C_R   0.646196 0.652012 0.091630 -0.228550
C12   C     C_R   0.645546 0.347673 0.092000 -0.235537
C13   C     C_R   0.323763 0.000192 0.297310 -0.010874
C14   C     C_R   0.823787 0.500200 0.297090 -0.010677
C15   C     C_R   0.050152 0.000199 0.726160 0.027995
C16   C     C_R   0.550098 0.499651 0.726090 0.028061
C17   C     C_R   0.121430 0.816819 0.002272 0.028111
C18   C     C_R   0.121897 0.182882 0.001933 0.028308
C19   C     C_R   0.621034 0.316651 0.002440 0.031420
C20   C     C_R   0.622236 0.682730 0.001756 0.024820
C21   C     C_3   0.971401 0.992047 0.429507 -0.432392
C22   C     C_3   0.135274 0.953823 0.550459 -0.448991
C23   C     C_3   0.634965 0.545868 0.550083 -0.447176
C24   C     C_3   0.471397 0.507693 0.429411 -0.431960
C25   C     C_3   0.964083 0.988476 0.526525 0.097049
C26   C     C_3   0.130590 0.954139 0.651126 0.101394
C27   C     C_3   0.630404 0.545517 0.650831 0.103136
C28   C     C_3   0.464044 0.511479 0.526371 0.090474
C29   C     C_3   0.109479 0.055738 0.532256 -0.405344
C30   C     C_3   0.610025 0.443972 0.532830 -0.406847
C31   C     C_3   0.073483 0.000443 0.469887 0.307893
C32   C     C_3   0.573565 0.499254 0.469918 0.308402
C33   C     C_3   0.062007 0.000511 0.636158 0.290912
C34   C     C_3   0.561989 0.499287 0.636117 0.292001
C35   C     C_R   0.809382 0.120510 0.910839 -0.125275
C36   C     C_R   0.809643 0.879300 0.910834 -0.124338
C37   C     C_R   0.309364 0.620455 0.910827 -0.125843
C38   C     C_R   0.309658 0.379255 0.910850 -0.123746
C39   C     C_3   0.098972 0.056735 0.627068 -0.387873
C40   C     C_3   0.599204 0.442977 0.627417 -0.387745
C41   C     C_3   0.651725 0.163714 0.951416 0.087114
C42   C     C_3   0.653047 0.835883 0.952861 0.122542
C43   C     C_3   0.151811 0.663824 0.951363 0.088155
C44   C     C_3   0.153003 0.335985 0.952998 0.122758
C45   C     C_3   0.100895 0.716374 0.951828 0.061540
C46   C     C_3   0.101945 0.283544 0.953114 0.038084
C47   C     C_3   0.600712 0.216197 0.952005 0.062587
C48   C     C_3   0.602074 0.783384 0.952869 0.037172
C49   C     C_3   0.266925 0.727907 0.948668 -0.458390
C50   C     C_3   0.266611 0.271712 0.947196 -0.454766
C51   C     C_3   0.766733 0.227924 0.948818 -0.456662
C52   C     C_3   0.766807 0.771722 0.947090 -0.456500
C53   C     C_3   0.797692 0.195664 0.129211 0.052876
C54   C     C_3   0.799761 0.802538 0.129053 0.034203
C55   C     C_3   0.297845 0.695762 0.129102 0.055544
C56   C     C_3   0.299685 0.302598 0.129181 0.031959
C57   C     C_3   0.756659 0.177982 0.007679 0.233382
C58   C     C_3   0.757716 0.821194 0.007650 0.229011
C59   C     C_3   0.256759 0.678023 0.007594 0.232723
C60   C     C_3   0.257646 0.321225 0.007754 0.229431
C61   C     C_3   0.170381 0.765928 0.007382 0.246803
C62   C     C_3   0.171064 0.233522 0.007036 0.241526
C63   C     C_3   0.670095 0.265791 0.007561 0.248377
C64   C     C_3   0.671296 0.733405 0.006844 0.240178
C65   C     C_3   0.210260 0.776975 0.940346 -0.477987
C66   C     C_3   0.209742 0.222812 0.938620 -0.475667
C67   C     C_3   0.709935 0.276916 0.940503 -0.481601
C68   C     C_3   0.710053 0.722755 0.938498 -0.472131
C69   C     C_3   0.254903 0.751212 0.128919 0.082571
C70   C     C_3   0.256605 0.247204 0.128472 0.137685
C71   C     C_3   0.754670 0.251079 0.129085 0.082217
C72   C     C_3   0.756757 0.747115 0.128298 0.137129
C73   C     C_3   0.483303 0.978019 0.349268 -0.194419
C74   C     C_3   0.458179 0.062032 0.426064 -0.208940
C75   C     C_3   0.983345 0.477692 0.349244 -0.194191
C76   C     C_3   0.958428 0.562088 0.425256 -0.209176
C77   C     C_R   0.744592 0.955144 0.696513 -0.166863
C78   C     C_R   0.746348 0.046648 0.698254 -0.163866
C79   C     C_R   0.244629 0.455146 0.696465 -0.167820
C80   C     C_R   0.246391 0.546645 0.698202 -0.162976
C81   C     C_3   0.584292 0.969757 0.450118 -0.377974
C82   C     C_3   0.563637 0.061951 0.511039 -0.421483
C83   C     C_3   0.084318 0.469469 0.450170 -0.377496
C84   C     C_3   0.063874 0.561952 0.510349 -0.421723
C85   C     C_3   0.442605 0.965565 0.493864 0.627609
C86   C     C_3   0.942568 0.465949 0.493911 0.627511
C87   C     C_3   0.423071 0.000315 0.389705 0.102038
C88   C     C_3   0.923134 0.500358 0.389461 0.101994
C89   C     C_3   0.599173 0.002458 0.547642 0.216260
C90   C     C_3   0.099267 0.502469 0.547426 0.216050
C91   C     C_3   0.544860 0.976425 0.589776 -0.436028
C92   C     C_3   0.044886 0.476743 0.589724 -0.436039
C93   C     C_R   0.053540 0.045640 0.306213 -0.156248
C94   C     C_R   0.053209 0.954652 0.306761 -0.153707
C95   C     C_R   0.553402 0.545152 0.306820 -0.156188
C96   C     C_R   0.553422 0.454167 0.306185 -0.153514
C97   C     C_R   0.813926 0.865958 0.004763 0.059203
C98   C     C_R   0.813271 0.133372 0.004661 0.053670
C99   C     C_R   0.313947 0.365919 0.004799 0.058514
C100  C     C_R   0.313258 0.633330 0.004635 0.054475
C101  C     C_R   0.696685 0.001644 0.638827 0.069485
C102  C     C_R   0.196775 0.501644 0.638690 0.069089
C103  C     C_R   0.071833 0.000294 0.370528 0.036247
C104  C     C_R   0.571945 0.499407 0.370579 0.036015
C105  C     C_R   0.268056 0.953952 0.258504 -0.125911
C106  C     C_R   0.267115 0.046191 0.255940 -0.158156
C107  C     C_R   0.768065 0.453955 0.258446 -0.126149
C108  C     C_R   0.767106 0.546184 0.255739 -0.157765
C109  C     C_R   0.022894 0.045926 0.755669 -0.130412
C110  C     C_R   0.020795 0.954205 0.752498 -0.174016
C111  C     C_R   0.520708 0.545712 0.752354 -0.176126
C112  C     C_R   0.522891 0.453983 0.755696 -0.129031
H1    H     H_    0.932714 0.874754 0.180408 0.118571
H2    H     H_    0.931944 0.124225 0.180212 0.118703
H3    H     H_    0.432752 0.374695 0.180428 0.119050
H4    H     H_    0.431920 0.624165 0.180199 0.118225
H5    H     H_    0.942700 0.953683 0.380572 0.147387
H6    H     H_    0.110880 0.913244 0.509822 0.133816
H7    H     H_    0.610138 0.586459 0.509130 0.133213
H8    H     H_    0.442305 0.545987 0.379873 0.146465
H9    H     H_    0.944827 0.945452 0.530241 0.117144
H10   H     H_    0.102328 0.913713 0.652811 0.105199
H11   H     H_    0.602068 0.585997 0.652419 0.102843
H12   H     H_    0.444705 0.554581 0.529680 0.113565
H13   H     H_    0.069082 0.090937 0.477856 0.155468
H14   H     H_    0.183570 0.061746 0.563851 0.166298
H15   H     H_    0.684243 0.438018 0.564738 0.165699
H16   H     H_    0.570127 0.408747 0.478746 0.156228
H17   H     H_    0.050335 0.090510 0.610842 0.154132
H18   H     H_    0.166260 0.067176 0.704970 0.163819
H19   H     H_    0.666417 0.432360 0.705485 0.163778
H20   H     H_    0.550576 0.409318 0.611135 0.156795
H21   H     H_    0.647459 0.130655 0.999563 0.173771
H22   H     H_    0.649512 0.868502 0.002224 0.172802
H23   H     H_    0.147492 0.630834 0.999589 0.174154
H24   H     H_    0.149551 0.368657 0.002333 0.172329
H25   H     H_    0.048560 0.727430 0.864995 0.187014
H26   H     H_    0.048923 0.273095 0.866207 0.187121
H27   H     H_    0.548273 0.227271 0.865202 0.187103
H28   H     H_    0.549170 0.772939 0.865934 0.187014
H29   H     H_    0.244394 0.717896 0.864111 0.181827
H30   H     H_    0.243442 0.282315 0.862582 0.179223
H31   H     H_    0.744264 0.217950 0.864270 0.181425
H32   H     H_    0.743616 0.782345 0.862476 0.179521
H33   H     H_    0.752845 0.127947 0.826547 0.112305
H34   H     H_    0.753089 0.872196 0.826474 0.109712
H35   H     H_    0.252828 0.627880 0.826530 0.112434
H36   H     H_    0.253091 0.372156 0.826491 0.109696
H37   H     H_    0.153995 0.784092 0.852583 0.173753
H38   H     H_    0.152875 0.216436 0.850940 0.169406
H39   H     H_    0.653641 0.284010 0.852739 0.172923
H40   H     H_    0.653230 0.716349 0.850812 0.170167
H41   H     H_    0.873432 0.202211 0.172040 0.159208
H42   H     H_    0.875404 0.795733 0.170876 0.161745
H43   H     H_    0.373593 0.702271 0.171908 0.159007
H44   H     H_    0.375314 0.295750 0.170979 0.161915
H45   H     H_    0.728072 0.247520 0.180669 0.145703
H46   H     H_    0.731025 0.750389 0.180791 0.147987
H47   H     H_    0.228270 0.747689 0.180470 0.145906
H48   H     H_    0.230932 0.250505 0.181023 0.147645
H49   H     H_    0.341356 0.739898 0.994325 0.178350
H50   H     H_    0.340863 0.259272 0.991828 0.175652
H51   H     H_    0.841138 0.239980 0.994513 0.177964
H52   H     H_    0.841089 0.759345 0.991732 0.176038
H53   H     H_    0.253886 0.814554 0.968892 0.198233
H54   H     H_    0.252927 0.184945 0.965875 0.194993
H55   H     H_    0.753469 0.314532 0.969046 0.196253
H56   H     H_    0.753328 0.684922 0.965787 0.196939
H57   H     H_    0.485642 0.010954 0.299159 0.102456
H58   H     H_    0.444961 0.084620 0.353336 0.129218
H59   H     H_    0.985782 0.510420 0.298858 0.102194
H60   H     H_    0.945299 0.584385 0.352296 0.129755
H61   H     H_    0.633091 0.984000 0.430320 0.157028
H62   H     H_    0.598165 0.081002 0.475425 0.160101
H63   H     H_    0.133167 0.483470 0.430276 0.157058
H64   H     H_    0.098530 0.580789 0.474710 0.159349
H65   H     H_    0.728623 0.913091 0.668947 0.098485
H66   H     H_    0.736042 0.089059 0.672656 0.097992
H67   H     H_    0.228669 0.413090 0.668917 0.099521
H68   H     H_    0.236125 0.589056 0.672620 0.096934
H69   H     H_    0.599942 0.925842 0.473790 0.199282
H70   H     H_    0.582035 0.087017 0.583202 0.196751
H71   H     H_    0.099856 0.425589 0.474188 0.199876
H72   H     H_    0.082207 0.587203 0.582277 0.196187
H73   H     H_    0.579075 0.938213 0.636921 0.163144
H74   H     H_    0.550071 0.004626 0.651786 0.163993
H75   H     H_    0.078976 0.438545 0.637023 0.163272
H76   H     H_    0.050258 0.505094 0.651635 0.163907
H77   H     H_    0.069110 0.087888 0.331894 0.093838
H78   H     H_    0.066197 0.912381 0.333291 0.092923
H79   H     H_    0.566546 0.587359 0.333352 0.094826
H80   H     H_    0.568788 0.411839 0.331824 0.091642
H81   H     H_    0.287579 0.911580 0.266656 0.109131
H82   H     H_    0.285141 0.088876 0.264324 0.098517
H83   H     H_    0.787598 0.411573 0.266740 0.109037
H84   H     H_    0.785107 0.588858 0.263874 0.098863
H85   H     H_    0.032783 0.088198 0.744687 0.122541
H86   H     H_    0.027492 0.912167 0.736210 0.119394
H87   H     H_    0.527332 0.587744 0.735941 0.119028
H88   H     H_    0.532826 0.411693 0.744815 0.122617
H89   H     H_    0.183034 0.164940 0.176206 0.134571
H90   H     H_    0.182554 0.834740 0.176463 0.128196
H91   H     H_    0.683197 0.664943 0.176088 0.135200
H92   H     H_    0.682313 0.334723 0.176562 0.127725
H93   H     H_    0.928465 0.026480 0.373475 0.191010
H94   H     H_    0.207766 0.958871 0.575130 0.188419
H95   H     H_    0.707480 0.540853 0.574697 0.188242
H96   H     H_    0.428807 0.473188 0.373937 0.191477
N1    N     N_R   0.950530 0.896220 0.057200 -0.036347
N2    N     N_R   0.950530 0.103780 0.057200 -0.036202
N3    N     N_R   0.450530 0.396220 0.057200 -0.036111
N4    N     N_R   0.450530 0.603780 0.057200 -0.036425
N5    N     N_R   0.893330 0.103780 0.942800 -0.036538
N6    N     N_R   0.893330 0.896220 0.942800 -0.036563
N7    N     N_R   0.393330 0.603780 0.942800 -0.037025
N8    N     N_R   0.393330 0.396220 0.942800 -0.036074
N9    N     N_R   0.818150 0.971400 0.792440 -0.033741
N10   N     N_R   0.818150 0.028600 0.792440 -0.034261
N11   N     N_R   0.318150 0.471400 0.792440 -0.033875
N12   N     N_R   0.318150 0.528600 0.792440 -0.034092
N13   N     N_R   0.025710 0.028600 0.207560 -0.033048
N14   N     N_R   0.025710 0.971400 0.207560 -0.032840
N15   N     N_R   0.525710 0.528600 0.207560 -0.032890
N16   N     N_R   0.525710 0.471400 0.207560 -0.033014
N17   N     N_R   0.181850 0.971400 0.207560 -0.035760
N18   N     N_R   0.181850 0.028600 0.207560 -0.031956
N19   N     N_R   0.681850 0.471400 0.207560 -0.035882
N20   N     N_R   0.681850 0.528600 0.207560 -0.031883
N21   N     N_R   0.974290 0.028600 0.792440 -0.040221
N22   N     N_R   0.974290 0.971400 0.792440 -0.034575
N23   N     N_R   0.474290 0.528600 0.792440 -0.035001
N24   N     N_R   0.474290 0.471400 0.792440 -0.039764
N25   N     N_R   0.049470 0.896220 0.942800 -0.049504
N26   N     N_R   0.049470 0.103780 0.942800 -0.052326
N27   N     N_R   0.549470 0.396220 0.942800 -0.051375
N28   N     N_R   0.549470 0.603780 0.942800 -0.050400
N29   N     N_R   0.106670 0.103780 0.057200 -0.051288
N30   N     N_R   0.106670 0.896220 0.057200 -0.052432
N31   N     N_R   0.606670 0.603780 0.057200 -0.051576
N32   N     N_R   0.606670 0.396220 0.057200 -0.052139
Ni1   Ni    Ni4+2 0.065600 0.934400 0.131190 0.204928
Ni2   Ni    Ni4+2 0.065600 0.065600 0.131190 0.209086
Ni3   Ni    Ni4+2 0.565600 0.434400 0.131190 0.204457
Ni4   Ni    Ni4+2 0.565600 0.565600 0.131190 0.209606
Ni5   Ni    Ni4+2 0.934400 0.065600 0.868810 0.206823
Ni6   Ni    Ni4+2 0.934400 0.934400 0.868810 0.209922
Ni7   Ni    Ni4+2 0.434400 0.565600 0.868810 0.207985
Ni8   Ni    Ni4+2 0.434400 0.434400 0.868810 0.208592
C113  C     C_3   0.882235 0.024279 0.504193 -0.983919
H97   H     H_    0.897061 0.068594 0.506603 0.254295
H98   H     H_    0.818591 0.014772 0.421768 0.252110
H99   H     H_    0.865356 0.015204 0.563663 0.259788
C114  C     C_3   0.228409 0.957926 0.759193 -0.994492
H100  H     H_    0.266134 0.994633 0.760556 0.259252
H101  H     H_    0.224481 0.959183 0.830776 0.250975
H102  H     H_    0.269569 0.921150 0.768242 0.252292
C115  C     C_3   0.728275 0.541470 0.758845 -0.995658
H103  H     H_    0.724420 0.540124 0.830481 0.250738
H104  H     H_    0.766088 0.504713 0.760236 0.259448
H105  H     H_    0.769304 0.578185 0.767772 0.252494
C116  C     C_3   0.382251 0.475938 0.504347 -0.974026
H106  H     H_    0.397217 0.431571 0.507334 0.257503
H107  H     H_    0.365263 0.485232 0.563632 0.258177
H108  H     H_    0.318623 0.485477 0.421767 0.251195
C117  C     C_3   0.601433 0.139917 0.834689 -1.048519
H109  H     H_    0.605910 0.167921 0.779290 0.273759
H110  H     H_    0.630188 0.099108 0.836577 0.255958
H111  H     H_    0.526791 0.133620 0.799693 0.268275
C118  C     C_3   0.602121 0.860691 0.836653 -1.111088
H112  H     H_    0.605757 0.833165 0.780104 0.262116
H113  H     H_    0.527702 0.867343 0.802623 0.268513
H114  H     H_    0.631129 0.901446 0.839207 0.265851
C119  C     C_3   0.101475 0.639943 0.834694 -1.049908
H115  H     H_    0.105980 0.667872 0.779220 0.273401
H116  H     H_    0.130177 0.599099 0.836679 0.256170
H117  H     H_    0.026827 0.633699 0.799729 0.268625
C120  C     C_3   0.102092 0.360738 0.836749 -1.112148
H118  H     H_    0.105662 0.333151 0.780228 0.262469
H119  H     H_    0.027691 0.367448 0.802737 0.267911
H120  H     H_    0.131161 0.401458 0.839227 0.265926
C121  C     C_3   0.544478 0.205214 0.999810 -1.104110
H121  H     H_    0.499254 0.168869 0.959597 0.270223
H122  H     H_    0.589676 0.198059 0.089264 0.259387
H123  H     H_    0.498754 0.240666 0.984174 0.266989
C122  C     C_3   0.546581 0.793959 0.001795 -1.076264
H124  H     H_    0.501766 0.830739 0.963007 0.270706
H125  H     H_    0.500477 0.758717 0.985371 0.264780
H126  H     H_    0.592297 0.800169 0.091455 0.263952
C123  C     C_3   0.044540 0.705504 0.999518 -1.102179
H127  H     H_    0.999135 0.669237 0.959162 0.270840
H128  H     H_    0.089674 0.698271 0.088951 0.259121
H129  H     H_    0.998984 0.741035 0.983966 0.266792
C124  C     C_3   0.046597 0.294211 0.002193 -1.078485
H130  H     H_    0.001908 0.331045 0.963516 0.270040
H131  H     H_    0.000386 0.259028 0.985764 0.265068
H132  H     H_    0.092392 0.300374 0.091860 0.264194
C125  C     C_3   0.790239 0.151957 0.199383 -1.126411
H133  H     H_    0.839817 0.161965 0.287737 0.269603
H134  H     H_    0.720124 0.150304 0.181608 0.266037
H135  H     H_    0.806737 0.110236 0.185941 0.266287
C126  C     C_3   0.793037 0.845623 0.200688 -1.114521
H136  H     H_    0.843661 0.835225 0.288766 0.272955
H137  H     H_    0.808409 0.887607 0.187124 0.263742
H138  H     H_    0.723407 0.846923 0.184363 0.269510
C127  C     C_3   0.290317 0.652120 0.199311 -1.132560
H139  H     H_    0.340000 0.662103 0.287656 0.268243
H140  H     H_    0.220228 0.650582 0.181633 0.266684
H141  H     H_    0.306612 0.610359 0.185788 0.266614
C128  C     C_3   0.293075 0.345727 0.200841 -1.109845
H142  H     H_    0.343653 0.335303 0.288917 0.274049
H143  H     H_    0.308588 0.387684 0.187330 0.263548
H144  H     H_    0.223445 0.347119 0.184501 0.268852
C129  C     C_3   0.334453 0.794741 0.185071 -0.975125
H145  H     H_    0.378039 0.792859 0.153417 0.268520
H146  H     H_    0.311117 0.837586 0.173669 0.255516
H147  H     H_    0.380345 0.786637 0.274723 0.261499
C130  C     C_3   0.335633 0.202988 0.182799 -1.065559
H148  H     H_    0.311779 0.160222 0.170655 0.258386
H149  H     H_    0.378629 0.205031 0.150378 0.254514
H150  H     H_    0.382240 0.210338 0.272600 0.275923
C131  C     C_3   0.834185 0.294628 0.185244 -0.974367
H151  H     H_    0.810845 0.337464 0.173903 0.255097
H152  H     H_    0.880104 0.286502 0.274888 0.261864
H153  H     H_    0.877751 0.292791 0.153561 0.268405
C132  C     C_3   0.835831 0.702930 0.182671 -1.064285
H154  H     H_    0.811987 0.660157 0.170460 0.258496
H155  H     H_    0.878878 0.705016 0.150323 0.254332
H156  H     H_    0.882376 0.710267 0.272480 0.276628
C133  C     C_2   0.445895 0.929811 0.270725 0.487565
H157  H     H_    0.378886 0.933268 0.192383 0.017372
O1    O     O_2   0.491733 0.888262 0.289953 -0.597599
C134  C     C_2   0.411378 0.096901 0.466179 0.488251
H158  H     H_    0.347612 0.084200 0.454865 0.039272
O2    O     O_2   0.440361 0.142732 0.502925 -0.594869
C135  C     C_2   0.945864 0.429323 0.271109 0.487181
H159  H     H_    0.878951 0.432748 0.192643 0.016821
O3    O     O_2   0.991564 0.387664 0.290785 -0.597562
C136  C     C_2   0.911762 0.597402 0.464949 0.487987
H160  H     H_    0.848407 0.584771 0.454697 0.039914
O4    O     O_2   0.940372 0.643493 0.500089 -0.594875
C137  C     C_3   0.430788 0.902069 0.476612 -1.012842
H161  H     H_    0.357510 0.889026 0.432143 0.247054
H162  H     H_    0.462619 0.884935 0.437377 0.269440
H163  H     H_    0.463968 0.880348 0.556445 0.242369
C138  C     C_3   0.379177 0.981890 0.531294 -1.049561
H164  H     H_    0.400526 0.020467 0.578641 0.228103
H165  H     H_    0.383552 0.950737 0.588593 0.262217
H166  H     H_    0.305100 0.985006 0.461050 0.256621
C139  C     C_3   0.930445 0.402442 0.477106 -1.012962
H167  H     H_    0.857083 0.389558 0.432581 0.246940
H168  H     H_    0.962301 0.385023 0.438113 0.269595
H169  H     H_    0.963436 0.380894 0.557086 0.242397
C140  C     C_3   0.879239 0.482693 0.531255 -1.049302
H170  H     H_    0.900896 0.521309 0.578507 0.228097
H171  H     H_    0.883342 0.451702 0.588633 0.261613
H172  H     H_    0.805188 0.485947 0.460988 0.256726
C141  C     C_3   0.978807 0.824641 0.799752 -1.106923
H173  H     H_    0.005234 0.808855 0.753036 0.248185
H174  H     H_    0.940911 0.792179 0.810805 0.261530
H175  H     H_    0.926796 0.857116 0.750002 0.261883
C142  C     C_3   0.978749 0.175784 0.799708 -1.127465
H176  H     H_    0.941054 0.208330 0.811074 0.263006
H177  H     H_    0.004974 0.191634 0.752835 0.244281
H178  H     H_    0.926731 0.143493 0.749897 0.263241
C143  C     C_3   0.478339 0.324458 0.799996 -1.106498
H179  H     H_    0.504690 0.308418 0.753366 0.248275
H180  H     H_    0.440301 0.292161 0.811212 0.262308
H181  H     H_    0.426568 0.357013 0.750033 0.262557
C144  C     C_3   0.479199 0.675590 0.799442 -1.128195
H182  H     H_    0.441648 0.708310 0.810617 0.262284
H183  H     H_    0.505508 0.691164 0.752479 0.244169
H184  H     H_    0.426938 0.643379 0.749866 0.262462

loop_
_geom_bond_atom_site_label_1
_geom_bond_atom_site_label_2
_ccdc_geom_bond_type
N7    Ni7   S    
C141  H173  S    
C55   C59   S    
C133  O1    D    
C15   C109  A    
C109  H85   S    
N15   N16   A    
C42   C58   S    
C92   H75   S    
C126  H136  S    
C121  H123  S    
C52   H32   S    
N29   Ni2   S    
C46   C62   S    
C86   C88   S    
C119  H117  S    
C62   C70   S    
C35   H33   S    
C24   C32   S    
C21   H5    S    
C110  N22   A    
C17   C61   S    
C41   C117  S    
C82   H62   S    
C19   C63   S    
C32   C104  S    
C79   C102  A    
C36   C97   A    
C51   C57   S    
C46   C124  S    
C85   C137  S    
N22   Ni6   S    
C144  H184  S    
C23   H95   S    
C137  H162  S    
C78   C101  A    
C1    H1    S    
C73   C81   S    
C140  H171  S    
C44   C46   S    
C71   H45   S    
C142  H178  S    
C11   C20   A    
C24   H8    S    
C2    N2    A    
N2    Ni2   S    
C135  O3    D    
C62   C66   S    
C108  N20   A    
C72   C132  S    
N26   N29   A    
C130  H150  S    
C94   H78   S    
N21   N22   A    
C48   C122  S    
C90   C92   S    
N19   N20   A    
N20   Ni4   S    
C83   H71   S    
C37   H35   S    
C138  H166  S    
C10   H90   S    
C38   H36   S    
C52   C58   S    
C8    C144  S    
C14   C107  A    
C91   H74   S    
C63   C71   S    
C141  H175  S    
C7    C19   A    
C96   C104  A    
C79   H67   S    
C53   C71   S    
C116  H107  S    
C126  H138  S    
C67   H55   S    
C22   H6    S    
C30   H15   S    
C89   C101  S    
N23   Ni7   S    
C13   C106  A    
C54   H42   S    
C51   H31   S    
N8    Ni8   S    
C42   H22   S    
C14   C88   S    
C122  H125  S    
C143  H179  S    
C2    H2    S    
C77   N9    A    
C65   H37   S    
C77   H65   S    
C135  H159  S    
C61   C65   S    
C12   N32   A    
C131  H151  S    
C45   C123  S    
N11   Ni8   S    
C25   H9    S    
C112  H88   S    
C16   C111  A    
C53   H41   S    
C139  H167  S    
C29   H13   S    
C50   H50   S    
C111  N23   A    
N27   N32   A    
C56   H44   S    
C93   C103  A    
C41   H21   S    
C106  H82   S    
C55   H43   S    
C21   C31   S    
C113  H97   S    
N13   N14   A    
C82   C89   S    
C64   C68   S    
N26   Ni5   S    
C23   H7    S    
C116  H106  S    
C129  H146  S    
C28   C116  S    
C22   H94   S    
C115  H103  S    
C76   H60   S    
C90   C102  S    
C36   N6    A    
C127  H140  S    
C107  N19   A    
C105  N17   A    
C74   C87   S    
C89   C91   S    
C49   H49   S    
C43   C59   S    
N21   Ni5   S    
N3    N8    A    
C6    N26   A    
C120  H118  S    
C59   C100  S    
C125  H134  S    
C84   C90   S    
C6    C142  S    
C119  H115  S    
C128  H143  S    
C3    N3    A    
C71   C131  S    
C48   H28   S    
C1    N1    A    
N10   Ni5   S    
C69   C129  S    
C84   H72   S    
C134  H158  S    
C143  H181  S    
N1    Ni1   S    
C18   C62   S    
C51   C67   S    
C39   H17   S    
N9    N10   A    
C95   N15   A    
C80   C102  A    
N24   Ni8   S    
C81   H61   S    
C124  H130  S    
C55   C127  S    
C26   C33   S    
N4    N7    A    
C131  H153  S    
C13   C87   S    
C123  H127  S    
C41   C47   S    
C42   C48   S    
N5    Ni5   S    
C43   C45   S    
C55   C69   S    
C68   H56   S    
C40   H19   S    
C139  H169  S    
C136  O4    D    
C9    N29   A    
C138  H165  S    
C47   H27   S    
N27   Ni8   S    
C21   C25   S    
C113  H99   S    
C24   C28   S    
C26   C114  S    
C114  H102  S    
C28   H12   S    
N16   Ni3   S    
C93   H77   S    
C121  H122  S    
N2    N5    A    
C82   H70   S    
C49   C59   S    
N28   N31   A    
C115  H105  S    
C50   C60   S    
C96   H80   S    
C120  H119  S    
C69   H47   S    
C70   H48   S    
C12   H92   S    
C3    C99   A    
C9    C18   A    
C120  H120  S    
C94   N14   A    
C37   C100  A    
C50   H30   S    
C25   C33   S    
C144  H183  S    
C44   H24   S    
C110  H86   S    
C76   C84   S    
C140  H170  S    
C142  H177  S    
N30   Ni1   S    
C66   H38   S    
C124  H132  S    
C47   C63   S    
C48   C64   S    
C5    C17   A    
N17   Ni1   S    
C65   H53   S    
C123  H129  S    
C125  H133  S    
C130  H149  S    
C73   C87   S    
C47   C121  S    
C109  N21   A    
C49   H29   S    
C51   H51   S    
C53   C125  S    
C108  H84   S    
C35   C98   A    
C81   C89   S    
C14   C108  A    
C91   H73   S    
C28   C34   S    
C141  H174  S    
C118  H112  S    
C15   C110  A    
C74   C82   S    
C27   C115  S    
C54   C126  S    
N14   Ni1   S    
C7    N27   A    
C126  H137  S    
C30   H16   S    
N3    Ni3   S    
N9    Ni6   S    
C13   C105  A    
N11   N12   A    
C117  H110  S    
C53   C57   S    
C128  H142  S    
C75   C135  S    
C24   H96   S    
N32   Ni3   S    
C56   C60   S    
N25   N30   A    
C122  H124  S    
C68   H40   S    
C116  H108  S    
N15   Ni4   S    
C92   H76   S    
C73   C133  S    
C8    C20   A    
C35   N5    A    
C9    H89   S    
C52   H52   S    
C8    N28   A    
N12   Ni7   S    
C94   C103  A    
C73   H57   S    
C140  H172  S    
C16   C112  A    
C86   C140  S    
C78   H66   S    
C4    H4    S    
C38   C99   A    
C124  H131  S    
C43   C119  S    
N1    N6    A    
C112  N24   A    
C23   C32   S    
C41   C57   S    
C3    H3    S    
C78   N10   A    
C75   C83   S    
C129  H145  S    
C114  H100  S    
C44   C60   S    
C57   C98   S    
C12   C19   A    
C45   C61   S    
C77   C101  A    
C132  H154  S    
C5    C141  S    
N18   Ni2   S    
N4    Ni4   S    
C127  H139  S    
C22   C26   S    
C118  H114  S    
C76   C136  S    
C26   H10   S    
C84   H64   S    
C37   N7    A    
C86   C139  S    
C83   H63   S    
C133  H157  S    
C81   H69   S    
C60   C99   S    
C107  H83   S    
C85   C91   S    
C137  H161  S    
C105  H81   S    
C33   C39   S    
C49   C65   S    
C34   C40   S    
C80   H68   S    
C128  H144  S    
C134  O2    D    
C122  H126  S    
C143  H180  S    
N19   Ni3   S    
N25   Ni6   S    
C10   C17   A    
C11   N31   A    
C72   H46   S    
C132  H155  S    
C21   H93   S    
C111  H87   S    
C79   N11   A    
C96   N16   A    
C106  N18   A    
N31   Ni4   S    
C119  H116  S    
C23   C27   S    
C117  H109  S    
C76   C88   S    
C52   C68   S    
C95   H79   S    
C46   H26   S    
C16   C34   S    
C40   H20   S    
C139  H168  S    
C5    N25   A    
C29   H14   S    
N28   Ni7   S    
C58   C97   S    
N13   Ni2   S    
C85   C87   S    
C27   C34   S    
C6    C18   A    
C63   C67   S    
C113  H98   S    
C22   C31   S    
C66   H54   S    
C67   H39   S    
C1    C97   A    
C114  H101  S    
C27   H11   S    
C129  H147  S    
C11   H91   S    
C131  H152  S    
C121  H121  S    
C115  H104  S    
C31   C103  S    
C20   C64   S    
C132  H156  S    
C25   C113  S    
C44   C120  S    
C127  H141  S    
C29   C39   S    
C45   H25   S    
N17   N18   A    
C30   C40   S    
N6    Ni6   S    
C43   H23   S    
C50   C66   S    
C74   C134  S    
C36   H34   S    
C10   N30   A    
C56   C70   S    
C4    C100  A    
C75   H59   S    
C125  H135  S    
C95   C104  A    
C144  H182  S    
C54   C58   S    
C137  H163  S    
C61   C69   S    
C83   C90   S    
C70   C130  S    
C38   N8    A    
C80   N12   A    
C39   H18   S    
C142  H176  S    
C4    N4    A    
C42   C118  S    
C118  H113  S    
C29   C31   S    
C86   C92   S    
C30   C32   S    
C123  H128  S    
C64   C72   S    
C130  H148  S    
C117  H111  S    
C74   H58   S    
C56   C128  S    
C7    C143  S    
C75   C88   S    
C54   C72   S    
C2    C98   A    
C136  H160  S    
N23   N24   A    
C85   C138  S    
C93   N13   A    
C138  H164  S    
C15   C33   S    
