data_str_m4_o15_o24_f0_acs.sym.22
_audit_creation_date              2012-12-11T14:28:20-0500
_audit_creation_method            fapswitch 2.2
_symmetry_space_group_name_H-M    P1
_symmetry_Int_Tables_number       1
_space_group_crystal_system       triclinic
_cell_length_a                    10.943874
_cell_length_b                    19.095283
_cell_length_c                    18.513638
_cell_angle_alpha                 89.957392
_cell_angle_beta                  89.955288
_cell_angle_gamma                 90.177951
_cell_volume                      3868.89197103

loop_
_atom_site_label
_atom_site_type_symbol
_atom_type_description
_atom_site_fract_x
_atom_site_fract_y
_atom_site_fract_z
_atom_type_partial_charge
C1    C     C_R   0.319410 0.969275 0.645709 0.522122
C2    C     C_3   0.182392 0.769997 0.035052 -0.151722
C3    C     C_3   0.060431 0.184681 0.969935 -0.117870
C4    C     C_3   0.486937 0.288621 0.482639 -0.113520
C5    C     C_3   0.490201 0.285863 0.017723 -0.114049
C6    C     C_3   0.559203 0.687857 0.527623 -0.119698
C7    C     C_3   0.556246 0.687992 0.972832 -0.119379
C8    C     C_3   0.107487 0.813504 0.517639 -0.115120
C9    C     C_3   0.104979 0.813521 0.981939 -0.115435
C10   C     C_3   0.178106 0.209179 0.488246 -0.109601
C11   C     C_3   0.192175 0.193971 0.998807 -0.138094
C12   C     C_3   0.607546 0.313499 0.517629 -0.115199
C13   C     C_3   0.184766 0.278211 0.531551 -0.133476
C14   C     C_3   0.607648 0.315249 0.982555 -0.114579
C15   C     C_3   0.678024 0.709125 0.488252 -0.108428
C16   C     C_3   0.676426 0.707687 0.011512 -0.108646
C17   C     C_3   0.099965 0.750928 0.569033 0.060486
C18   C     C_3   0.099679 0.750695 0.930892 0.060501
C19   C     C_3   0.100075 0.247218 0.431529 0.057647
C20   C     C_3   0.140533 0.236792 0.061663 0.062164
C21   C     C_3   0.599970 0.250930 0.569032 0.060341
C22   C     C_3   0.607885 0.251895 0.932428 0.060588
C23   C     C_3   0.600093 0.747217 0.431531 0.059746
C24   C     C_3   0.206342 0.263076 0.955591 -0.142246
C25   C     C_3   0.600801 0.747164 0.068338 0.059829
C26   C     C_3   0.980623 0.726177 0.535840 -0.156526
C27   C     C_3   0.981390 0.724509 0.964446 -0.155733
C28   C     C_3   0.982350 0.225206 0.469269 -0.137975
C29   C     C_3   0.009613 0.227109 0.034315 -0.117578
C30   C     C_3   0.480601 0.226209 0.535846 -0.156516
C31   C     C_3   0.492639 0.222390 0.965988 -0.154206
C32   C     C_3   0.482319 0.725275 0.469248 -0.138275
C33   C     C_3   0.481711 0.726806 0.031335 -0.139410
C34   C     C_3   0.055857 0.681534 0.483039 -0.106707
C35   C     C_3   0.683103 0.268765 0.464634 -0.152043
C36   C     C_3   0.058519 0.681028 0.017357 -0.107002
C37   C     C_3   0.988777 0.294227 0.512910 -0.104292
C38   C     C_3   0.024002 0.295734 0.990966 -0.105882
C39   C     C_3   0.555794 0.181534 0.483049 -0.106770
C40   C     C_3   0.573131 0.182178 0.019435 -0.107083
C41   C     C_3   0.488853 0.794283 0.512901 -0.104630
C42   C     C_3   0.490777 0.795517 0.987240 -0.104054
C43   C     C_3   0.176382 0.706176 0.517097 -0.097682
C44   C     C_3   0.177935 0.707098 0.982936 -0.098861
C45   C     C_3   0.107389 0.315702 0.474014 -0.112332
C46   C     C_3   0.688685 0.274580 0.036526 -0.148388
C47   C     C_3   0.154842 0.305487 0.019321 -0.104375
C48   C     C_3   0.676345 0.206147 0.517101 -0.097768
C49   C     C_3   0.690198 0.211266 0.984857 -0.100312
C50   C     C_3   0.607514 0.815688 0.474028 -0.112289
C51   C     C_3   0.610779 0.815345 0.025394 -0.111796
C52   C     C_3   0.684789 0.778143 0.531570 -0.133525
C53   C     C_3   0.685715 0.776413 0.967729 -0.135180
C54   C     C_3   0.064092 0.743919 0.431133 0.057959
C55   C     C_3   0.064415 0.743762 0.068893 0.058565
C56   C     C_3   0.067338 0.256521 0.569644 0.060510
C57   C     C_R   0.319416 0.969372 0.854214 0.523138
C58   C     C_3   0.076682 0.253124 0.928133 0.057293
C59   C     C_3   0.564083 0.243913 0.431135 0.057703
C60   C     C_3   0.572090 0.245503 0.070410 0.056588
C61   C     C_3   0.567314 0.756523 0.569640 0.060405
C62   C     C_3   0.566929 0.756383 0.930368 0.060575
C63   C     C_R   0.333363 0.990094 0.420961 -0.046322
C64   C     C_R   0.333349 0.990360 0.078849 -0.045653
C65   C     C_R   0.323030 0.000084 0.572307 -0.044884
C66   C     C_R   0.323130 0.000548 0.927453 -0.047040
C67   C     C_R   0.833366 0.490104 0.420968 -0.045437
C68   C     C_R   0.321418 0.028705 0.352184 0.525246
C69   C     C_R   0.832660 0.489374 0.079388 -0.045999
C70   C     C_R   0.823036 0.500096 0.572314 -0.045003
C71   C     C_R   0.823052 0.499876 0.927924 -0.044666
C72   C     C_R   0.559335 0.995527 0.427952 -0.102279
C73   C     C_R   0.559244 0.994512 0.071564 -0.103878
C74   C     C_R   0.543272 0.024032 0.575310 -0.079449
C75   C     C_R   0.543458 0.024174 0.924354 -0.079397
C76   C     C_R   0.059341 0.495543 0.427958 -0.102233
C77   C     C_R   0.058347 0.491252 0.072409 -0.092782
C78   C     C_R   0.043276 0.524039 0.575318 -0.079444
C79   C     C_R   0.321444 0.028793 0.147727 0.519543
C80   C     C_R   0.043610 0.522761 0.925509 -0.080585
C81   C     C_R   0.664381 0.011502 0.467403 -0.145823
C82   C     C_R   0.664664 0.009540 0.031877 -0.150576
C83   C     C_R   0.655611 0.027289 0.540630 -0.130068
C84   C     C_R   0.655969 0.026346 0.958820 -0.129168
C85   C     C_R   0.164387 0.511512 0.467412 -0.146041
C86   C     C_R   0.163822 0.507367 0.033339 -0.144081
C87   C     C_R   0.155616 0.527298 0.540639 -0.130060
C88   C     C_R   0.155668 0.524972 0.960458 -0.130995
C89   C     C_R   0.436554 0.005914 0.536940 -0.001776
C90   C     C_R   0.819411 0.469278 0.645711 0.522231
C91   C     C_R   0.436605 0.006332 0.962789 -0.002488
C92   C     C_R   0.443103 0.996279 0.461280 -0.007162
C93   C     C_R   0.443063 0.996486 0.038437 -0.004551
C94   C     C_R   0.936560 0.505924 0.536947 -0.001872
C95   C     C_R   0.936435 0.504787 0.963511 -0.003428
C96   C     C_R   0.943108 0.496292 0.461286 -0.007128
C97   C     C_R   0.942472 0.494317 0.039100 -0.007052
C98   C     C_R   0.214266 0.996277 0.530184 0.004594
C99   C     C_R   0.214444 0.996821 0.969659 0.003468
C100  C     C_R   0.223104 0.977541 0.457289 0.006327
C101  C     C_R   0.819393 0.469212 0.854386 0.523169
C102  C     C_R   0.223152 0.977919 0.042537 0.005798
C103  C     C_R   0.714273 0.496298 0.530192 0.004459
C104  C     C_R   0.714115 0.496519 0.970012 0.004822
C105  C     C_R   0.723107 0.477557 0.457298 0.006368
C106  C     C_R   0.722361 0.477635 0.042962 0.008355
C107  C     C_R   0.095873 0.006342 0.559223 -0.092894
C108  C     C_R   0.096252 0.007300 0.940720 -0.090943
C109  C     C_R   0.117864 0.953910 0.420113 -0.074612
C110  C     C_R   0.117914 0.954071 0.079649 -0.074224
C111  C     C_R   0.595886 0.506372 0.559232 -0.092852
C112  C     C_R   0.821418 0.528707 0.352186 0.524957
C113  C     C_R   0.596046 0.507026 0.940878 -0.095113
C114  C     C_R   0.617862 0.453924 0.420128 -0.074603
C115  C     C_R   0.616827 0.454139 0.080012 -0.072846
C116  C     C_R   0.992093 0.986840 0.520581 -0.141950
C117  C     C_R   0.992432 0.987315 0.979208 -0.143081
C118  C     C_R   0.003020 0.959418 0.451468 -0.124180
C119  C     C_R   0.003218 0.959374 0.048173 -0.124573
C120  C     C_R   0.492104 0.486865 0.520596 -0.141916
C121  C     C_R   0.491998 0.487110 0.979213 -0.143727
C122  C     C_R   0.503023 0.459435 0.451486 -0.124364
C123  C     C_R   0.821333 0.528562 0.147909 0.524805
C124  C     C_R   0.502359 0.459254 0.048245 -0.124879
C125  C     C_R   0.133070 0.757432 0.644031 0.540930
C126  C     C_R   0.132809 0.757329 0.855883 0.540835
C127  C     C_R   0.133485 0.242043 0.356368 0.549458
C128  C     C_R   0.180440 0.229428 0.135902 0.564825
C129  C     C_R   0.633073 0.257433 0.644030 0.541454
C130  C     C_R   0.635282 0.257850 0.856738 0.541779
C131  C     C_R   0.633500 0.742039 0.356373 0.540703
C132  C     C_R   0.633982 0.741960 0.143484 0.541375
C133  C     C_R   0.542725 0.769378 0.644894 0.541014
C134  C     C_3   0.183085 0.768802 0.464638 -0.152056
C135  C     C_R   0.542484 0.769392 0.855158 0.541386
C136  C     C_R   0.540821 0.230221 0.355781 0.544507
C137  C     C_R   0.543625 0.231086 0.145231 0.537508
C138  C     C_R   0.042741 0.269373 0.644899 0.541242
C139  C     C_R   0.041684 0.269732 0.855309 0.546599
C140  C     C_R   0.040828 0.730225 0.355779 0.542537
C141  C     C_R   0.041102 0.730289 0.144293 0.542498
C142  C     C_3   0.986904 0.788595 0.482642 -0.113404
C143  C     C_3   0.985460 0.787248 0.017264 -0.114211
C144  C     C_3   0.059335 0.187842 0.527640 -0.119697
Cr1   Cr    Cr6+3 0.488160 0.884660 0.750000 1.010256
Cr2   Cr    Cr6+3 0.333410 0.272740 0.250000 0.989536
Cr3   Cr    Cr6+3 0.833410 0.227260 0.750000 0.995451
Cr4   Cr    Cr6+3 0.833410 0.772740 0.250000 0.993900
Cr5   Cr    Cr6+3 0.488160 0.115340 0.250000 0.990358
Cr6   Cr    Cr6+3 0.988160 0.384660 0.750000 1.010071
Cr7   Cr    Cr6+3 0.988160 0.615340 0.250000 0.995303
Cr8   Cr    Cr6+3 0.173480 0.883120 0.750000 1.002634
Cr9   Cr    Cr6+3 0.173480 0.116880 0.250000 1.017035
Cr10  Cr    Cr6+3 0.673480 0.383120 0.750000 1.002482
Cr11  Cr    Cr6+3 0.673480 0.616880 0.250000 1.018372
Cr12  Cr    Cr6+3 0.333410 0.727260 0.750000 0.995953
H1    H     H_    0.131798 0.865604 0.538432 0.161196
H2    H     H_    0.904390 0.990921 0.954135 0.105307
H3    H     H_    0.923016 0.942353 0.422025 0.102762
H4    H     H_    0.923303 0.941707 0.077405 0.102945
H5    H     H_    0.403888 0.490606 0.545579 0.106044
H6    H     H_    0.404209 0.490376 0.953820 0.106285
H7    H     H_    0.423017 0.442372 0.422045 0.102836
H8    H     H_    0.422414 0.441235 0.077204 0.100940
H9    H     H_    0.909969 0.822182 0.465236 0.129962
H10   H     H_    0.907794 0.820301 0.034692 0.130080
H11   H     H_    0.035919 0.137491 0.553324 0.115556
H12   H     H_    0.127200 0.865897 0.960901 0.162376
H13   H     H_    0.016327 0.137720 0.946687 0.115371
H14   H     H_    0.410023 0.322222 0.465229 0.129868
H15   H     H_    0.410226 0.317485 0.033952 0.123857
H16   H     H_    0.535675 0.637516 0.553287 0.115489
H17   H     H_    0.529966 0.637816 0.947748 0.116029
H18   H     H_    0.028466 0.629127 0.464712 0.161024
H19   H     H_    0.034302 0.628055 0.035906 0.161054
H20   H     H_    0.911638 0.329806 0.525730 0.121908
H21   H     H_    0.954199 0.337509 0.985530 0.122236
H22   H     H_    0.528365 0.129127 0.464732 0.161059
H23   H     H_    0.254529 0.173262 0.475017 0.122251
H24   H     H_    0.551982 0.129077 0.038299 0.165402
H25   H     H_    0.411774 0.829903 0.525713 0.121964
H26   H     H_    0.414977 0.832106 0.974665 0.122818
H27   H     H_    0.253088 0.671508 0.532787 0.131489
H28   H     H_    0.255531 0.673056 0.967246 0.131554
H29   H     H_    0.129596 0.366793 0.449393 0.134203
H30   H     H_    0.193684 0.355146 0.040427 0.129863
H31   H     H_    0.753028 0.171463 0.532794 0.131466
H32   H     H_    0.770913 0.179445 0.969642 0.128203
H33   H     H_    0.629827 0.866769 0.449427 0.133973
H34   H     H_    0.260154 0.151401 0.005162 0.114183
H35   H     H_    0.635830 0.866195 0.049536 0.134520
H36   H     H_    0.260329 0.789205 0.432029 0.098050
H37   H     H_    0.259059 0.791606 0.067221 0.097823
H38   H     H_    0.263328 0.301551 0.560726 0.118329
H39   H     H_    0.280438 0.281170 0.919186 0.119953
H40   H     H_    0.760368 0.289131 0.432014 0.098990
H41   H     H_    0.766086 0.297427 0.067256 0.100468
H42   H     H_    0.763363 0.801435 0.560769 0.118230
H43   H     H_    0.764715 0.798442 0.937803 0.117965
H44   H     H_    0.751741 0.014115 0.440408 0.111885
H45   H     H_    0.631902 0.365600 0.538412 0.161170
H46   H     H_    0.752046 0.011385 0.058763 0.112237
H47   H     H_    0.734583 0.044306 0.570797 0.102429
H48   H     H_    0.735004 0.043462 0.928689 0.104122
H49   H     H_    0.251747 0.514129 0.440416 0.111787
H50   H     H_    0.250885 0.509289 0.060548 0.109963
H51   H     H_    0.234584 0.544318 0.570808 0.102445
H52   H     H_    0.234740 0.542681 0.930774 0.102461
H53   H     H_    0.124520 0.932889 0.365895 0.121305
H54   H     H_    0.124486 0.932854 0.133815 0.121886
H55   H     H_    0.082251 0.029404 0.611973 0.131378
H56   H     H_    0.624985 0.367510 0.959964 0.164329
H57   H     H_    0.083013 0.030631 0.888031 0.132197
H58   H     H_    0.624513 0.432899 0.365911 0.121662
H59   H     H_    0.623103 0.432961 0.134210 0.121694
H60   H     H_    0.582276 0.529441 0.611980 0.131311
H61   H     H_    0.582983 0.530198 0.888104 0.131676
H62   H     H_    0.903014 0.706517 0.568661 0.098660
H63   H     H_    0.904304 0.703677 0.932054 0.098416
H64   H     H_    0.904906 0.201161 0.439740 0.113747
H65   H     H_    0.931464 0.211544 0.069031 0.121285
H66   H     H_    0.402976 0.206586 0.568680 0.098806
H67   H     H_    0.754387 0.673167 0.475033 0.122321
H68   H     H_    0.421835 0.196586 0.932610 0.098535
H69   H     H_    0.404868 0.701277 0.439693 0.113059
H70   H     H_    0.403838 0.704060 0.061637 0.113082
H71   H     H_    0.570028 0.982129 0.371536 0.130232
H72   H     H_    0.569539 0.980964 0.127983 0.130611
H73   H     H_    0.539666 0.039161 0.631600 0.125071
H74   H     H_    0.539875 0.039623 0.868128 0.124354
H75   H     H_    0.070036 0.482149 0.371543 0.131124
H76   H     H_    0.067846 0.477413 0.128814 0.132518
H77   H     H_    0.039670 0.539166 0.631609 0.125082
H78   H     H_    0.751527 0.670782 0.024492 0.122970
H79   H     H_    0.040523 0.538739 0.869430 0.125085
H80   H     H_    0.903870 0.990575 0.545564 0.106030
O1    O     O_R   0.575450 0.828820 0.667950 -0.516315
O2    O     O_R   0.416860 0.942890 0.825320 -0.500965
O3    O     O_R   0.416860 0.057110 0.325320 -0.511422
O4    O     O_R   0.416860 0.057110 0.174680 -0.513476
O5    O     O_R   0.916860 0.442890 0.674680 -0.501074
O6    O     O_R   0.916860 0.442890 0.825320 -0.501271
O7    O     O_R   0.916860 0.557110 0.325320 -0.512748
O8    O     O_R   0.916860 0.557110 0.174680 -0.511919
O9    O     O_R   0.213790 0.953680 0.668330 -0.530261
O10   O     O_R   0.213790 0.953680 0.831670 -0.529787
O11   O     O_R   0.213790 0.046320 0.331670 -0.513108
O12   O     O_R   0.575450 0.828820 0.832050 -0.516163
O13   O     O_R   0.213790 0.046320 0.168330 -0.519800
O14   O     O_R   0.713790 0.453680 0.668330 -0.530194
O15   O     O_R   0.713790 0.453680 0.831670 -0.530296
O16   O     O_R   0.713790 0.546320 0.331670 -0.513805
O17   O     O_R   0.713790 0.546320 0.168330 -0.514143
O18   O     O_R   0.121360 0.817890 0.672660 -0.507791
O19   O     O_R   0.121360 0.817890 0.827340 -0.507942
O20   O     O_R   0.121360 0.182110 0.327340 -0.494953
O21   O     O_R   0.121360 0.182110 0.172660 -0.500445
O22   O     O_R   0.621360 0.317890 0.672660 -0.507423
O23   O     O_R   0.575450 0.171180 0.332050 -0.520458
O24   O     O_R   0.621360 0.317890 0.827340 -0.508806
O25   O     O_R   0.621360 0.682110 0.327340 -0.499684
O26   O     O_R   0.621360 0.682110 0.172660 -0.499729
O27   O     O_R   0.206850 0.711370 0.665820 -0.534373
O28   O     O_R   0.206850 0.711370 0.834180 -0.534189
O29   O     O_R   0.206850 0.288630 0.334180 -0.533349
O30   O     O_R   0.206850 0.288630 0.165820 -0.537934
O31   O     O_R   0.706850 0.211370 0.665820 -0.534128
O32   O     O_R   0.706850 0.211370 0.834180 -0.534751
O33   O     O_R   0.706850 0.788630 0.334180 -0.537248
O34   O     O_R   0.575450 0.171180 0.167950 -0.521550
O35   O     O_R   0.706850 0.788630 0.165820 -0.537894
O36   O     O_R   0.457710 0.733190 0.672630 -0.514654
O37   O     O_R   0.457710 0.733190 0.827370 -0.514967
O38   O     O_R   0.457710 0.266810 0.327370 -0.514638
O39   O     O_R   0.457710 0.266810 0.172630 -0.528745
O40   O     O_R   0.957710 0.233190 0.672630 -0.514480
O41   O     O_R   0.957710 0.233190 0.827370 -0.517427
O42   O     O_R   0.957710 0.766810 0.327370 -0.515004
O43   O     O_R   0.957710 0.766810 0.172630 -0.514934
O44   O     O_3   0.331690 0.831680 0.750000 -0.248267
O45   O     O_R   0.075450 0.328820 0.667950 -0.516311
O46   O     O_3   0.331690 0.168320 0.250000 -0.265576
O47   O     O_3   0.831690 0.331680 0.750000 -0.248792
O48   O     O_3   0.831690 0.668320 0.250000 -0.249264
O49   O     O_R   0.075450 0.328820 0.832050 -0.516857
O50   O     O_R   0.075450 0.671180 0.332050 -0.522258
O51   O     O_R   0.075450 0.671180 0.167950 -0.522638
O52   O     O_R   0.416860 0.942890 0.674680 -0.501209

loop_
_geom_bond_atom_site_label_1
_geom_bond_atom_site_label_2
_ccdc_geom_bond_type
C6    C32   S    
C71   C104  A    
C26   H62   S    
C73   C82   A    
C73   C93   A    
C74   C83   A    
Cr9   O21   S    
C9    C143  S    
C61   C133  S    
C30   H66   S    
C65   C89   A    
C90   O14   A    
C2    C55   S    
C117  C119  A    
C86   C88   A    
C71   C95   A    
C69   C123  S    
C54   C134  S    
C40   H24   S    
C37   C56   S    
C50   C52   S    
C28   C144  S    
Cr6   O49   S    
C41   C61   S    
C4    C12   S    
C108  H57   S    
C21   C48   S    
C84   H48   S    
C100  C109  A    
C28   H64   S    
C22   C130  S    
C7    C33   S    
C88   H52   S    
C109  H53   S    
C8    H1    S    
Cr3   O41   S    
C109  C118  A    
C11   C20   S    
Cr12  O37   S    
C140  O42   A    
C141  O43   A    
C82   H46   S    
C70   C103  A    
C3    H13   S    
C24   H39   S    
C137  O39   A    
C17   C43   S    
C7    C62   S    
C34   H18   S    
C18   C44   S    
C73   H72   S    
C69   C106  A    
C115  H59   S    
C47   H30   S    
C94   C96   A    
Cr8   O9    S    
C35   H40   S    
C22   C49   S    
C34   C54   S    
C82   C84   A    
C13   H38   S    
C64   C79   S    
C36   C44   S    
C52   H42   S    
C37   C45   S    
C39   H22   S    
Cr10  O24   S    
C16   C25   S    
C127  O29   A    
C46   C60   S    
C139  O41   A    
Cr2   O38   S    
Cr7   O51   S    
C137  O34   A    
C130  O24   A    
C95   C97   A    
C8    C17   S    
Cr4   O43   S    
C106  C115  A    
C52   C61   S    
C2    H37   S    
C11   H34   S    
C80   C88   A    
C36   C55   S    
C1    O9    A    
C76   C96   A    
C13   C45   S    
C45   H29   S    
C49   H32   S    
C78   C94   A    
C138  O45   A    
C43   H27   S    
Cr5   O3    S    
C116  C118  A    
Cr6   O47   S    
C20   C47   S    
C3    C11   S    
Cr7   O7    S    
Cr11  O25   S    
C67   C112  S    
C36   H19   S    
C51   C53   S    
C76   C85   A    
C1    O52   A    
C78   C87   A    
C40   C60   S    
C114  H58   S    
C57   C66   S    
C81   H44   S    
C85   H49   S    
C6    H16   S    
C64   C102  A    
C99   C108  A    
C4    H14   S    
C33   C42   S    
C6    C61   S    
C103  C111  A    
Cr5   O34   S    
C75   C84   A    
C40   C49   S    
C59   C136  S    
C3    C29   S    
C50   H33   S    
Cr12  O28   S    
Cr6   O5    S    
C2    C44   S    
C72   H71   S    
C29   C38   S    
C1    C65   S    
C32   C41   S    
C77   C97   A    
C42   C62   S    
Cr10  O22   S    
C75   C91   A    
C13   C56   S    
C38   H21   S    
C133  O1    A    
C79   O4    A    
C74   H73   S    
C81   C83   A    
C55   C143  S    
C144  H11   S    
C8    C134  S    
C53   H43   S    
Cr10  O14   S    
C135  O37   A    
Cr6   O45   S    
C62   C135  S    
Cr2   O29   S    
C101  O6    A    
C27   C143  S    
Cr1   O2    S    
C23   C131  S    
C103  C105  A    
C10   C144  S    
C12   C35   S    
C19   C28   S    
C21   C129  S    
C51   H35   S    
C132  O26   A    
C63   C68   S    
C5    C60   S    
Cr9   O46   S    
Cr4   O33   S    
C9    H12   S    
C34   C43   S    
C57   O10   A    
C110  C119  A    
C19   C45   S    
C80   C95   A    
C128  O21   A    
C14   C22   S    
Cr7   O48   S    
C18   C126  S    
C28   C37   S    
Cr4   O42   S    
C30   C39   S    
C125  O18   A    
C107  C116  A    
C31   H68   S    
C9    C18   S    
C113  C121  A    
C128  O30   A    
C140  O50   A    
C25   C132  S    
C141  O51   A    
C25   C33   S    
C131  O25   A    
C69   C97   A    
C117  H2    S    
C27   H63   S    
C55   C141  S    
C104  C106  A    
C118  H3    S    
C14   C46   S    
C110  H54   S    
C42   H26   S    
C29   H65   S    
C46   C49   S    
C70   C94   A    
C65   C98   A    
Cr12  O44   S    
C72   C92   A    
C107  H55   S    
C31   C40   S    
C35   C59   S    
Cr5   O23   S    
C38   C58   S    
Cr8   O10   S    
C72   C81   A    
Cr2   O46   S    
C130  O32   A    
C71   C101  S    
Cr4   O35   S    
C41   H25   S    
Cr10  O47   S    
C101  O15   A    
C35   C48   S    
C108  C117  A    
C111  H60   S    
C48   H31   S    
C83   H47   S    
C33   H70   S    
Cr3   O32   S    
C133  O36   A    
C98   C107  A    
C43   C134  S    
C91   C93   A    
Cr3   O47   S    
C16   H78   S    
C10   C19   S    
C39   C59   S    
C125  O27   A    
C136  O23   A    
C126  O28   A    
C15   C52   S    
C5    C14   S    
C7    C16   S    
C54   C142  S    
Cr2   O39   S    
C98   C100  A    
C102  C110  A    
C10   H23   S    
C41   C50   S    
C46   H41   S    
C115  C124  A    
C136  O38   A    
C23   C50   S    
C68   O3    A    
Cr8   O19   S    
Cr11  O16   S    
Cr12  O36   S    
C27   C36   S    
Cr1   O52   S    
C21   C30   S    
C14   H56   S    
C23   C32   S    
C37   H20   S    
C121  H6    S    
Cr9   O11   S    
C15   H67   S    
C123  O17   A    
C56   C144  S    
C3    C58   S    
Cr6   O6    S    
C99   C102  A    
C67   C105  A    
C24   C58   S    
C8    C142  S    
C39   C48   S    
C124  H8    S    
C58   C139  S    
C75   H74   S    
Cr11  O17   S    
C86   H50   S    
C132  O35   A    
C143  H10   S    
C17   C26   S    
C74   C89   A    
C64   C93   A    
C20   C128  S    
Cr10  O15   S    
C11   C24   S    
Cr5   O4    S    
C139  O49   A    
C134  H36   S    
Cr11  O48   S    
Cr2   O30   S    
C16   C53   S    
C121  C124  A    
Cr8   O44   S    
C6    C15   S    
Cr11  O26   S    
C26   C34   S    
C112  O7    A    
C54   C140  S    
C119  H4    S    
Cr1   O1    S    
C63   C92   A    
Cr5   O46   S    
C126  O19   A    
C44   H28   S    
Cr3   O40   S    
C129  O31   A    
C60   C137  S    
C15   C23   S    
Cr7   O8    S    
C79   O13   A    
C80   H79   S    
C116  H80   S    
C70   C90   S    
C113  H61   S    
C123  O8    A    
C120  C122  A    
C112  O16   A    
C20   C29   S    
C85   C87   A    
C68   O11   A    
C22   C31   S    
C127  O20   A    
C105  C114  A    
Cr3   O31   S    
C129  O22   A    
Cr9   O13   S    
C12   C21   S    
C122  H7    S    
C104  C113  A    
C138  O40   A    
C111  C120  A    
C66   C99   A    
C25   C51   S    
C63   C100  A    
Cr12  O27   S    
C56   C138  S    
C53   C62   S    
C131  O33   A    
C76   H75   S    
C5    H15   S    
C12   H45   S    
C89   C92   A    
C87   H51   S    
C38   C47   S    
C120  H5    S    
Cr9   O20   S    
C77   C86   A    
C67   C96   A    
Cr1   O44   S    
Cr7   O50   S    
C77   H76   S    
Cr4   O48   S    
Cr1   O12   S    
C24   C47   S    
C135  O12   A    
C18   C27   S    
C57   O2    A    
C10   C13   S    
C66   C91   A    
C42   C51   S    
C142  H9    S    
Cr8   O18   S    
C2    C9    S    
C17   C125  S    
C78   H77   S    
C7    H17   S    
C4    C59   S    
C19   C127  S    
C114  C122  A    
C32   H69   S    
C90   O5    A    
C26   C142  S    
C4    C30   S    
C5    C31   S    
