data_str_m9_o2_o20_f0_sra.sym.14
_audit_creation_date              2012-12-11T16:29:25-0500
_audit_creation_method            fapswitch 2.2
_symmetry_space_group_name_H-M    P1
_symmetry_Int_Tables_number       1
_space_group_crystal_system       triclinic
_cell_length_a                    6.954653
_cell_length_b                    17.345594
_cell_length_c                    18.72214
_cell_angle_alpha                 106.371024
_cell_angle_beta                  89.83826
_cell_angle_gamma                 90.58915
_cell_volume                      2166.81843868

loop_
_atom_site_label
_atom_site_type_symbol
_atom_type_description
_atom_site_fract_x
_atom_site_fract_y
_atom_site_fract_z
_atom_type_partial_charge
O1    O     O_R   0.494360 0.415680 0.413760 -0.532947
O2    O     O_R   0.818810 0.432910 0.557230 -0.529600
O3    O     O_R   0.994290 0.584320 0.586240 -0.532765
C1    C     C_R   0.649837 0.415923 0.580584 0.702646
O4    O     O_R   0.823740 0.406440 0.412520 -0.528965
O5    O     O_R   0.999250 0.557660 0.440500 -0.515895
C2    C     C_R   0.654567 0.384271 0.384403 0.794396
O6    O     O_R   0.489400 0.442340 0.559500 -0.524992
O7    O     O_3   0.662500 0.549650 0.509350 -0.354623
V1    V     V_3+5 0.935340 0.490790 0.498270 1.435710
O8    O     O_R   0.329270 0.567090 0.442770 -0.522943
C3    C     C_R   0.161138 0.584156 0.419486 0.715238
O9    O     O_R   0.324340 0.593560 0.587480 -0.537494
C4    C     C_R   0.155764 0.616564 0.615000 0.690745
V2    V     V_3+5 0.435970 0.509210 0.501730 1.433610
O10   O     O_3   0.158940 0.450350 0.490650 -0.362712
H1    H     H_    0.346008 0.859803 0.552796 0.128638
C5    C     C_R   0.051083 0.595094 0.757075 -0.143570
C6    C     C_R   0.001793 0.582057 0.824869 -0.117044
C7    C     C_R   0.992450 0.646312 0.888728 -0.119607
C8    C     C_R   0.030984 0.724077 0.885114 -0.131770
C9    C     C_R   0.078733 0.739639 0.816682 0.075897
C10   C     C_R   0.090480 0.673551 0.751614 0.065970
C11   C     C_R   0.115140 0.819300 0.812885 -0.179442
C12   C     C_R   0.161880 0.833557 0.742691 0.010938
C13   C     C_R   0.188199 0.765142 0.679206 0.058400
C14   C     C_R   0.146344 0.686148 0.683139 -0.172598
C15   C     C_R   0.180955 0.912772 0.731737 0.115703
C16   C     C_R   0.256029 0.919614 0.663678 -0.088857
C17   C     C_R   0.292401 0.852648 0.604950 -0.174343
C18   C     C_R   0.253028 0.776752 0.611431 -0.140017
H2    H     H_    0.059581 0.542779 0.709299 0.103765
H3    H     H_    0.972249 0.521669 0.827938 0.122287
H4    H     H_    0.955576 0.635888 0.941478 0.120443
H5    H     H_    0.022779 0.771500 0.936810 0.102992
H6    H     H_    0.283785 0.977150 0.653926 0.132945
H7    H     H_    0.276205 0.727213 0.562268 0.111456
C19   C     C_1   0.111888 0.864314 0.132966 -0.225912
C20   C     C_1   0.119404 0.821943 0.176711 -0.010377
C21   C     C_1   0.128808 0.771865 0.228718 -0.003921
C22   C     C_1   0.136770 0.729545 0.272503 -0.004408
C23   C     C_1   0.146022 0.679165 0.324257 -0.005938
C24   C     C_1   0.153395 0.636404 0.367665 -0.226998
C25   C     C_1   0.641170 0.363838 0.632493 -0.219641
C26   C     C_1   0.636755 0.321148 0.675993 -0.005452
C27   C     C_1   0.633049 0.270861 0.727857 0.002088
C28   C     C_1   0.630304 0.228568 0.771713 -0.001363
C29   C     C_1   0.626849 0.178436 0.823689 -0.014300
C30   C     C_1   0.623095 0.135903 0.867316 -0.217700
C31   C     C_R   0.720778 0.407787 0.234389 0.130009
C32   C     C_R   0.759124 0.416488 0.163556 -0.159950
C33   C     C_R   0.755020 0.350891 0.100622 0.232738
C34   C     C_R   0.710680 0.274875 0.108024 -0.176077
C35   C     C_R   0.671341 0.262993 0.178373 -0.008992
C36   C     C_R   0.679199 0.330059 0.243599 0.066549
C37   C     C_R   0.621226 0.185284 0.183571 -0.132170
C38   C     C_R   0.579835 0.173530 0.253844 0.043705
C39   C     C_R   0.592425 0.238974 0.319302 0.013578
C40   C     C_R   0.642752 0.317094 0.314668 -0.152907
C41   C     C_R   0.527747 0.096662 0.260060 -0.237715
C42   C     C_R   0.488562 0.083559 0.329143 0.176342
C43   C     C_R   0.502384 0.148163 0.394176 0.237604
C44   C     C_R   0.554523 0.224692 0.388832 -0.216731
H8    H     H_    0.791440 0.475581 0.157480 0.133532
H9    H     H_    0.706006 0.225240 0.057812 0.101323
H10   H     H_    0.518349 0.045559 0.211092 0.113113
H11   H     H_    0.563944 0.272994 0.439957 0.095618
O11   O     O_R   0.775690 0.057750 0.940570 -0.525233
O12   O     O_R   0.441200 0.093570 0.087490 -0.533650
O13   O     O_R   0.265840 0.942320 0.059480 -0.522481
C45   C     C_R   0.610284 0.116184 0.115249 0.703382
O14   O     O_R   0.446270 0.067110 0.942790 -0.530009
O15   O     O_R   0.270950 0.915660 0.913750 -0.533782
C46   C     C_R   0.615112 0.084001 0.919356 0.710684
O16   O     O_R   0.770580 0.084400 0.086300 -0.532222
O17   O     O_3   0.602640 0.950400 0.990690 -0.357644
V3    V     V_3+5 0.329740 0.009200 0.001730 1.411542
O18   O     O_R   0.940900 0.906360 0.912450 -0.538601
C47   C     C_R   0.109021 0.885507 0.883395 0.681480
O19   O     O_R   0.935830 0.932820 0.057160 -0.524273
C48   C     C_R   0.103981 0.916044 0.080691 0.718078
V4    V     V_3+5 0.829130 0.990680 0.998180 1.409007
O20   O     O_3   0.106100 0.049590 0.009310 -0.358661
N1    N     N_3   0.720850 0.479283 0.295672 -0.663768
H12   H     H_    0.855016 0.507495 0.297497 0.228346
H13   H     H_    0.616752 0.518032 0.285594 0.222402
N2    N     N_3   0.795839 0.362660 0.029187 -0.661999
H14   H     H_    0.684886 0.397097 0.016893 0.227636
H15   H     H_    0.793176 0.307750 0.987685 0.227985
C49   C     C_3   0.433970 0.999907 0.332304 -0.342504
C50   C     C_3   0.603766 0.958680 0.357119 -0.709117
H16   H     H_    0.726107 0.954358 0.317920 0.219050
H17   H     H_    0.650933 0.992509 0.414023 0.248466
H18   H     H_    0.560480 0.897033 0.357632 0.212037
H19   H     H_    0.310630 0.002482 0.370705 0.185370
H20   H     H_    0.386066 0.962213 0.276678 0.170640
C51   C     C_3   0.110140 0.989123 0.788486 -0.358981
C52   C     C_3   0.087459 0.063930 0.761146 -0.772832
H21   H     H_    0.229867 0.087082 0.749198 0.225864
H22   H     H_    0.994019 0.050601 0.711030 0.233663
H23   H     H_    0.019571 0.112248 0.805641 0.230826
H24   H     H_    0.965161 0.976617 0.807753 0.185784
H25   H     H_    0.211042 0.006094 0.835904 0.201503
N3    N     N_3   0.462568 0.135823 0.465562 -0.674341
H26   H     H_    0.313605 0.129528 0.469575 0.221714
H27   H     H_    0.502790 0.186440 0.508496 0.227397

loop_
_geom_bond_atom_site_label_1
_geom_bond_atom_site_label_2
_ccdc_geom_bond_type
C15   C51   S    
N2    H14   S    
C36   C40   A    
C22   C23   S    
O12   V3    S    
C6    C7    A    
C1    O6    A    
N3    H27   S    
C51   C52   S    
C38   C39   A    
C31   N1    S    
C49   H19   S    
C34   C35   A    
C25   C26   T    
C12   C15   A    
C16   H6    S    
C13   C14   A    
C43   C44   A    
C15   C16   A    
N1    H13   S    
C3    C24   S    
O5    C3    A    
C17   C18   A    
V3    O20   S    
O11   C46   A    
V2    O10   S    
C37   C38   A    
C5    C6    A    
O12   C45   A    
O13   C48   A    
C35   C36   A    
O8    V2    S    
N1    H12   S    
O1    V2    S    
C10   C14   A    
C4    C14   S    
C16   C17   A    
C34   H9    S    
O7    V1    S    
C43   N3    S    
C51   H24   S    
C7    H4    S    
C41   H10   S    
C13   C18   A    
C30   C46   S    
O9    C4    A    
O13   V3    S    
H1    C17   S    
C2    C40   S    
N3    H26   S    
C35   C37   A    
C44   H11   S    
C5    C10   A    
C11   C12   A    
O14   C46   A    
C6    H3    S    
O17   V4    S    
C20   C21   S    
O4    C2    A    
O18   C47   A    
C38   C41   A    
C1    C25   S    
C12   C13   A    
C26   C27   S    
C32   C33   A    
C41   C42   A    
O2    C1    A    
O14   V3    S    
C50   H17   S    
O18   V4    S    
C11   C47   S    
C28   C29   S    
C42   C49   S    
C37   C45   S    
C31   C32   A    
O15   C47   A    
O17   V3    S    
C51   H25   S    
O3    C4    A    
O19   V4    S    
C21   C22   T    
C52   H21   S    
O6    V2    S    
C52   H22   S    
N2    H15   S    
C19   C48   S    
C9    C11   A    
C5    H2    S    
C23   C24   T    
O2    V1    S    
C50   H16   S    
C33   C34   A    
C39   C44   A    
C27   C28   T    
C29   C30   T    
O1    C2    A    
C33   N2    S    
C32   H8    S    
O19   C48   A    
O5    V1    S    
O8    C3    A    
O16   V4    S    
C49   H20   S    
C8    H5    S    
C52   H23   S    
C31   C36   A    
O11   V4    S    
O9    V2    S    
C39   C40   A    
O4    V1    S    
O3    V1    S    
V1    O10   S    
C50   H18   S    
C45   O16   A    
C49   C50   S    
C19   C20   T    
O7    V2    S    
C42   C43   A    
C18   H7    S    
C7    C8    A    
V4    O20   S    
O15   V3    S    
C9    C10   A    
C8    C9    A    
