data_str_m2_o10_o17_f0_pcu.sym.93
_audit_creation_date              2012-12-10T16:44:46-0500
_audit_creation_method            fapswitch 2.2
_symmetry_space_group_name_H-M    P1
_symmetry_Int_Tables_number       1
_space_group_crystal_system       triclinic
_cell_length_a                    15.046206
_cell_length_b                    8.792424
_cell_length_c                    7.512099
_cell_angle_alpha                 102.298301
_cell_angle_beta                  94.953085
_cell_angle_gamma                 94.179998
_cell_volume                      963.100879464

loop_
_atom_site_label
_atom_site_type_symbol
_atom_type_description
_atom_site_fract_x
_atom_site_fract_y
_atom_site_fract_z
_atom_type_partial_charge
C1    C     C_R   0.497975 0.201154 0.455232 0.863121
C2    C     C_R   0.502045 0.798843 0.544769 0.867295
C3    C     C_R   0.056421 0.388792 0.769806 -0.211357
C4    C     C_R   0.943668 0.622652 0.241853 -0.219365
C5    C     C_2   0.510903 0.039126 0.434805 -0.069798
C6    C     C_2   0.489172 0.960886 0.565233 -0.068562
C7    C     C_R   0.329221 0.505075 0.501295 0.796425
C8    C     C_R   0.670484 0.493340 0.498243 0.789464
C9    C     C_R   0.809421 0.550858 0.369958 -0.271332
C10   C     C_R   0.190512 0.454374 0.636498 -0.274623
C11   C     C_R   0.766556 0.482733 0.495410 -0.094355
C12   C     C_R   0.232710 0.513264 0.503217 -0.098804
C13   C     C_R   0.816208 0.412083 0.620080 0.106598
C14   C     C_R   0.182216 0.577381 0.373552 0.080596
C15   C     C_R   0.910557 0.429360 0.631032 0.080358
C16   C     C_R   0.088820 0.573103 0.373723 0.108583
C17   C     C_R   0.952963 0.498601 0.502800 0.029696
C18   C     C_R   0.046742 0.507952 0.505248 0.025811
C19   C     C_R   0.901780 0.556720 0.370367 0.104693
C20   C     C_R   0.098153 0.450935 0.638320 0.108612
C21   C     C_R   0.963593 0.377928 0.766359 -0.202563
C22   C     C_R   0.036287 0.630492 0.243006 -0.186000
Cu1   Cu    Cu3+1 0.510010 0.517380 0.684380 0.972480
Cu2   Cu    Cu3+1 0.489990 0.482620 0.315620 0.965617
H1    H     H_    0.770754 0.602538 0.273522 0.165883
H2    H     H_    0.229457 0.406668 0.736269 0.160755
H3    H     H_    0.934021 0.329929 0.871232 0.174724
H4    H     H_    0.066215 0.680643 0.139995 0.186994
H5    H     H_    0.095592 0.347129 0.874596 0.148617
H6    H     H_    0.904676 0.667396 0.139449 0.155938
N1    N     N_2   0.474890 0.456420 0.038520 0.000960
N2    N     N_2   0.525110 0.543580 0.961480 -0.000682
O1    O     O_R   0.506510 0.286130 0.619770 -0.623529
O2    O     O_R   0.493490 0.713870 0.380230 -0.621500
O3    O     O_R   0.489600 0.256770 0.308360 -0.558743
O4    O     O_R   0.510400 0.743230 0.691640 -0.561539
O5    O     O_R   0.378710 0.514640 0.655720 -0.569554
O6    O     O_R   0.621290 0.485360 0.344280 -0.570090
O7    O     O_R   0.361800 0.485290 0.344300 -0.606892
O8    O     O_R   0.638200 0.514710 0.655700 -0.587403
N3    N     N_3   0.772475 0.318785 0.730012 -0.565206
H7    H     H_    0.801013 0.212348 0.712355 0.198522
H8    H     H_    0.706176 0.283045 0.676350 0.234248
N4    N     N_3   0.224412 0.650621 0.244684 -0.602635
H9    H     H_    0.277374 0.730960 0.313752 0.236600
H10   H     H_    0.248080 0.565087 0.145862 0.252257
N5    N     N_3   0.556353 0.972773 0.279991 -0.589635
H11   H     H_    0.512742 0.890266 0.185560 0.264033
H12   H     H_    0.613418 0.924986 0.325181 0.197471
N6    N     N_3   0.443773 0.027253 0.720112 -0.588179
H13   H     H_    0.487407 0.109757 0.814497 0.264237
H14   H     H_    0.386683 0.075004 0.674984 0.200615
N7    N     N_3   0.389472 0.409520 0.950466 -0.444714
H15   H     H_    0.355477 0.348161 0.032258 0.212080
H16   H     H_    0.395520 0.323540 0.835026 0.218915
N8    N     N_3   0.610621 0.589928 0.049381 -0.418527
H17   H     H_    0.644921 0.650508 0.967286 0.221566
H18   H     H_    0.604765 0.676404 0.164508 0.211822

loop_
_geom_bond_atom_site_label_1
_geom_bond_atom_site_label_2
_ccdc_geom_bond_type
Cu2   O6    S    
Cu1   Cu2   S    
C15   C17   A    
N8    H18   S    
C4    C22   A    
N3    H7    S    
N3    H8    S    
N7    H16   S    
N6    H14   S    
N1    N2    D    
C9    C11   A    
Cu1   N2    S    
C10   H2    S    
C13   N3    S    
C17   C18   A    
C7    O5    A    
Cu2   N1    S    
C1    O1    A    
C3    C20   A    
N5    H12   S    
C22   H4    S    
N7    H15   S    
N1    N7    S    
C11   C13   A    
C2    O2    A    
C2    C6    S    
C10   C12   A    
C8    O6    A    
C8    C11   S    
C1    C5    S    
C14   N4    S    
C5    N5    S    
C12   C14   A    
N6    H13   S    
C18   C20   A    
C13   C15   A    
C21   H3    S    
C5    C6    D    
C14   C16   A    
C7    C12   S    
C3    C21   A    
Cu2   O3    S    
C9    H1    S    
Cu1   O8    S    
C6    N6    S    
C15   C21   A    
Cu2   O7    S    
C8    O8    A    
N8    H17   S    
C1    O3    A    
C16   C18   A    
Cu1   O4    S    
C2    O4    A    
C3    H5    S    
C7    O7    A    
C16   C22   A    
N4    H10   S    
C17   C19   A    
Cu1   O5    S    
C4    C19   A    
N2    N8    S    
C4    H6    S    
N4    H9    S    
N5    H11   S    
C9    C19   A    
C10   C20   A    
Cu1   O1    S    
Cu2   O2    S    
