data_str_m9_o28_o28_f0_sra.sym.83
_audit_creation_date              2012-12-11T16:19:18-0500
_audit_creation_method            fapswitch 2.2
_symmetry_space_group_name_H-M    P1
_symmetry_Int_Tables_number       1
_space_group_crystal_system       triclinic
_cell_length_a                    6.900329
_cell_length_b                    31.318643
_cell_length_c                    35.150305
_cell_angle_alpha                 89.999964
_cell_angle_beta                  90.000222
_cell_angle_gamma                 90.0
_cell_volume                      7596.29517292

loop_
_atom_site_label
_atom_site_type_symbol
_atom_type_description
_atom_site_fract_x
_atom_site_fract_y
_atom_site_fract_z
_atom_type_partial_charge
O1    O     O_R   0.417270 0.211480 0.210950 -0.532107
O2    O     O_R   0.582730 0.788520 0.789050 -0.532107
O3    O     O_R   0.582730 0.788520 0.710950 -0.532106
O4    O     O_R   0.417270 0.211480 0.289050 -0.532106
O5    O     O_R   0.917270 0.288520 0.289050 -0.532106
O6    O     O_R   0.082730 0.711480 0.710950 -0.532106
O7    O     O_R   0.082730 0.711480 0.789050 -0.532106
O8    O     O_R   0.917270 0.288520 0.210950 -0.532106
O9    O     O_R   0.746940 0.206370 0.288750 -0.543963
O10   O     O_R   0.253060 0.793630 0.711250 -0.543963
O11   O     O_R   0.253060 0.793630 0.788750 -0.543963
O12   O     O_R   0.746940 0.206370 0.211250 -0.543963
O13   O     O_R   0.246940 0.293630 0.211250 -0.543963
O14   O     O_R   0.753060 0.706370 0.788750 -0.543963
O15   O     O_R   0.753060 0.706370 0.711250 -0.543963
O16   O     O_R   0.246940 0.293630 0.288750 -0.543963
C1    C     C_R   0.577733 0.196793 0.302742 0.721821
C2    C     C_R   0.422267 0.803207 0.697258 0.721820
C3    C     C_R   0.422267 0.803207 0.802742 0.721822
C4    C     C_R   0.577733 0.196793 0.197258 0.721821
C5    C     C_R   0.077732 0.303207 0.197258 0.721821
C6    C     C_R   0.922267 0.696793 0.802742 0.721822
C7    C     C_R   0.922267 0.696793 0.697258 0.721820
C8    C     C_R   0.077733 0.303207 0.302742 0.721820
O17   O     O_3   0.583760 0.276950 0.250000 -0.367249
O18   O     O_3   0.416240 0.723050 0.750000 -0.367249
O19   O     O_3   0.083760 0.223050 0.250000 -0.367249
O20   O     O_3   0.916240 0.776950 0.750000 -0.367250
V1    V     V_3+5 0.858600 0.245000 0.250000 1.387988
V2    V     V_3+5 0.141400 0.755000 0.750000 1.387988
V3    V     V_3+5 0.358600 0.255000 0.250000 1.387988
V4    V     V_3+5 0.641400 0.745000 0.750000 1.387988
C9    C     C_R   0.948515 0.587810 0.537376 0.579385
C10   C     C_R   0.051485 0.412190 0.462624 0.579385
C11   C     C_R   0.051488 0.412190 0.037376 0.579386
C12   C     C_R   0.948512 0.587810 0.962624 0.579386
C13   C     C_R   0.448519 0.912190 0.962624 0.579386
C14   C     C_R   0.551481 0.087810 0.037376 0.579386
C15   C     C_R   0.551489 0.087810 0.462624 0.579386
C16   C     C_R   0.448511 0.912190 0.537376 0.579386
N1    N     N_R   0.952422 0.574231 0.574331 -0.552973
N2    N     N_R   0.047578 0.425769 0.425669 -0.552973
N3    N     N_R   0.047576 0.425769 0.074331 -0.552974
N4    N     N_R   0.952424 0.574231 0.925669 -0.552974
N5    N     N_R   0.452424 0.925769 0.925669 -0.552974
N6    N     N_R   0.547576 0.074231 0.074331 -0.552974
N7    N     N_R   0.547578 0.074231 0.425669 -0.552973
N8    N     N_R   0.452422 0.925769 0.574331 -0.552973
C17   C     C_R   0.972590 0.531804 0.583038 0.573722
C18   C     C_R   0.027410 0.468196 0.416962 0.573722
C19   C     C_R   0.027404 0.468196 0.083038 0.573721
C20   C     C_R   0.972596 0.531804 0.916962 0.573721
C21   C     C_R   0.472589 0.968196 0.916962 0.573721
C22   C     C_R   0.527411 0.031804 0.083038 0.573721
C23   C     C_R   0.527406 0.031804 0.416962 0.573721
C24   C     C_R   0.472593 0.968196 0.583038 0.573721
C25   C     C_R   0.991520 0.500571 0.553727 -0.034547
C26   C     C_R   0.008480 0.499429 0.446273 -0.034547
C27   C     C_R   0.008474 0.499429 0.053727 -0.034548
C28   C     C_R   0.991526 0.500571 0.946273 -0.034548
C29   C     C_R   0.491519 0.999429 0.946273 -0.034547
C30   C     C_R   0.508481 0.000571 0.053727 -0.034546
C31   C     C_R   0.508476 0.000571 0.446273 -0.034547
C32   C     C_R   0.491524 0.999429 0.553727 -0.034547
C33   C     C_R   0.989771 0.514739 0.515282 -0.047890
C34   C     C_R   0.010229 0.485261 0.484718 -0.047890
C35   C     C_R   0.010228 0.485261 0.015282 -0.047890
C36   C     C_R   0.989772 0.514739 0.984718 -0.047890
C37   C     C_R   0.489772 0.985261 0.984718 -0.047890
C38   C     C_R   0.510228 0.014739 0.015282 -0.047890
C39   C     C_R   0.510229 0.014739 0.484718 -0.047890
C40   C     C_R   0.489771 0.985261 0.515282 -0.047890
C41   C     C_R   0.967692 0.558495 0.507289 -0.058580
C42   C     C_R   0.032308 0.441505 0.492710 -0.058580
C43   C     C_R   0.032312 0.441505 0.007290 -0.058580
C44   C     C_R   0.967688 0.558495 0.992710 -0.058580
C45   C     C_R   0.467695 0.941505 0.992710 -0.058580
C46   C     C_R   0.532305 0.058495 0.007290 -0.058580
C47   C     C_R   0.532312 0.058495 0.492710 -0.058581
C48   C     C_R   0.467688 0.941505 0.507290 -0.058581
C49   C     C_R   0.013712 0.456010 0.561083 0.125389
C50   C     C_R   0.986288 0.543990 0.438917 0.125389
C51   C     C_R   0.986276 0.543990 0.061083 0.125389
C52   C     C_R   0.013724 0.456010 0.938917 0.125389
C53   C     C_R   0.513709 0.043990 0.938917 0.125389
C54   C     C_R   0.486291 0.956010 0.061083 0.125389
C55   C     C_R   0.486279 0.956010 0.438917 0.125390
C56   C     C_R   0.513721 0.043990 0.561083 0.125390
C57   C     C_R   0.033828 0.427507 0.530553 -0.130085
C58   C     C_R   0.966172 0.572493 0.469447 -0.130085
C59   C     C_R   0.966162 0.572493 0.030553 -0.130085
C60   C     C_R   0.033838 0.427507 0.969446 -0.130085
C61   C     C_R   0.533824 0.072493 0.969447 -0.130085
C62   C     C_R   0.466176 0.927507 0.030553 -0.130085
C63   C     C_R   0.466164 0.927508 0.469447 -0.130085
C64   C     C_R   0.533836 0.072492 0.530553 -0.130085
O21   O     O_2   0.925804 0.629750 0.529730 -0.520381
O22   O     O_2   0.074196 0.370250 0.470270 -0.520381
O23   O     O_2   0.074203 0.370250 0.029730 -0.520381
O24   O     O_2   0.925797 0.629750 0.970270 -0.520381
O25   O     O_2   0.425809 0.870250 0.970270 -0.520381
O26   O     O_2   0.574191 0.129750 0.029730 -0.520381
O27   O     O_2   0.574204 0.129749 0.470270 -0.520381
O28   O     O_2   0.425796 0.870250 0.529730 -0.520381
O29   O     O_2   0.977036 0.520367 0.619968 -0.527520
O30   O     O_2   0.022964 0.479633 0.380032 -0.527520
O31   O     O_2   0.022953 0.479633 0.119968 -0.527519
O32   O     O_2   0.977047 0.520367 0.880032 -0.527519
O33   O     O_2   0.477034 0.979633 0.880032 -0.527520
O34   O     O_2   0.522966 0.020367 0.119968 -0.527520
O35   O     O_2   0.522957 0.020367 0.380032 -0.527520
O36   O     O_2   0.477043 0.979633 0.619968 -0.527520
H1    H     H_    0.050590 0.393758 0.536511 0.172498
H2    H     H_    0.949410 0.606241 0.463489 0.172498
H3    H     H_    0.949396 0.606242 0.036512 0.172498
H4    H     H_    0.050604 0.393758 0.963488 0.172498
H5    H     H_    0.550584 0.106242 0.963489 0.172499
H6    H     H_    0.449416 0.893758 0.036511 0.172499
H7    H     H_    0.449398 0.893759 0.463489 0.172499
H8    H     H_    0.550602 0.106241 0.536511 0.172499
C65   C     C_R   0.215485 0.392685 0.370755 -0.086721
C66   C     C_R   0.784515 0.607315 0.629245 -0.086721
C67   C     C_R   0.784517 0.607315 0.870755 -0.086721
C68   C     C_R   0.215483 0.392685 0.129245 -0.086722
C69   C     C_R   0.715484 0.107316 0.129245 -0.086721
C70   C     C_R   0.284516 0.892684 0.870755 -0.086722
C71   C     C_R   0.284515 0.892685 0.629245 -0.086721
C72   C     C_R   0.715485 0.107315 0.370755 -0.086721
H9    H     H_    0.335743 0.414482 0.374565 0.135866
H10   H     H_    0.664257 0.585518 0.625435 0.135866
H11   H     H_    0.664259 0.585518 0.874565 0.135865
H12   H     H_    0.335741 0.414482 0.125435 0.135865
H13   H     H_    0.835743 0.085518 0.125435 0.135865
H14   H     H_    0.164257 0.914481 0.874565 0.135865
H15   H     H_    0.164257 0.914482 0.625435 0.135865
H16   H     H_    0.835743 0.085518 0.374565 0.135865
C73   C     C_R   0.220774 0.362827 0.341118 -0.244187
C74   C     C_R   0.779226 0.637173 0.658882 -0.244187
C75   C     C_R   0.779228 0.637173 0.841117 -0.244186
C76   C     C_R   0.220772 0.362827 0.158883 -0.244186
C77   C     C_R   0.720773 0.137173 0.158882 -0.244188
C78   C     C_R   0.279227 0.862827 0.841118 -0.244187
C79   C     C_R   0.279226 0.862827 0.658882 -0.244188
C80   C     C_R   0.720773 0.137173 0.341118 -0.244187
H17   H     H_    0.345788 0.362559 0.322493 0.145805
H18   H     H_    0.654212 0.637441 0.677507 0.145805
H19   H     H_    0.654213 0.637441 0.822492 0.145805
H20   H     H_    0.345786 0.362559 0.177508 0.145805
H21   H     H_    0.845789 0.137442 0.177507 0.145805
H22   H     H_    0.154211 0.862558 0.822493 0.145805
H23   H     H_    0.154212 0.862559 0.677507 0.145805
H24   H     H_    0.845788 0.137441 0.322493 0.145805
C81   C     C_R   0.066236 0.334149 0.335124 -0.072658
C82   C     C_R   0.933764 0.665851 0.664876 -0.072658
C83   C     C_R   0.933765 0.665851 0.835124 -0.072659
C84   C     C_R   0.066235 0.334149 0.164876 -0.072659
C85   C     C_R   0.566235 0.165851 0.164876 -0.072658
C86   C     C_R   0.433765 0.834148 0.835124 -0.072658
C87   C     C_R   0.433763 0.834149 0.664876 -0.072658
C88   C     C_R   0.566237 0.165851 0.335124 -0.072659
C89   C     C_R   0.905249 0.335545 0.360614 0.111223
C90   C     C_R   0.094751 0.664455 0.639386 0.111223
C91   C     C_R   0.094752 0.664455 0.860614 0.111223
C92   C     C_R   0.905248 0.335545 0.139385 0.111223
C93   C     C_R   0.405247 0.164455 0.139386 0.111223
C94   C     C_R   0.594753 0.835545 0.860614 0.111223
C95   C     C_R   0.594750 0.835544 0.639386 0.111223
C96   C     C_R   0.405250 0.164455 0.360614 0.111222
C97   C     C_R   0.902614 0.365886 0.390150 -0.087481
C98   C     C_R   0.097385 0.634114 0.609850 -0.087481
C99   C     C_R   0.097387 0.634114 0.890150 -0.087481
C100  C     C_R   0.902613 0.365886 0.109850 -0.087481
C101  C     C_R   0.402611 0.134113 0.109850 -0.087481
C102  C     C_R   0.597389 0.865886 0.890150 -0.087481
C103  C     C_R   0.597385 0.865886 0.609850 -0.087481
C104  C     C_R   0.402615 0.134114 0.390150 -0.087481
H25   H     H_    0.780062 0.367507 0.409378 0.128349
H26   H     H_    0.219938 0.632493 0.590622 0.128349
H27   H     H_    0.219939 0.632493 0.909379 0.128348
H28   H     H_    0.780061 0.367507 0.090621 0.128349
H29   H     H_    0.280058 0.132492 0.090622 0.128348
H30   H     H_    0.719942 0.867508 0.909378 0.128348
H31   H     H_    0.719937 0.867507 0.590621 0.128348
H32   H     H_    0.280063 0.132493 0.409378 0.128348
C105  C     C_R   0.055963 0.394557 0.395341 0.341307
C106  C     C_R   0.944037 0.605443 0.604659 0.341307
C107  C     C_R   0.944039 0.605443 0.895341 0.341307
C108  C     C_R   0.055961 0.394557 0.104659 0.341308
C109  C     C_R   0.555961 0.105443 0.104659 0.341308
C110  C     C_R   0.444039 0.894557 0.895341 0.341308
C111  C     C_R   0.444037 0.894557 0.604659 0.341309
C112  C     C_R   0.555963 0.105443 0.395341 0.341309
C113  C     C_3   0.016639 0.437165 0.600661 -0.655172
H33   H     H_    0.878109 0.444179 0.615456 0.234693
H34   H     H_    0.033085 0.401883 0.600281 0.181587
H35   H     H_    0.141302 0.450110 0.616954 0.236409
C114  C     C_3   0.983361 0.562834 0.399338 -0.655172
H36   H     H_    0.121891 0.555821 0.384544 0.234693
H37   H     H_    0.858698 0.549890 0.383046 0.236409
H38   H     H_    0.966915 0.598117 0.399719 0.181587
C115  C     C_3   0.983343 0.562835 0.100662 -0.655169
H39   H     H_    0.121873 0.555822 0.115457 0.234693
H40   H     H_    0.966893 0.598117 0.100281 0.181586
H41   H     H_    0.858679 0.549889 0.116953 0.236408
C116  C     C_3   0.016657 0.437165 0.899338 -0.655168
H42   H     H_    0.878127 0.444178 0.884543 0.234693
H43   H     H_    0.141321 0.450111 0.883047 0.236408
H44   H     H_    0.033107 0.401883 0.899719 0.181586
C117  C     C_3   0.516633 0.062835 0.899339 -0.655171
H45   H     H_    0.378103 0.055821 0.884544 0.234693
H46   H     H_    0.533078 0.098117 0.899719 0.181586
H47   H     H_    0.641297 0.049890 0.883046 0.236409
C118  C     C_3   0.483367 0.937165 0.100661 -0.655171
H48   H     H_    0.621897 0.944179 0.115456 0.234693
H49   H     H_    0.358703 0.950110 0.116954 0.236409
H50   H     H_    0.466922 0.901883 0.100281 0.181586
C119  C     C_3   0.483348 0.937166 0.399338 -0.655171
H51   H     H_    0.621878 0.944178 0.384544 0.234693
H52   H     H_    0.466898 0.901883 0.399719 0.181586
H53   H     H_    0.358685 0.950111 0.383047 0.236409
C120  C     C_3   0.516652 0.062834 0.600661 -0.655171
H54   H     H_    0.378122 0.055822 0.615456 0.234693
H55   H     H_    0.641315 0.049889 0.616953 0.236408
H56   H     H_    0.533102 0.098117 0.600281 0.181586
C121  C     C_3   0.737292 0.304768 0.357971 -0.724506
H57   H     H_    0.651879 0.311109 0.331828 0.215114
H58   H     H_    0.791450 0.271371 0.357868 0.202619
H59   H     H_    0.636784 0.308023 0.382492 0.202614
C122  C     C_3   0.262708 0.695232 0.642029 -0.724507
H60   H     H_    0.348121 0.688891 0.668172 0.215114
H61   H     H_    0.363216 0.691976 0.617507 0.202614
H62   H     H_    0.208550 0.728629 0.642132 0.202619
C123  C     C_3   0.262710 0.695232 0.857971 -0.724506
H63   H     H_    0.348122 0.688891 0.831829 0.215114
H64   H     H_    0.208551 0.728629 0.857868 0.202619
H65   H     H_    0.363217 0.691977 0.882493 0.202615
C124  C     C_3   0.737290 0.304768 0.142029 -0.724506
H66   H     H_    0.651878 0.311109 0.168171 0.215113
H67   H     H_    0.636783 0.308023 0.117507 0.202615
H68   H     H_    0.791449 0.271371 0.142132 0.202619
C125  C     C_3   0.237287 0.195231 0.142029 -0.724506
H69   H     H_    0.151877 0.188890 0.168172 0.215114
H70   H     H_    0.291444 0.228628 0.142132 0.202619
H71   H     H_    0.136778 0.191975 0.117508 0.202614
C126  C     C_3   0.762713 0.804769 0.857971 -0.724505
H72   H     H_    0.848123 0.811110 0.831828 0.215114
H73   H     H_    0.863222 0.808025 0.882492 0.202614
H74   H     H_    0.708556 0.771372 0.857867 0.202619
C127  C     C_3   0.762708 0.804768 0.642029 -0.724506
H75   H     H_    0.848121 0.811109 0.668171 0.215114
H76   H     H_    0.708549 0.771371 0.642132 0.202619
H77   H     H_    0.863215 0.808023 0.617507 0.202615
C128  C     C_3   0.237292 0.195232 0.357971 -0.724506
H78   H     H_    0.151879 0.188891 0.331828 0.215114
H79   H     H_    0.136785 0.191977 0.382493 0.202615
H80   H     H_    0.291451 0.228629 0.357868 0.202619

loop_
_geom_bond_atom_site_label_1
_geom_bond_atom_site_label_2
_ccdc_geom_bond_type
O17   V3    S    
C56   C64   A    
C50   C58   A    
O18   V4    S    
O12   V1    S    
O19   V1    S    
C62   H6    S    
C115  H39   S    
C37   C45   A    
C10   N2    A    
C78   H22   S    
C51   C115  S    
C76   H20   S    
C59   H3    S    
C39   C47   A    
C77   H21   S    
O15   V4    S    
C116  H42   S    
C119  H53   S    
C30   C54   A    
C75   H19   S    
C127  H75   S    
C122  H60   S    
O12   C4    A    
C98   H26   S    
O8    V1    S    
N3    C108  S    
C42   C57   A    
C73   H17   S    
C94   C126  S    
C27   C51   A    
C41   C58   A    
C120  H56   S    
C26   C50   A    
C103  C111  A    
C128  H78   S    
C104  C112  A    
C38   C46   A    
C96   C128  S    
C46   C61   A    
C93   C101  A    
C98   C106  A    
C34   C42   A    
C124  H67   S    
C67   C75   A    
C45   C62   A    
O1    V3    S    
C121  H59   S    
C17   C25   A    
C22   O34   S    
O3    C2    A    
N8    C24   A    
C125  H69   S    
C65   C73   A    
N7    C112  S    
C70   C110  A    
C1    C88   S    
C16   N8    A    
N8    C111  S    
C2    C87   S    
C54   C62   A    
C27   C35   A    
C73   C81   A    
C21   C29   A    
C52   C116  S    
C26   C34   A    
O11   V2    S    
C69   C77   A    
C102  H30   S    
C113  H34   S    
C23   C31   A    
C31   C55   A    
C16   C48   A    
C80   C88   A    
C11   N3    A    
C123  H63   S    
C119  H52   S    
C89   C121  S    
C113  H33   S    
C12   N4    A    
O9    V1    S    
C49   C57   A    
C100  H28   S    
O15   C7    A    
N5    C21   A    
C58   H2    S    
O16   C8    A    
O7    V2    S    
C124  H66   S    
C67   C107  A    
C115  H40   S    
C30   C38   A    
C99   H27   S    
C114  H36   S    
C61   H5    S    
C78   C86   A    
C19   O31   S    
C11   O23   S    
C90   C122  S    
C53   C117  S    
C97   H25   S    
C3    C86   S    
C68   H12   S    
C82   C90   A    
C117  H47   S    
C117  H45   S    
C19   C27   A    
O5    V1    S    
C6    C83   S    
C116  H43   S    
C76   C84   A    
O17   V1    S    
O10   C2    A    
C57   H1    S    
C127  H76   S    
C67   H11   S    
O19   V3    S    
C35   C36   A    
C18   C26   A    
O20   V4    S    
C66   C74   A    
C50   C114  S    
C124  H68   S    
C33   C41   A    
C85   C93   A    
C68   C108  A    
C17   O29   S    
C14   C46   A    
C83   C91   A    
C119  H51   S    
C118  H48   S    
C15   N7    A    
C66   H10   S    
C70   C78   A    
C64   H8    S    
C71   C111  A    
C40   C48   A    
C55   C63   A    
C125  H70   S    
C65   C105  A    
C15   C47   A    
C44   C59   A    
C114  H38   S    
C120  H54   S    
C91   C123  S    
C16   O28   S    
C123  H64   S    
O10   V2    S    
C128  H79   S    
C53   C61   A    
C90   C98   A    
C75   C83   A    
N2    C18   A    
C113  H35   S    
O11   C3    A    
N6    C22   A    
C24   C32   A    
O8    C5    A    
O13   C5    A    
O3    V4    S    
C12   O24   S    
C71   C79   A    
C36   C44   A    
O9    C1    A    
C48   C63   A    
C15   O27   S    
C60   H4    S    
C20   O32   S    
C31   C39   A    
C29   C53   A    
C43   C60   A    
C102  C110  A    
C96   C104  A    
O4    C1    A    
C77   C85   A    
N2    C105  S    
C9    C41   A    
O6    V2    S    
C10   C42   A    
C114  H37   S    
O18   V2    S    
C4    C85   S    
C126  H73   S    
O14   C6    A    
C122  H61   S    
C115  H41   S    
C25   C49   A    
C7    C82   S    
C35   C43   A    
N6    C109  S    
C13   N5    A    
O7    C6    A    
C55   C119  S    
C91   C99   A    
C8    C81   S    
C86   C94   A    
N7    C23   A    
O16   V3    S    
C116  H44   S    
C29   C37   A    
C104  H32   S    
C92   C100  A    
C118  H50   S    
C65   H9    S    
C127  H77   S    
C32   C56   A    
C101  C109  A    
C23   O35   S    
O2    C3    A    
C103  H31   S    
C68   C76   A    
C11   C43   A    
C71   H15   S    
O1    C4    A    
C95   C127  S    
N4    C20   A    
C128  H80   S    
C69   C109  A    
C79   C87   A    
C122  H62   S    
N1    C17   A    
C51   C59   A    
C94   C102  A    
C69   H13   S    
C72   C80   A    
C99   C107  A    
C120  H55   S    
C125  H71   S    
C9    N1    A    
C39   C40   A    
C10   O22   S    
C72   H16   S    
C84   C92   A    
C118  H49   S    
C89   C97   A    
O20   V2    S    
C14   O26   S    
C14   N6    A    
C13   O25   S    
C28   C52   A    
N3    C19   A    
O5    C8    A    
C13   C45   A    
C97   C105  A    
C74   H18   S    
O6    C7    A    
C79   H23   S    
C121  H58   S    
C5    C84   S    
C87   C95   A    
N1    C106  S    
C95   C103  A    
C9    O21   S    
C32   C40   A    
C101  H29   S    
C37   C38   A    
O13   V3    S    
C123  H65   S    
C88   C96   A    
C54   C118  S    
O4    V3    S    
C66   C106  A    
C28   C36   A    
N4    C107  S    
C49   C113  S    
N5    C110  S    
C47   C64   A    
C93   C125  S    
C100  C108  A    
C70   H14   S    
C20   C28   A    
C33   C34   A    
C63   H7    S    
C126  H74   S    
C81   C89   A    
C92   C124  S    
C18   O30   S    
C117  H46   S    
C56   C120  S    
C22   C30   A    
C21   O33   S    
C52   C60   A    
C72   C112  A    
C74   C82   A    
C126  H72   S    
O14   V4    S    
C12   C44   A    
C24   O36   S    
C80   H24   S    
C25   C33   A    
O2    V4    S    
C121  H57   S    
