data_str_m3_o10_o28_f0_pcu.sym.180
_audit_creation_date              2012-12-10T16:58:26-0500
_audit_creation_method            fapswitch 2.2
_symmetry_space_group_name_H-M    P1
_symmetry_Int_Tables_number       1
_space_group_crystal_system       triclinic
_cell_length_a                    7.725487
_cell_length_b                    8.630278
_cell_length_c                    23.412929
_cell_angle_alpha                 91.502303
_cell_angle_beta                  85.961483
_cell_angle_gamma                 93.521837
_cell_volume                      1553.82003742

loop_
_atom_site_label
_atom_site_type_symbol
_atom_type_description
_atom_site_fract_x
_atom_site_fract_y
_atom_site_fract_z
_atom_type_partial_charge
C1    C     C_R   0.545253 0.794545 0.498690 0.917203
C2    C     C_R   0.454541 0.205704 0.500501 0.914396
C3    C     C_R   0.684468 0.449296 0.752794 -0.128314
C4    C     C_R   0.664964 0.509445 0.235562 -0.121479
C5    C     C_R   0.670273 0.463122 0.694708 -0.277507
C6    C     C_R   0.657006 0.509035 0.294572 -0.264892
C7    C     C_R   0.508279 0.483035 0.673101 -0.161955
C8    C     C_R   0.496151 0.501391 0.326488 -0.168702
C9    C     C_R   0.357178 0.483964 0.711075 0.151387
C10   C     C_R   0.340337 0.496955 0.297885 0.159264
C11   C     C_R   0.371540 0.470130 0.770085 0.446491
C12   C     C_R   0.348495 0.502428 0.237847 0.455590
C13   C     C_R   0.537440 0.454412 0.790511 0.159790
C14   C     C_R   0.512682 0.504973 0.207036 0.147474
C15   C     C_2   0.564739 0.955332 0.489201 -0.031123
C16   C     C_2   0.433505 0.044839 0.508762 -0.029412
C17   C     C_R   0.501866 0.496826 0.610858 0.900767
C18   C     C_R   0.497613 0.499442 0.389126 0.899551
C19   C     C_R   0.490475 0.353983 0.119961 0.557383
C20   C     C_R   0.611368 0.592073 0.876394 0.561597
C21   C     C_R   0.582529 0.623358 0.116111 0.547693
C22   C     C_R   0.520575 0.322391 0.879920 0.549560
C23   C     C_R   0.599931 0.615587 0.056455 -0.036610
C24   C     C_R   0.521007 0.325767 0.939514 -0.038726
C25   C     C_R   0.557396 0.473776 0.028104 -0.096829
C26   C     C_R   0.566305 0.466894 0.967917 -0.098049
C27   C     C_R   0.503196 0.339869 0.059903 -0.059305
C28   C     C_R   0.617037 0.601690 0.936189 -0.056275
C29   C     C_R   0.657298 0.746919 0.024985 -0.279272
C30   C     C_R   0.471683 0.192547 0.970968 -0.273530
C31   C     C_R   0.666765 0.741825 0.965013 0.461049
C32   C     C_R   0.461834 0.197741 0.030986 0.461205
H1    H     H_    0.693212 0.854902 0.046988 0.211449
H2    H     H_    0.437514 0.084168 0.948940 0.211832
H3    H     H_    0.810901 0.437584 0.768925 0.187723
H4    H     H_    0.790318 0.511403 0.211640 0.198404
H5    H     H_    0.787500 0.458807 0.666682 0.187867
H6    H     H_    0.778133 0.513613 0.315182 0.192815
H7    H     H_    0.013982 0.378845 0.458513 0.200142
H8    H     H_    0.986093 0.619664 0.542276 0.192656
N1    N     N_R   0.527074 0.494351 0.146134 -0.379433
N2    N     N_R   0.559930 0.455235 0.850303 -0.377872
N3    N     N_2   0.950330 0.457950 0.484560 -0.170125
N4    N     N_2   0.049670 0.542050 0.515440 -0.166631
O1    O     O_R   0.389250 0.738570 0.503790 -0.589888
O2    O     O_R   0.610750 0.261430 0.496210 -0.586412
O3    O     O_R   0.678390 0.711620 0.493890 -0.642319
O4    O     O_R   0.321610 0.288380 0.506110 -0.643313
O5    O     O_R   0.355400 0.513520 0.588790 -0.584726
O6    O     O_R   0.644600 0.486480 0.411210 -0.625405
O7    O     O_R   0.644550 0.486570 0.578900 -0.634782
O8    O     O_R   0.355450 0.513430 0.421100 -0.597138
O9    O     O_2   0.441757 0.229652 0.152362 -0.442409
O10   O     O_2   0.652553 0.718385 0.844272 -0.449755
O11   O     O_2   0.619169 0.758832 0.144161 -0.504497
O12   O     O_2   0.477136 0.188860 0.851642 -0.503317
Zn1   Zn    Zn3+2 0.306930 0.518000 0.506610 0.962600
Zn2   Zn    Zn3+2 0.693070 0.482000 0.493390 0.945370
O13   O     O_3   0.722896 0.872424 0.934344 -0.685876
H9    H     H_    0.753810 0.958896 0.961187 0.330301
O14   O     O_3   0.409600 0.066168 0.061621 -0.683826
H10   H     H_    0.382732 0.978684 0.034739 0.328742
N5    N     N_2   0.190702 0.500552 0.690304 -0.284312
H11   H     H_    0.094262 0.425449 0.708286 0.248596
C33   C     C_3   0.140053 0.659113 0.690985 -0.673423
H12   H     H_    0.111361 0.701031 0.735730 0.274743
H13   H     H_    0.022101 0.665794 0.666941 0.216377
H14   H     H_    0.245658 0.735296 0.670203 0.237628
N6    N     N_2   0.175284 0.485127 0.329005 -0.276937
H15   H     H_    0.087687 0.558280 0.314775 0.253874
C34   C     C_3   0.102610 0.327329 0.334857 -0.726245
H16   H     H_    0.082126 0.273172 0.292075 0.274842
H17   H     H_    0.975008 0.327345 0.359760 0.222094
H18   H     H_    0.190550 0.257293 0.357831 0.229315
O15   O     O_3   0.222167 0.477483 0.806091 -0.770717
H19   H     H_    0.250726 0.474796 0.846526 0.343071
O16   O     O_3   0.194440 0.501402 0.211056 -0.776507
H20   H     H_    0.219220 0.520909 0.169750 0.345010
N7    N     N_2   0.709258 0.011578 0.452113 -0.299983
H21   H     H_    0.824098 0.960894 0.457869 0.236159
C35   C     C_3   0.673292 0.015475 0.392345 -0.733541
H22   H     H_    0.788988 0.066682 0.367182 0.241310
H23   H     H_    0.562139 0.088221 0.386787 0.232365
H24   H     H_    0.643040 0.895884 0.375558 0.233544
N8    N     N_2   0.286662 0.988738 0.544726 -0.292042
H25   H     H_    0.169993 0.023254 0.532043 0.236720
C36   C     C_3   0.304319 0.017625 0.605243 -0.757413
H26   H     H_    0.185048 0.971599 0.629849 0.238236
H27   H     H_    0.320901 0.144354 0.614736 0.238791
H28   H     H_    0.417877 0.959076 0.619169 0.237847

loop_
_geom_bond_atom_site_label_1
_geom_bond_atom_site_label_2
_ccdc_geom_bond_type
C36   H26   S    
N5    C33   S    
C5    H5    S    
O15   H19   S    
C17   O7    A    
C4    H4    S    
C35   H22   S    
C18   O8    A    
O4    Zn1   S    
O16   H20   S    
C2    O2    A    
O1    Zn1   S    
C6    C8    A    
C23   C29   A    
C24   C26   A    
C32   O14   S    
C15   C16   D    
C29   H1    S    
O5    Zn1   S    
C31   O13   S    
N6    C34   S    
N3    Zn2   S    
C15   N7    S    
C33   H13   S    
C6    H6    S    
C1    C15   S    
C2    C16   S    
C3    C13   A    
C19   O9    S    
O13   H9    S    
O2    Zn2   S    
N6    H15   S    
C13   N2    S    
C35   H23   S    
N8    C36   S    
C30   H2    S    
O6    Zn2   S    
C20   O10   S    
C17   O5    A    
N7    C35   S    
C1    O3    A    
H7    N3    S    
C20   C28   A    
C2    O4    A    
C25   C26   A    
N8    H25   S    
C8    C18   S    
N7    H21   S    
N3    N4    D    
C20   N2    A    
C3    H3    S    
N4    Zn1   S    
C33   H14   S    
C12   O16   S    
O7    Zn2   S    
C9    C11   A    
C10   C12   A    
C14   N1    S    
C21   N1    A    
C4    C6    A    
C12   C14   A    
C21   C23   A    
C16   N8    S    
C22   C24   A    
C35   H24   S    
C19   C27   A    
C18   O6    A    
C5    C7    A    
C7    C9    A    
C21   O11   S    
C27   C32   A    
C9    N5    S    
C28   C31   A    
C3    C5    A    
C7    C17   S    
C34   H18   S    
C22   O12   S    
C25   C27   A    
C26   C28   A    
C36   H27   S    
C34   H16   S    
C29   C31   A    
C11   O15   S    
O3    Zn2   S    
C30   C32   A    
C11   C13   A    
C1    O1    A    
C22   N2    A    
C23   C25   A    
C4    C14   A    
O14   H10   S    
C24   C30   A    
O8    Zn1   S    
N5    H11   S    
C10   N6    S    
H8    N4    S    
C8    C10   A    
C33   H12   S    
C36   H28   S    
C34   H17   S    
C19   N1    A    
