data_str_m9_o16_o16_f0_sra.sym.65
_audit_creation_date              2012-12-11T15:06:42-0500
_audit_creation_method            fapswitch 2.2
_symmetry_space_group_name_H-M    P1
_symmetry_Int_Tables_number       1
_space_group_crystal_system       triclinic
_cell_length_a                    7.240484
_cell_length_b                    15.031949
_cell_length_c                    22.299128
_cell_angle_alpha                 89.999876
_cell_angle_beta                  89.98967
_cell_angle_gamma                 89.999647
_cell_volume                      2427.00552604

loop_
_atom_site_label
_atom_site_type_symbol
_atom_type_description
_atom_site_fract_x
_atom_site_fract_y
_atom_site_fract_z
_atom_type_partial_charge
O1    O     O_R   0.390810 0.844810 0.447340 -0.536956
O2    O     O_R   0.109190 0.155190 0.947340 -0.536940
O3    O     O_R   0.890810 0.655190 0.552660 -0.536939
O4    O     O_R   0.609190 0.344810 0.052660 -0.536956
O5    O     O_R   0.720550 0.655820 0.440420 -0.529835
O6    O     O_R   0.779450 0.344180 0.940420 -0.529814
O7    O     O_R   0.220550 0.844180 0.559580 -0.529814
O8    O     O_R   0.279450 0.155820 0.059580 -0.529835
C1    C     C_R   0.552940 0.626897 0.426065 0.682934
C2    C     C_R   0.947079 0.373106 0.926068 0.682929
C3    C     C_R   0.052920 0.873105 0.573931 0.682928
C4    C     C_R   0.447061 0.126896 0.073935 0.682934
O9    O     O_R   0.720530 0.844130 0.440420 -0.532311
O10   O     O_R   0.779470 0.155870 0.940420 -0.532301
O11   O     O_R   0.220530 0.655870 0.559580 -0.532301
O12   O     O_R   0.279470 0.344130 0.059580 -0.532311
O13   O     O_R   0.890830 0.844810 0.552660 -0.538430
O14   O     O_R   0.609170 0.155190 0.052660 -0.538444
O15   O     O_R   0.390830 0.655190 0.447340 -0.538444
O16   O     O_R   0.109170 0.344810 0.947340 -0.538429
C5    C     C_R   0.551609 0.873148 0.426192 0.682977
C6    C     C_R   0.948410 0.126850 0.926195 0.682965
C7    C     C_R   0.051591 0.626851 0.573805 0.682965
C8    C     C_R   0.448390 0.373147 0.073808 0.682977
O17   O     O_3   0.557310 0.749980 0.536820 -0.372896
O18   O     O_3   0.942690 0.250020 0.036820 -0.372935
O19   O     O_3   0.057310 0.750020 0.463180 -0.372935
O20   O     O_3   0.442690 0.249980 0.963180 -0.372896
V1    V     V_3+5 0.832160 0.749980 0.493170 1.470719
V2    V     V_3+5 0.667840 0.250020 0.993170 1.470710
V3    V     V_3+5 0.332160 0.750020 0.506830 1.470710
V4    V     V_3+5 0.167840 0.249980 0.006830 1.470720
C9    C     C_R   0.889176 0.603407 0.862679 -0.127223
C10   C     C_R   0.611272 0.396644 0.362637 -0.127219
C11   C     C_R   0.388750 0.896643 0.137363 -0.127216
C12   C     C_R   0.110808 0.103408 0.637320 -0.127221
H1    H     H_    0.883685 0.545526 0.950570 0.114772
H2    H     H_    0.616785 0.454512 0.450529 0.114768
H3    H     H_    0.383247 0.954510 0.049470 0.114768
H4    H     H_    0.116297 0.045529 0.549429 0.114771
H5    H     H_    0.876127 0.727025 0.777544 0.154198
H6    H     H_    0.624482 0.273049 0.277489 0.154199
H7    H     H_    0.375538 0.773050 0.222511 0.154201
H8    H     H_    0.123857 0.227025 0.722455 0.154199
H9    H     H_    0.860790 0.669546 0.879697 0.121355
H10   H     H_    0.639859 0.330522 0.379641 0.121373
H11   H     H_    0.360174 0.830520 0.120360 0.121372
H12   H     H_    0.139189 0.169548 0.620302 0.121353
C13   C     C_R   0.948187 0.447560 0.882980 -0.045975
C14   C     C_R   0.551895 0.552447 0.382969 -0.046006
C15   C     C_R   0.448109 0.052447 0.117031 -0.046006
C16   C     C_R   0.051809 0.947560 0.617020 -0.045975
C17   C     C_R   0.047614 0.465658 0.593459 -0.203022
C18   C     C_R   0.452014 0.534337 0.093478 -0.203024
C19   C     C_R   0.547969 0.034338 0.406524 -0.203030
C20   C     C_R   0.952398 0.965658 0.906543 -0.203024
C21   C     C_R   0.991015 0.393305 0.627932 -0.127056
C22   C     C_R   0.508493 0.606715 0.127942 -0.127020
C23   C     C_R   0.491494 0.106716 0.372059 -0.127019
C24   C     C_R   0.008989 0.893304 0.872069 -0.127052
C25   C     C_R   0.936910 0.404914 0.687576 0.233054
C26   C     C_R   0.562745 0.595126 0.187566 0.233069
C27   C     C_R   0.437249 0.095128 0.312434 0.233071
C28   C     C_R   0.063089 0.904911 0.812425 0.233055
C29   C     C_R   0.959499 0.488799 0.715563 0.033392
C30   C     C_R   0.540421 0.511227 0.215550 0.033383
C31   C     C_R   0.459577 0.011229 0.284450 0.033379
C32   C     C_R   0.040498 0.988797 0.784438 0.033389
C33   C     C_R   0.987655 0.564277 0.677768 0.028774
C34   C     C_R   0.512408 0.435741 0.177756 0.028793
C35   C     C_R   0.487595 0.935742 0.322244 0.028792
C36   C     C_R   0.012341 0.064276 0.822232 0.028774
C37   C     C_R   0.943515 0.501719 0.778868 0.096843
C38   C     C_R   0.556532 0.498308 0.278850 0.096853
C39   C     C_R   0.443470 0.998309 0.221150 0.096849
C40   C     C_R   0.056480 0.001718 0.721132 0.096839
C41   C     C_R   0.912092 0.588821 0.800961 0.128559
C42   C     C_R   0.588217 0.411224 0.300927 0.128601
C43   C     C_R   0.411796 0.911225 0.199074 0.128601
C44   C     C_R   0.087897 0.088821 0.699039 0.128559
C45   C     C_R   0.907622 0.660827 0.761331 -0.119082
C46   C     C_R   0.592813 0.339230 0.261288 -0.119090
C47   C     C_R   0.407202 0.839231 0.238712 -0.119092
C48   C     C_R   0.092366 0.160827 0.738669 -0.119084
C49   C     C_R   0.955928 0.649628 0.701327 -0.125953
C50   C     C_R   0.544390 0.350409 0.201298 -0.125961
C51   C     C_R   0.455620 0.850410 0.298702 -0.125963
C52   C     C_R   0.044064 0.149628 0.798673 -0.125953
C53   C     C_R   0.968891 0.432146 0.821111 -0.152414
C54   C     C_R   0.531041 0.567858 0.321107 -0.152477
C55   C     C_R   0.468952 0.067859 0.178893 -0.152481
C56   C     C_R   0.031111 0.932145 0.678889 -0.152417
C57   C     C_R   0.904805 0.533116 0.903195 -0.165411
C58   C     C_R   0.595539 0.466917 0.403162 -0.165380
C59   C     C_R   0.404482 0.966915 0.096838 -0.165383
C60   C     C_R   0.095181 0.033118 0.596804 -0.165411
C61   C     C_R   0.037337 0.552017 0.616624 -0.069296
C62   C     C_R   0.462581 0.447982 0.116629 -0.069337
C63   C     C_R   0.537415 0.947983 0.383372 -0.069337
C64   C     C_R   0.962666 0.052017 0.883376 -0.069296
H13   H     H_    0.008658 0.366337 0.806667 0.133801
H14   H     H_    0.491095 0.633645 0.306679 0.133829
H15   H     H_    0.508887 0.133647 0.193321 0.133832
H16   H     H_    0.991351 0.866335 0.693333 0.133804
H17   H     H_    0.081600 0.455138 0.546658 0.123252
H18   H     H_    0.417898 0.544847 0.046691 0.123275
H19   H     H_    0.582080 0.044847 0.453312 0.123274
H20   H     H_    0.918417 0.955137 0.953345 0.123251
H21   H     H_    0.975956 0.328925 0.606714 0.144811
H22   H     H_    0.523344 0.671107 0.106726 0.144815
H23   H     H_    0.476644 0.171108 0.393274 0.144818
H24   H     H_    0.024046 0.828923 0.893287 0.144813
H25   H     H_    0.964315 0.708120 0.673205 0.111093
H26   H     H_    0.536102 0.291917 0.173175 0.111128
H27   H     H_    0.463909 0.791918 0.326825 0.111129
H28   H     H_    0.035678 0.208120 0.826794 0.111094
Br1   Br    Br    0.770714 0.316546 0.719141 -0.614663
Br2   Br    Br    0.728805 0.683566 0.219088 -0.614747
Br3   Br    Br    0.271192 0.183571 0.280912 -0.614748
Br4   Br    Br    0.229282 0.816541 0.780860 -0.614664

loop_
_geom_bond_atom_site_label_1
_geom_bond_atom_site_label_2
_ccdc_geom_bond_type
O17   V3    S    
C47   C51   A    
C22   C26   A    
C19   C23   A    
O19   V1    S    
C9    H9    S    
O3    C7    A    
H6    C46   S    
C44   C48   A    
C11   H11   S    
C36   C64   A    
C29   C37   A    
O1    C5    A    
C8    C62   S    
C28   C32   A    
O9    V1    S    
H4    C60   S    
C18   C22   A    
O4    C8    A    
C29   C33   A    
C30   C38   A    
O1    V3    S    
H7    C47   S    
O2    V4    S    
C11   C43   A    
O3    V1    S    
C12   C60   A    
C20   H20   S    
C3    C16   S    
C15   C55   A    
C1    O15   A    
C21   H21   S    
C2    O16   A    
O2    C6    A    
C23   H23   S    
C16   C60   A    
C10   H10   S    
C51   H27   S    
C39   C55   A    
C53   H13   S    
O11   C7    A    
O15   V3    S    
O12   C8    A    
O10   V2    S    
C36   C52   A    
C14   C54   A    
O5    V1    S    
C27   C31   A    
O7    V3    S    
C18   H18   S    
C25   Br1   S    
O8    V4    S    
C40   C44   A    
O9    C5    A    
C6    C64   S    
C12   C44   A    
C13   C53   A    
C26   C30   A    
O18   V4    S    
C14   C58   A    
C17   C61   A    
C46   C50   A    
C35   C63   A    
C20   C24   A    
C19   H19   S    
C32   C36   A    
C52   H28   S    
O7    C3    A    
O5    C1    A    
C24   H24   S    
C25   C29   A    
C27   Br3   S    
C42   C46   A    
C41   C45   A    
O8    C4    A    
H5    C45   S    
H2    C58   S    
H1    C57   S    
O11   V3    S    
H3    C59   S    
C40   C56   A    
C35   C51   A    
C7    C61   S    
C10   C58   A    
O14   V2    S    
C16   C56   A    
C32   C40   A    
C20   C64   A    
C19   C63   A    
C34   C50   A    
C4    C15   S    
C33   C49   A    
O16   V4    S    
C3    O13   A    
C17   C21   A    
O6    V2    S    
C22   H22   S    
C1    C14   S    
C48   C52   A    
C55   H15   S    
H8    C48   S    
C9    C57   A    
O6    C2    A    
C21   C25   A    
C11   C59   A    
O12   V4    S    
C23   C27   A    
C28   Br4   S    
C50   H26   S    
C24   C28   A    
O10   C6    A    
C49   H25   S    
C37   C53   A    
C54   H14   S    
O13   V1    S    
C10   C42   A    
C43   C47   A    
C9    C41   A    
C30   C34   A    
C5    C63   S    
C38   C54   A    
O20   V2    S    
C12   H12   S    
C31   C35   A    
O4    V2    S    
C26   Br2   S    
C56   H16   S    
C17   H17   S    
C31   C39   A    
C38   C42   A    
C4    O14   A    
C37   C41   A    
C18   C62   A    
C13   C57   A    
C2    C13   S    
C39   C43   A    
C45   C49   A    
C34   C62   A    
C15   C59   A    
C33   C61   A    
