data_str_m9_o6_o16_f0_sra.sym.11
_audit_creation_date              2012-12-11T17:23:06-0500
_audit_creation_method            fapswitch 2.2
_symmetry_space_group_name_H-M    P1
_symmetry_Int_Tables_number       1
_space_group_crystal_system       triclinic
_cell_length_a                    22.323331
_cell_length_b                    7.070548
_cell_length_c                    19.915283
_cell_angle_alpha                 90.030854
_cell_angle_beta                  98.030916
_cell_angle_gamma                 89.989338
_cell_volume                      3112.56383433

loop_
_atom_site_label
_atom_site_type_symbol
_atom_type_description
_atom_site_fract_x
_atom_site_fract_y
_atom_site_fract_z
_atom_type_partial_charge
O1    O     O_R   0.443980 0.494320 0.557430 -0.539642
O2    O     O_R   0.556020 0.994320 0.442570 -0.540667
O3    O     O_R   0.441210 0.822520 0.414610 -0.519144
O4    O     O_R   0.558790 0.322520 0.585390 -0.518578
C1    C     C_R   0.424337 0.654701 0.392549 0.788672
C2    C     C_R   0.575789 0.154742 0.607356 0.787037
O5    O     O_R   0.436920 0.823940 0.555180 -0.540081
O6    O     O_R   0.563080 0.323940 0.444820 -0.540103
O7    O     O_R   0.551700 0.995760 0.584140 -0.549830
O8    O     O_R   0.448300 0.495760 0.415860 -0.549826
C3    C     C_R   0.421241 0.655412 0.574526 0.740564
C4    C     C_R   0.578717 0.155337 0.425433 0.739903
O9    O     O_3   0.537660 0.661290 0.509340 -0.370906
O10   O     O_3   0.462340 0.161290 0.490660 -0.370276
V1    V     V_3+5 0.493010 0.935560 0.498270 1.534729
V2    V     V_3+5 0.506990 0.435560 0.501730 1.535886
H1    H     H_    0.676262 0.848986 0.257334 0.166529
H2    H     H_    0.323455 0.349801 0.742319 0.166238
C5    C     C_R   0.753789 0.941194 0.211662 0.408486
C6    C     C_R   0.245743 0.441649 0.787763 0.397630
C7    C     C_R   0.797336 0.085699 0.209615 -0.015448
C8    C     C_R   0.202060 0.585881 0.789690 -0.030436
C9    C     C_R   0.796653 0.242422 0.252866 -0.093107
C10   C     C_R   0.202659 0.742372 0.746377 -0.062101
C11   C     C_R   0.752960 0.258007 0.296820 -0.044444
C12   C     C_R   0.246441 0.758070 0.702522 -0.058260
H3    H     H_    0.753200 0.380995 0.329326 0.155236
H4    H     H_    0.246150 0.880892 0.669978 0.157341
C13   C     C_R   0.709225 0.116597 0.298534 0.053596
C14   C     C_R   0.290339 0.616989 0.700973 0.054829
C15   C     C_R   0.710007 0.958460 0.256005 -0.230302
C16   C     C_R   0.289602 0.459039 0.743530 -0.224187
C17   C     C_1   0.842590 0.076810 0.163516 0.142602
C18   C     C_1   0.156845 0.577089 0.835844 0.191852
C19   C     C_1   0.663494 0.133341 0.343699 0.023323
C20   C     C_1   0.336202 0.633770 0.655961 0.025055
C21   C     C_1   0.625026 0.145210 0.381114 -0.129816
C22   C     C_1   0.374798 0.645494 0.618695 -0.131748
C23   C     C_1   0.880199 0.069464 0.124987 0.058980
C24   C     C_1   0.119407 0.569576 0.874571 0.102644
C25   C     C_R   0.621720 0.109142 0.792205 -0.115785
C26   C     C_R   0.378731 0.615088 0.207455 -0.116084
H5    H     H_    0.690529 0.117285 0.905330 0.188534
H6    H     H_    0.309871 0.624260 0.094304 0.188274
C27   C     C_R   0.616117 0.144738 0.671788 -0.131327
C28   C     C_R   0.384120 0.644746 0.328078 -0.132605
C29   C     C_R   0.907079 0.025433 0.766843 0.200699
C30   C     C_R   0.093608 0.528731 0.233009 0.301063
C31   C     C_R   0.869176 0.976301 0.706300 0.403243
C32   C     C_R   0.131361 0.471787 0.292535 0.398721
C33   C     C_R   0.807298 0.008157 0.700842 -0.127320
C34   C     C_R   0.193363 0.500717 0.297980 -0.138787
C35   C     C_R   0.779908 0.086513 0.753256 -0.007702
C36   C     C_R   0.220637 0.583150 0.246204 -0.007150
C37   C     C_R   0.814499 0.096261 0.819914 -0.089648
C38   C     C_R   0.186002 0.595512 0.179626 -0.099696
C39   C     C_R   0.715838 0.124219 0.742219 0.003363
C40   C     C_R   0.284560 0.622301 0.257498 0.006966
C41   C     C_R   0.684818 0.116798 0.799024 0.009761
C42   C     C_R   0.315600 0.619524 0.200639 0.009095
C43   C     C_R   0.716446 0.117529 0.863216 -0.196713
C44   C     C_R   0.283964 0.621462 0.136412 -0.195784
C45   C     C_R   0.779372 0.121742 0.874764 0.394659
C46   C     C_R   0.221016 0.622992 0.124848 0.399190
C47   C     C_R   0.680275 0.163122 0.677680 0.356933
C48   C     C_R   0.319896 0.659411 0.322313 0.356550
C49   C     C_R   0.588000 0.113749 0.728886 -0.220627
C50   C     C_R   0.412417 0.618564 0.270816 -0.221930
C51   C     C_R   0.880359 0.069844 0.826307 -0.268035
C52   C     C_R   0.120106 0.570796 0.173378 -0.273044
H7    H     H_    0.779361 0.964650 0.654818 0.221704
H8    H     H_    0.221305 0.452865 0.343410 0.222988
O11   O     O_R   0.051730 0.724670 0.084120 -0.511115
O12   O     O_R   0.948270 0.224670 0.915880 -0.514620
O13   O     O_R   0.063080 0.393540 0.944820 -0.506925
O14   O     O_R   0.936920 0.893540 0.055180 -0.506576
C53   C     C_R   0.074864 0.561223 0.921080 0.806627
C54   C     C_R   0.925026 0.061269 0.078815 0.859476
O15   O     O_R   0.058800 0.395030 0.085390 -0.538955
O16   O     O_R   0.941200 0.895030 0.914610 -0.560960
O17   O     O_R   0.943980 0.223310 0.057440 -0.516775
O18   O     O_R   0.056020 0.723310 0.942560 -0.518405
C55   C     C_R   0.077182 0.564598 0.107578 0.921722
C56   C     C_R   0.922868 0.064394 0.892361 0.899646
O19   O     O_3   0.962360 0.556290 0.990650 -0.377146
O20   O     O_3   0.037640 0.056290 0.009350 -0.367886
V3    V     V_3+5 0.006980 0.281990 0.001730 1.771949
V4    V     V_3+5 0.993020 0.781990 0.998270 1.749515
S1    S     S_3+6 0.895481 0.868322 0.635094 0.164452
O21   O     O_2   0.844745 0.762718 0.593580 -0.278527
O22   O     O_2   0.917587 0.019664 0.591608 -0.236350
O23   O     O_3   0.951753 0.714654 0.659648 -0.440238
H9    H     H_    0.966013 0.672991 0.617106 0.407647
S2    S     S_3+6 0.104598 0.355187 0.361642 0.171894
O24   O     O_2   0.154184 0.236413 0.399304 -0.273306
O25   O     O_2   0.085629 0.501091 0.409396 -0.237379
O26   O     O_3   0.045734 0.213474 0.334267 -0.438169
H10   H     H_    0.030383 0.170082 0.375968 0.402822
S3    S     S_3+6 0.807142 0.132503 0.960722 -0.034376
O27   O     O_2   0.851964 0.290571 0.971637 -0.338145
O28   O     O_2   0.758694 0.170520 0.004473 -0.312965
O29   O     O_3   0.836336 0.917914 0.980057 -0.525145
H11   H     H_    0.802101 0.828827 0.969283 0.366225
S4    S     S_3+6 0.193013 0.633174 0.038956 -0.034271
O30   O     O_2   0.148127 0.791123 0.028191 -0.334882
O31   O     O_2   0.241291 0.670896 0.994974 -0.315027
O32   O     O_3   0.163765 0.418528 0.019803 -0.525433
H12   H     H_    0.198002 0.329416 0.030545 0.366561
S5    S     S_3+6 0.752646 0.739726 0.158631 0.045649
O33   O     O_2   0.814859 0.654431 0.165290 -0.297113
O34   O     O_2   0.708876 0.593940 0.177406 -0.337293
O35   O     O_3   0.732175 0.805285 0.077585 -0.447543
H13   H     H_    0.692517 0.868533 0.077038 0.348720
S6    S     S_3+6 0.246976 0.240336 0.840807 0.046190
O36   O     O_2   0.184791 0.154925 0.834216 -0.286366
O37   O     O_2   0.290758 0.094548 0.821981 -0.337960
O38   O     O_3   0.267505 0.306138 0.921841 -0.449599
H14   H     H_    0.307155 0.369367 0.922347 0.348739
H15   H     H_    0.829947 0.353650 0.252492 0.185128
H16   H     H_    0.169225 0.853303 0.746655 0.212373
H17   H     H_    0.539185 0.101626 0.724620 0.129917
H18   H     H_    0.461294 0.609297 0.275042 0.129764
H19   H     H_    0.598268 0.096422 0.836146 0.139730
H20   H     H_    0.402254 0.605980 0.163459 0.139916
S7    S     S_3+6 0.712082 0.270346 0.609360 0.014830
O39   O     O_2   0.774691 0.344635 0.632306 -0.280169
O40   O     O_2   0.714109 0.126834 0.553992 -0.342323
O41   O     O_3   0.669207 0.454026 0.578035 -0.492760
H21   H     H_    0.684920 0.489363 0.535640 0.372644
S8    S     S_3+6 0.287517 0.759805 0.391512 0.017214
O42   O     O_2   0.224833 0.834011 0.368952 -0.275618
O43   O     O_2   0.285478 0.611581 0.445243 -0.341564
O44   O     O_3   0.329864 0.942067 0.425138 -0.492847
H22   H     H_    0.313748 0.973409 0.467680 0.372561
S9    S     S_3+6 0.987926 0.022631 0.768894 0.107308
O45   O     O_2   0.004751 0.079706 0.701362 -0.217469
O46   O     O_2   0.018822 0.157255 0.820878 -0.331520
O47   O     O_3   0.014637 0.803598 0.787436 -0.475308
H23   H     H_    0.981236 0.734227 0.804340 0.310137
S10   S     S_3+6 0.013379 0.543697 0.232599 0.083061
O48   O     O_2   0.998464 0.589526 0.302050 -0.248215
O49   O     O_2   0.985942 0.695135 0.185156 -0.340303
O50   O     O_3   0.982289 0.334763 0.207282 -0.503415
H24   H     H_    0.941759 0.336591 0.222093 0.356808

loop_
_geom_bond_atom_site_label_1
_geom_bond_atom_site_label_2
_ccdc_geom_bond_type
S9    O47   S    
C6    S6    S    
C2    C27   S    
C35   C37   A    
O1    C3    A    
S10   O50   S    
O2    V1    S    
O16   C56   A    
C5    C15   A    
O41   H21   S    
C2    O7    A    
S4    O31   D    
S6    O36   D    
C26   H20   S    
S9    O45   D    
C29   C31   A    
O5    C3    A    
C17   C23   T    
C18   C24   T    
O14   C54   A    
C5    C7    A    
C10   C12   A    
C28   C48   A    
S5    O34   D    
O12   C56   A    
C9    H15   S    
O20   V4    S    
C39   C41   A    
C7    C17   S    
C40   C42   A    
O50   H24   S    
C42   C44   A    
C4    C21   S    
C43   C45   A    
O35   H13   S    
C45   S3    S    
C40   C48   A    
C29   C51   A    
C31   C33   A    
C37   C45   A    
C27   C49   A    
S7    O41   S    
C44   C46   A    
O32   H12   S    
C38   C46   A    
O12   V3    S    
S1    O22   D    
O14   V4    S    
C29   S9    S    
C30   C32   A    
O2    C4    A    
O6    V2    S    
C26   C50   A    
O29   H11   S    
C33   H7    S    
C6    C16   A    
C49   H17   S    
O15   V3    S    
S4    O30   D    
C34   C36   A    
O26   H10   S    
O19   V3    S    
C11   C13   A    
C8    C18   S    
C36   C38   A    
C10   H16   S    
C41   C43   A    
C30   S10   S    
C14   C16   A    
C23   C54   S    
S10   O48   D    
C25   C41   A    
C25   C49   A    
S5    O35   S    
C50   H18   S    
C35   C39   A    
O20   V3    S    
C32   S2    S    
S2    O26   S    
H6    C44   S    
C33   C35   A    
C47   S7    S    
O4    V2    S    
C3    C22   S    
S8    O43   D    
O11   V4    S    
C28   C50   A    
C34   H8    S    
C32   C34   A    
S3    O27   D    
O6    C4    A    
C39   C47   A    
O1    V2    S    
O17   V3    S    
S1    O23   S    
S2    O25   D    
C52   C55   S    
O13   C53   A    
C37   C51   A    
O4    C2    A    
S3    O28   D    
C6    C8    A    
C12   C14   A    
C38   C52   A    
C7    C9    A    
C27   C47   A    
O44   H22   S    
H1    C15   S    
C8    C10   A    
S8    O44   S    
H2    C16   S    
C26   C42   A    
O3    V1    S    
H5    C43   S    
C36   C40   A    
O19   V4    S    
O13   V3    S    
S9    O46   D    
C31   S1    S    
C19   C21   T    
O10   V1    S    
C46   S4    S    
C30   C52   A    
O3    C1    A    
S6    O37   D    
S10   O49   D    
C11   H3    S    
C1    C28   S    
C13   C19   S    
C12   H4    S    
C14   C20   S    
C25   H19   S    
C20   C22   T    
S8    O42   D    
O7    V1    S    
C1    O8    A    
C13   C15   A    
C51   C56   S    
O8    V2    S    
O38   H14   S    
O15   C55   A    
C54   O17   A    
S7    O39   D    
C5    S5    S    
C53   O18   A    
O18   V4    S    
O5    V1    S    
O23   H9    S    
C9    C11   A    
S2    O24   D    
S6    O38   S    
O47   H23   S    
S3    O29   S    
O16   V4    S    
O9    V2    S    
S7    O40   D    
C24   C53   S    
S1    O21   D    
S5    O33   D    
O11   C55   A    
S4    O32   S    
C48   S8    S    
