data_str_m4_o11_o15_f0_acs.sym.209
_audit_creation_date              2012-12-11T14:04:07-0500
_audit_creation_method            fapswitch 2.2
_symmetry_space_group_name_H-M    P1
_symmetry_Int_Tables_number       1
_space_group_crystal_system       triclinic
_cell_length_a                    19.150147
_cell_length_b                    10.90373
_cell_length_c                    18.758315
_cell_angle_alpha                 89.834125
_cell_angle_beta                  88.860053
_cell_angle_gamma                 89.921717
_cell_volume                      3916.0918667

loop_
_atom_site_label
_atom_site_type_symbol
_atom_type_description
_atom_site_fract_x
_atom_site_fract_y
_atom_site_fract_z
_atom_type_partial_charge
C1    C     C_R   0.240884 0.465987 0.647433 0.541714
C2    C     C_R   0.759379 0.465719 0.352642 0.539320
C3    C     C_R   0.740884 0.965987 0.647433 0.541716
C4    C     C_R   0.259379 0.965719 0.352642 0.539318
C5    C     C_2   0.276465 0.818459 0.531913 -0.157196
C6    C     C_2   0.728147 0.814123 0.468998 -0.157584
C7    C     C_2   0.776465 0.318459 0.531913 -0.157195
C8    C     C_2   0.228147 0.314123 0.468998 -0.157584
C9    C     C_R   0.957744 0.651830 0.439380 -0.038292
C10   C     C_R   0.041128 0.658286 0.561186 -0.038962
C11   C     C_R   0.457744 0.151830 0.439380 -0.038292
C12   C     C_R   0.541128 0.158286 0.561186 -0.038961
C13   C     C_R   0.929200 0.867175 0.459838 -0.085000
C14   C     C_R   0.033794 0.886655 0.557337 -0.092759
C15   C     C_R   0.429200 0.367175 0.459838 -0.085000
C16   C     C_R   0.533794 0.386655 0.557337 -0.092761
C17   C     C_R   0.941270 0.979588 0.491844 -0.122832
C18   C     C_R   0.995659 0.990327 0.538938 -0.123963
C19   C     C_R   0.441270 0.479588 0.491844 -0.122832
C20   C     C_R   0.495659 0.490327 0.538938 -0.123964
C21   C     C_R   0.015907 0.769281 0.531524 0.015181
C22   C     C_R   0.968822 0.763313 0.475167 0.007901
C23   C     C_R   0.515907 0.269281 0.531524 0.015181
C24   C     C_R   0.468822 0.263313 0.475167 0.007902
C25   C     C_R   0.029057 0.546226 0.525250 0.018172
C26   C     C_R   0.979750 0.541412 0.471606 0.030674
C27   C     C_R   0.529057 0.046226 0.525250 0.018172
C28   C     C_R   0.479750 0.041412 0.471606 0.030674
C29   C     C_R   0.064087 0.437014 0.542862 -0.076436
C30   C     C_R   0.955315 0.425106 0.450130 -0.072598
C31   C     C_R   0.564087 0.937014 0.542862 -0.076436
C32   C     C_R   0.455315 0.925106 0.450130 -0.072598
C33   C     C_R   0.044966 0.324240 0.514897 -0.111746
C34   C     C_R   0.988613 0.317803 0.470237 -0.119582
C35   C     C_R   0.544966 0.824240 0.514897 -0.111746
C36   C     C_R   0.488613 0.817803 0.470237 -0.119582
C37   C     C_2   0.224076 0.854367 0.934366 -0.109155
C38   C     C_2   0.762782 0.897440 0.071425 -0.104063
C39   C     C_2   0.724085 0.354420 0.934361 -0.109133
C40   C     C_2   0.262784 0.397421 0.071419 -0.104041
C41   C     C_2   0.242341 0.889921 0.087848 -0.087656
C42   C     C_2   0.750780 0.895039 0.915565 -0.084235
C43   C     C_2   0.742350 0.389924 0.087846 -0.087676
C44   C     C_2   0.250790 0.395035 0.915561 -0.084237
C45   C     C_R   0.227021 0.873047 0.646882 0.552958
C46   C     C_R   0.772193 0.874162 0.352506 0.532618
C47   C     C_R   0.727021 0.373047 0.646882 0.552954
C48   C     C_R   0.272193 0.374162 0.352506 0.532622
C49   C     C_2   0.179374 0.898346 0.055274 -0.015028
C50   C     C_2   0.812396 0.892853 0.949037 -0.028030
C51   C     C_2   0.679386 0.398330 0.055271 -0.015044
C52   C     C_2   0.312410 0.392897 0.949030 -0.028030
C53   C     C_2   0.171300 0.856515 0.981652 -0.150917
C54   C     C_2   0.813649 0.862902 0.025128 -0.124626
C55   C     C_2   0.671321 0.356454 0.981660 -0.150948
C56   C     C_2   0.313687 0.362994 0.025127 -0.124626
C57   C     C_2   0.040664 0.652271 0.932679 -0.112686
C58   C     C_2   0.016408 0.663927 0.086420 -0.113460
C59   C     C_2   0.540651 0.152260 0.932677 -0.112680
C60   C     C_2   0.516407 0.163924 0.086420 -0.113461
C61   C     C_2   0.041734 0.564490 0.052961 -0.149255
C62   C     C_2   0.065113 0.568448 0.978201 -0.167436
C63   C     C_2   0.541728 0.064485 0.052959 -0.149256
C64   C     C_2   0.565104 0.068442 0.978200 -0.167459
C65   C     C_R   0.061672 0.651170 0.636851 0.543764
C66   C     C_R   0.937844 0.649727 0.363169 0.538536
C67   C     C_R   0.561672 0.151170 0.636851 0.543763
C68   C     C_R   0.437844 0.149727 0.363169 0.538536
C69   C     C_R   0.239042 0.462895 0.849787 0.538562
C70   C     C_R   0.760079 0.462626 0.150554 0.555138
C71   C     C_R   0.739042 0.962893 0.849786 0.538588
C72   C     C_R   0.260077 0.962623 0.150556 0.555140
C73   C     C_R   0.209447 0.828172 0.860723 0.548167
C74   C     C_R   0.774135 0.871803 0.145987 0.551000
C75   C     C_R   0.709452 0.328186 0.860725 0.548154
C76   C     C_R   0.274139 0.371791 0.145982 0.551024
C77   C     C_R   0.061365 0.647214 0.858403 0.551848
C78   C     C_R   0.973160 0.652660 0.150480 0.561477
C79   C     C_R   0.561361 0.147213 0.858403 0.551848
C80   C     C_R   0.473161 0.152659 0.150481 0.561490
C81   C     C_2   0.247262 0.905445 0.574272 -0.107476
C82   C     C_2   0.751266 0.905155 0.425274 -0.114757
C83   C     C_2   0.747262 0.405445 0.574272 -0.107477
C84   C     C_2   0.251266 0.405155 0.425274 -0.114758
C85   C     C_2   0.240577 0.906306 0.419625 -0.111171
C86   C     C_2   0.760617 0.909380 0.579994 -0.110887
C87   C     C_2   0.740577 0.406306 0.419625 -0.111171
C88   C     C_2   0.260617 0.409379 0.579994 -0.110887
C89   C     C_2   0.284340 0.834210 0.454645 -0.180778
C90   C     C_2   0.721066 0.828996 0.546549 -0.185570
C91   C     C_2   0.784340 0.334209 0.454645 -0.180778
C92   C     C_2   0.221066 0.328996 0.546549 -0.185569
Cr1   Cr    Cr6+3 0.113970 0.508630 0.747920 1.011757
Cr2   Cr    Cr6+3 0.886030 0.508630 0.252080 1.011504
Cr3   Cr    Cr6+3 0.613970 0.008630 0.747920 1.011761
Cr4   Cr    Cr6+3 0.386030 0.008630 0.252080 1.011508
Cr5   Cr    Cr6+3 0.269200 0.666740 0.749850 1.017232
Cr6   Cr    Cr6+3 0.730800 0.666740 0.250150 1.015793
Cr7   Cr    Cr6+3 0.769200 0.166740 0.749850 1.017243
Cr8   Cr    Cr6+3 0.230800 0.166740 0.250150 1.015793
Cr9   Cr    Cr6+3 0.112300 0.820070 0.749800 1.007534
Cr10  Cr    Cr6+3 0.887700 0.820070 0.250200 1.015050
Cr11  Cr    Cr6+3 0.612300 0.320070 0.749800 1.007539
Cr12  Cr    Cr6+3 0.387700 0.320070 0.250200 1.015046
H1    H     H_    0.326835 0.787670 0.426936 0.126184
H2    H     H_    0.681572 0.777210 0.575789 0.129331
H3    H     H_    0.826835 0.287670 0.426936 0.126184
H4    H     H_    0.181572 0.277210 0.575789 0.129332
H5    H     H_    0.118766 0.842586 0.962869 0.127115
H6    H     H_    0.861102 0.820960 0.045015 0.143959
H7    H     H_    0.618793 0.342403 0.962897 0.127083
H8    H     H_    0.361184 0.321188 0.045022 0.143968
H9    H     H_    0.284408 0.836078 0.064146 0.086798
H10   H     H_    0.704595 0.857174 0.942022 0.085963
H11   H     H_    0.784421 0.336089 0.064141 0.086828
H12   H     H_    0.204614 0.357132 0.942016 0.085958
H13   H     H_    0.277653 0.872068 0.949023 0.114504
H14   H     H_    0.714398 0.939829 0.054838 0.080496
H15   H     H_    0.777649 0.372271 0.949002 0.114522
H16   H     H_    0.214338 0.439634 0.054823 0.080465
H17   H     H_    0.040520 0.475207 0.078807 0.153510
H18   H     H_    0.098398 0.494498 0.958781 0.130526
H19   H     H_    0.540512 0.975202 0.078806 0.153518
H20   H     H_    0.598395 0.994499 0.958781 0.130526
H21   H     H_    0.020875 0.754076 0.062701 0.088416
H22   H     H_    0.005494 0.724983 0.949507 0.096024
H23   H     H_    0.520874 0.254073 0.062699 0.088397
H24   H     H_    0.505474 0.224965 0.949505 0.096030
H25   H     H_    0.294432 0.731962 0.553922 0.154390
H26   H     H_    0.714835 0.724695 0.447823 0.156912
H27   H     H_    0.794432 0.231962 0.553922 0.154390
H28   H     H_    0.214835 0.224695 0.447823 0.156912
H29   H     H_    0.192574 0.937689 0.445663 0.114699
H30   H     H_    0.805995 0.948112 0.552686 0.118187
H31   H     H_    0.692574 0.437689 0.445663 0.114699
H32   H     H_    0.305995 0.448112 0.552686 0.118187
H33   H     H_    0.229590 0.992695 0.553147 0.092663
H34   H     H_    0.764736 0.995131 0.445405 0.092194
H35   H     H_    0.729590 0.492695 0.553147 0.092663
H36   H     H_    0.264736 0.495131 0.445405 0.092195
H37   H     H_    0.907918 0.057123 0.480596 0.097402
H38   H     H_    0.006646 0.077440 0.563435 0.111126
H39   H     H_    0.407918 0.557123 0.480596 0.097402
H40   H     H_    0.506646 0.577439 0.563435 0.111126
H41   H     H_    0.884852 0.856543 0.428527 0.152890
H42   H     H_    0.076902 0.900150 0.591500 0.166442
H43   H     H_    0.384852 0.356544 0.428527 0.152890
H44   H     H_    0.576902 0.400150 0.591500 0.166443
H45   H     H_    0.911920 0.417014 0.415468 0.151449
H46   H     H_    0.106502 0.439507 0.578249 0.155682
H47   H     H_    0.411920 0.917014 0.415468 0.151449
H48   H     H_    0.606502 0.939507 0.578249 0.155681
H49   H     H_    0.073058 0.241971 0.528779 0.096411
H50   H     H_    0.971996 0.230741 0.449287 0.105726
H51   H     H_    0.573058 0.741971 0.528779 0.096412
H52   H     H_    0.471996 0.730741 0.449287 0.105726
O1    O     O_R   0.043230 0.549300 0.667990 -0.497047
O2    O     O_R   0.956770 0.549300 0.332010 -0.514671
O3    O     O_R   0.543230 0.049300 0.667990 -0.497046
O4    O     O_R   0.456770 0.049300 0.332010 -0.514672
O5    O     O_R   0.262920 0.788600 0.824420 -0.486145
O6    O     O_R   0.737080 0.788600 0.175580 -0.491420
O7    O     O_R   0.762920 0.288600 0.824420 -0.486145
O8    O     O_R   0.237080 0.288600 0.175580 -0.491425
O9    O     O_R   0.167530 0.905110 0.830340 -0.500103
O10   O     O_R   0.832470 0.905110 0.169660 -0.509320
O11   O     O_R   0.667530 0.405110 0.830340 -0.500100
O12   O     O_R   0.332470 0.405110 0.169660 -0.509343
O13   O     O_R   0.054010 0.748440 0.822860 -0.505722
O14   O     O_R   0.945990 0.748440 0.177140 -0.501299
O15   O     O_R   0.554010 0.248440 0.822860 -0.505703
O16   O     O_R   0.445990 0.248440 0.177140 -0.501308
O17   O     O_3   0.165160 0.665150 0.749190 -0.306145
O18   O     O_3   0.834840 0.665150 0.250810 -0.266508
O19   O     O_3   0.665160 0.165150 0.749190 -0.306138
O20   O     O_3   0.334840 0.165150 0.250810 -0.266505
O21   O     O_R   0.178620 0.457600 0.674100 -0.527011
O22   O     O_R   0.821380 0.457600 0.325900 -0.527422
O23   O     O_R   0.678620 0.957600 0.674100 -0.527014
O24   O     O_R   0.321380 0.957600 0.325900 -0.527423
O25   O     O_R   0.284680 0.542100 0.669460 -0.514691
O26   O     O_R   0.715320 0.542100 0.330540 -0.518335
O27   O     O_R   0.784680 0.042100 0.669460 -0.514686
O28   O     O_R   0.215320 0.042100 0.330540 -0.518337
O29   O     O_R   0.262860 0.790390 0.676650 -0.483026
O30   O     O_R   0.737140 0.790390 0.323350 -0.489227
O31   O     O_R   0.762860 0.290390 0.676650 -0.483029
O32   O     O_R   0.237140 0.290390 0.323350 -0.489225
O33   O     O_R   0.167460 0.907030 0.670940 -0.542248
O34   O     O_R   0.832540 0.907030 0.329060 -0.538783
O35   O     O_R   0.667460 0.407030 0.670940 -0.542250
O36   O     O_R   0.332540 0.407030 0.329060 -0.538780
O37   O     O_R   0.053950 0.750220 0.675100 -0.493586
O38   O     O_R   0.946050 0.750220 0.324900 -0.489782
O39   O     O_R   0.553950 0.250220 0.675100 -0.493588
O40   O     O_R   0.446050 0.250220 0.324900 -0.489782
O41   O     O_R   0.043300 0.547370 0.827390 -0.480472
O42   O     O_R   0.956700 0.547370 0.172610 -0.503971
O43   O     O_R   0.543300 0.047370 0.827390 -0.480467
O44   O     O_R   0.456700 0.047370 0.172610 -0.503969
O45   O     O_R   0.178690 0.455820 0.821860 -0.519649
O46   O     O_R   0.821310 0.455820 0.178140 -0.495377
O47   O     O_R   0.678690 0.955820 0.821860 -0.519655
O48   O     O_R   0.321310 0.955820 0.178140 -0.495370
O49   O     O_R   0.284750 0.540170 0.828860 -0.516936
O50   O     O_R   0.715250 0.540170 0.171140 -0.516832
O51   O     O_R   0.784750 0.040170 0.828860 -0.516923
O52   O     O_R   0.215250 0.040170 0.171140 -0.516838
C93   C     C_3   0.115029 0.958507 0.088474 -0.341753
H53   H     H_    0.068025 0.944776 0.055860 0.095365
H54   H     H_    0.103750 0.919211 0.142171 0.151881
H55   H     H_    0.121886 0.059413 0.091203 0.167068
C94   C     C_3   0.881434 0.923317 0.912645 -0.343876
H56   H     H_    0.925954 0.895377 0.946033 0.100008
H57   H     H_    0.886498 0.874084 0.861038 0.161083
H58   H     H_    0.886196 0.023709 0.904149 0.165139
C95   C     C_3   0.615038 0.458496 0.088458 -0.341751
H59   H     H_    0.568040 0.444766 0.055834 0.095381
H60   H     H_    0.603749 0.419205 0.142154 0.151874
H61   H     H_    0.621896 0.559403 0.091187 0.167070
C96   C     C_3   0.381430 0.423463 0.912633 -0.343787
H62   H     H_    0.425970 0.395294 0.945937 0.100002
H63   H     H_    0.386442 0.374493 0.860929 0.161178
H64   H     H_    0.386198 0.523906 0.904307 0.165020

loop_
_geom_bond_atom_site_label_1
_geom_bond_atom_site_label_2
_ccdc_geom_bond_type
C70   O46   A    
C7    C83   D    
C49   C53   S    
Cr10  O14   S    
Cr1   O17   S    
C6    C82   D    
C87   C91   D    
C20   H40   S    
Cr9   O17   S    
C35   C36   A    
C13   H41   S    
C6    H26   S    
C43   C51   D    
Cr7   O31   S    
Cr8   O52   S    
C57   C62   D    
Cr12  O20   S    
C51   C55   S    
C94   H56   S    
C51   C95   S    
C95   H61   S    
Cr11  O11   S    
C75   O11   A    
C12   C23   A    
C59   C64   D    
C50   C54   S    
C60   C63   D    
Cr3   O3    S    
C32   C36   A    
C14   C21   A    
C17   H37   S    
Cr8   O32   S    
C35   H51   S    
C15   C19   A    
C96   H64   S    
Cr9   O33   S    
C2    O26   A    
Cr6   O18   S    
C33   H49   S    
C9    C22   A    
C10   C65   S    
Cr5   O29   S    
Cr3   O47   S    
C80   O44   A    
C29   C33   A    
C11   C24   A    
C78   O14   A    
C93   H55   S    
C54   H6    S    
C61   H17   S    
Cr2   O22   S    
C79   O15   A    
Cr3   O19   S    
C9    C66   S    
C3    O23   A    
C82   H34   S    
C43   H11   S    
C29   H46   S    
C46   C82   S    
C1    O21   A    
C92   H4    S    
C39   C55   D    
C88   C92   D    
C43   C70   S    
C40   C56   D    
C86   H30   S    
C17   C18   A    
Cr8   O20   S    
C73   O5    A    
C23   C24   A    
Cr9   O13   S    
C8    C92   S    
C39   C75   S    
Cr1   O45   S    
Cr7   O27   S    
C72   O48   A    
C37   C53   D    
C69   O49   A    
C44   C52   D    
C1    C88   S    
C5    H25   S    
C52   C96   S    
Cr10  O10   S    
C96   H63   S    
C21   C22   A    
C3    C86   S    
Cr11  O15   S    
C61   C62   S    
Cr11  O39   S    
C4    O24   A    
C67   O39   A    
Cr10  O38   S    
C41   C49   D    
Cr6   O6    S    
Cr9   O37   S    
C9    C26   A    
Cr4   O48   S    
C65   O37   A    
C34   H50   S    
C10   C21   A    
C25   C29   A    
C69   O45   A    
C12   C67   S    
C79   O43   A    
C30   C34   A    
C12   C27   A    
C27   C31   A    
Cr5   O25   S    
C87   H31   S    
C18   H38   S    
Cr5   O17   S    
C88   H32   S    
C74   O10   A    
C72   O52   A    
C86   C90   D    
C59   C79   S    
C57   H22   S    
C74   O6    A    
Cr1   O21   S    
C30   H45   S    
C4    C85   S    
C50   C94   S    
C25   C26   A    
C64   H20   S    
C4    O28   A    
C48   C84   S    
Cr7   O51   S    
Cr2   O42   S    
Cr6   O26   S    
C71   O47   A    
C42   H10   S    
Cr8   O8    S    
C8    H28   S    
C96   H62   S    
C93   H54   S    
C57   C77   S    
Cr12  O12   S    
C5    C81   D    
C38   C54   D    
C28   C32   A    
C16   C20   A    
C7    C91   S    
Cr11  O19   S    
C93   H53   S    
Cr12  O40   S    
Cr7   O19   S    
C2    C87   S    
C68   O40   A    
C46   O30   A    
Cr1   O1    S    
C66   O2    A    
C90   H2    S    
C42   C50   D    
C41   C72   S    
Cr2   O46   S    
C10   C25   A    
C65   O1    A    
C15   C24   A    
C40   H16   S    
C73   O9    A    
Cr2   O18   S    
C26   C30   A    
C16   C23   A    
C85   C89   D    
C83   H35   S    
Cr7   O7    S    
C76   O8    A    
Cr11  O35   S    
C80   O16   A    
C47   O31   A    
C68   O4    A    
Cr12  O16   S    
C62   H18   S    
C11   C68   S    
C36   H52   S    
C67   O3    A    
C38   C74   S    
C94   H58   S    
Cr3   O23   S    
Cr4   O44   S    
C77   O13   A    
C37   C73   S    
C60   C80   S    
C1    O25   A    
Cr4   O20   S    
C55   H7    S    
C8    C84   D    
C7    H27   S    
C14   C18   A    
C60   H23   S    
C45   C81   S    
C41   H9    S    
C47   C83   S    
Cr2   O2    S    
C63   H19   S    
C48   O32   A    
Cr10  O18   S    
C70   O50   A    
C78   O42   A    
C14   H42   S    
Cr5   O5    S    
C13   C17   A    
C3    O27   A    
C16   H44   S    
C89   H1    S    
Cr4   O24   S    
C19   C20   A    
Cr4   O4    S    
C59   H24   S    
C94   H57   S    
Cr6   O30   S    
C6    C90   S    
Cr9   O9    S    
C15   H43   S    
C31   H48   S    
C45   O29   A    
C46   O34   A    
C32   H47   S    
C75   O7    A    
C11   C28   A    
C58   C61   D    
C39   H15   S    
Cr1   O41   S    
C95   H59   S    
C71   O51   A    
C42   C71   S    
Cr10  O34   S    
C33   C34   A    
C13   C22   A    
C76   O12   A    
C31   C35   A    
C47   O35   A    
C95   H60   S    
Cr8   O28   S    
C19   H39   S    
C48   O36   A    
C58   C78   S    
C63   C64   S    
C38   H14   S    
C40   C76   S    
C37   H13   S    
C44   H12   S    
C58   H21   S    
Cr3   O43   S    
C49   C93   S    
C84   H36   S    
C81   H33   S    
C45   O33   A    
C44   C69   S    
Cr6   O50   S    
C53   H5    S    
C2    O22   A    
Cr5   O49   S    
C66   O38   A    
C77   O41   A    
C56   H8    S    
C5    C89   S    
C52   C56   S    
C85   H29   S    
C27   C28   A    
C91   H3    S    
Cr12  O36   S    
