data_str_m9_o11_o16_f0_sra.sym.182
_audit_creation_date              2012-12-11T14:17:35-0500
_audit_creation_method            fapswitch 2.2
_symmetry_space_group_name_H-M    P1
_symmetry_Int_Tables_number       1
_space_group_crystal_system       triclinic
_cell_length_a                    6.94605
_cell_length_b                    13.700679
_cell_length_c                    20.408534
_cell_angle_alpha                 101.924869
_cell_angle_beta                  89.691987
_cell_angle_gamma                 90.907464
_cell_volume                      1900.03403068

loop_
_atom_site_label
_atom_site_type_symbol
_atom_type_description
_atom_site_fract_x
_atom_site_fract_y
_atom_site_fract_z
_atom_type_partial_charge
O1    O     O_R   0.506860 0.599390 0.449240 -0.544788
O2    O     O_R   0.180220 0.594600 0.586780 -0.515995
O3    O     O_R   0.004500 0.400610 0.550760 -0.527831
C1    C     C_R   0.349273 0.616804 0.612667 0.827354
O4    O     O_R   0.177490 0.611290 0.451970 -0.549760
O5    O     O_R   0.001750 0.417420 0.414990 -0.551135
C2    C     C_R   0.347549 0.637923 0.435321 0.673475
O6    O     O_R   0.509610 0.582580 0.585010 -0.506683
O7    O     O_3   0.337420 0.436370 0.488020 -0.394292
V1    V     V_3+5 0.064680 0.511800 0.502220 1.558500
O8    O     O_R   0.671710 0.405400 0.413220 -0.557300
C3    C     C_R   0.839887 0.384139 0.386518 0.702272
O9    O     O_R   0.674440 0.388710 0.548030 -0.543914
C4    C     C_R   0.841324 0.361962 0.564743 0.741301
V2    V     V_3+5 0.564010 0.488200 0.497780 1.512668
O10   O     O_3   0.841140 0.563630 0.511980 -0.349057
C5    C     C_R   0.744443 0.118910 0.616339 -0.126577
H1    H     H_    0.755470 0.166441 0.522664 0.102360
H2    H     H_    0.670874 0.003033 0.702712 0.211327
H3    H     H_    0.696200 0.044251 0.592980 0.133306
C6    C     C_R   0.839237 0.285078 0.604987 -0.054530
C7    C     C_R   0.933869 0.311050 0.926380 -0.174084
C8    C     C_R   0.955661 0.385610 0.889957 -0.102472
C9    C     C_R   0.919127 0.365478 0.821434 -0.114973
C10   C     C_R   0.856013 0.269653 0.787480 0.062306
C11   C     C_R   0.822925 0.195133 0.825989 0.046641
C12   C     C_R   0.829546 0.244515 0.716485 0.057021
C13   C     C_R   0.766943 0.146433 0.686061 0.097335
C14   C     C_R   0.724157 0.076922 0.725407 -0.095476
C15   C     C_R   0.751144 0.100790 0.794201 -0.067698
C16   C     C_R   0.862544 0.313208 0.674391 -0.156862
C17   C     C_R   0.779863 0.187918 0.576139 -0.182156
C18   C     C_R   0.867817 0.215917 0.895274 -0.081010
H4    H     H_    0.897087 0.390245 0.694052 0.187302
H5    H     H_    0.970345 0.327322 0.979128 0.101077
H6    H     H_    0.943239 0.426425 0.796561 0.189937
H7    H     H_    0.005728 0.459183 0.914726 0.125845
H8    H     H_    0.716961 0.043878 0.822160 0.180058
C19   C     C_2   0.004983 0.288835 0.284791 -0.135418
C20   C     C_2   0.842102 0.315994 0.319748 -0.302380
H9    H     H_    0.142359 0.317118 0.306551 0.130740
H10   H     H_    0.703283 0.288282 0.299524 0.125426
C21   C     C_2   0.013048 0.220994 0.217203 -0.133665
C22   C     C_2   0.858116 0.183028 0.180372 -0.302029
H11   H     H_    0.155929 0.202387 0.197035 0.130556
H12   H     H_    0.713942 0.200766 0.199023 0.125014
C23   C     C_2   0.228781 0.796335 0.777094 0.408913
C24   C     C_2   0.359236 0.804934 0.826360 -0.383415
H13   H     H_    0.470132 0.748719 0.822048 0.160673
C25   C     C_2   0.230082 0.706544 0.723219 0.263688
C26   C     C_2   0.360941 0.696948 0.672947 0.075220
C27   C     C_R   0.423906 0.884983 0.386443 -0.160422
H14   H     H_    0.421592 0.834594 0.479243 0.126929
H15   H     H_    0.458013 0.008517 0.302718 0.121496
H16   H     H_    0.456364 0.961421 0.410939 0.113894
C28   C     C_R   0.361164 0.714421 0.395128 -0.026130
C29   C     C_R   0.311938 0.687335 0.072078 -0.161021
C30   C     C_R   0.290780 0.612289 0.108156 -0.117850
C31   C     C_R   0.307425 0.633989 0.177687 -0.158613
C32   C     C_R   0.346485 0.732570 0.213251 0.076613
C33   C     C_R   0.369988 0.809059 0.175764 0.066221
C34   C     C_R   0.362788 0.757822 0.284598 0.072858
C35   C     C_R   0.404274 0.858385 0.316540 0.141308
C36   C     C_R   0.426727 0.931743 0.278646 -0.201946
C37   C     C_R   0.409479 0.907733 0.209461 -0.196075
C38   C     C_R   0.340162 0.686834 0.325614 -0.218025
C39   C     C_R   0.403694 0.813214 0.425445 -0.162469
C40   C     C_R   0.351878 0.785339 0.105094 -0.066358
H17   H     H_    0.308512 0.609270 0.305361 0.092411
H18   H     H_    0.296570 0.669010 0.018084 0.104067
H19   H     H_    0.288745 0.571718 0.201881 0.106975
H20   H     H_    0.260225 0.536518 0.082031 0.117588
H21   H     H_    0.427931 0.967568 0.182549 0.117035
O11   O     O_R   0.203230 0.917310 0.915020 -0.500137
O12   O     O_R   0.535500 0.888690 0.048040 -0.546936
O13   O     O_R   0.711080 0.082610 0.085000 -0.553113
C41   C     C_R   0.365516 0.862313 0.064926 0.659239
O14   O     O_R   0.532630 0.905370 0.913230 -0.527645
O15   O     O_R   0.708190 0.099410 0.949230 -0.551309
C42   C     C_R   0.364223 0.883717 0.887205 0.837293
O16   O     O_R   0.206120 0.900510 0.050790 -0.546795
O17   O     O_3   0.375360 0.063570 0.011990 -0.390499
V3    V     V_3+5 0.648170 0.988200 0.997780 1.502952
O18   O     O_R   0.038240 0.111390 0.951940 -0.525686
C43   C     C_R   0.870707 0.137189 0.934440 0.729376
O19   O     O_R   0.041120 0.094710 0.086750 -0.550573
C44   C     C_R   0.872358 0.115683 0.113536 0.714562
V4    V     V_3+5 0.148810 0.011930 0.002180 1.512015
O20   O     O_3   0.871750 0.936430 0.988010 -0.355100
S1    S     S_3+6 0.056053 0.887585 0.772429 0.049434
O21   O     O_2   0.888039 0.873756 0.816429 -0.290562
O22   O     O_2   0.141084 0.990536 0.795296 -0.369032
O23   O     O_3   0.979459 0.873791 0.692999 -0.459201
H22   H     H_    0.092421 0.891656 0.667808 0.335352
S2    S     S_3+6 0.068017 0.609391 0.732243 -0.000598
O24   O     O_2   0.900780 0.606376 0.685440 -0.273422
O25   O     O_2   0.170900 0.511630 0.716002 -0.399263
O26   O     O_3   0.984043 0.628645 0.811264 -0.489136
H23   H     H_    0.096338 0.619028 0.838854 0.312372
Cl1   Cl    Cl    0.541862 0.789046 0.672866 -0.588890

loop_
_geom_bond_atom_site_label_1
_geom_bond_atom_site_label_2
_ccdc_geom_bond_type
O23   H22   S    
S2    O24   D    
C1    O6    A    
C30   H20   S    
S1    O21   D    
S2    O26   S    
C19   H9    S    
C7    H5    S    
C6    C16   A    
C9    H6    S    
C4    C6    S    
C13   C14   A    
O5    C3    A    
O19   V4    S    
C25   S2    S    
C38   H17   S    
V2    O10   S    
C26   Cl1   S    
C5    H3    S    
C37   H21   S    
C15   H8    S    
C32   C34   A    
C18   C43   S    
O8    V2    S    
O14   V3    S    
C8    C9    A    
O1    V2    S    
C29   H18   S    
C22   C44   S    
O7    V1    S    
O17   V4    S    
C27   H16   S    
C20   H10   S    
C31   C32   A    
O11   C42   A    
O9    C4    A    
C2    C28   S    
O13   V3    S    
C22   H12   S    
C23   C25   S    
V3    O20   S    
C6    C17   A    
C34   C38   A    
C1    C26   S    
C12   C16   A    
C9    C10   A    
C19   C20   D    
O4    C2    A    
O19   C44   A    
C19   C21   S    
C30   C31   A    
C8    H7    S    
O17   V3    S    
C32   C33   A    
C3    C20   S    
O2    C1    A    
C21   C22   D    
C14   C15   A    
O12   C41   A    
C11   C18   A    
S1    O22   D    
C23   C24   D    
C41   O16   A    
C34   C35   A    
C25   C26   D    
C16   H4    S    
O18   C43   A    
C21   H11   S    
O13   C44   A    
O3    C4    A    
C24   H13   S    
C11   C15   A    
O6    V2    S    
O9    V2    S    
C23   S1    S    
H1    C17   S    
C29   C40   A    
O2    V1    S    
O15   C43   A    
S1    O23   S    
C40   C41   S    
C7    C18   A    
O1    C2    A    
C5    C13   A    
O18   V4    S    
C27   C39   A    
C27   C35   A    
O5    V1    S    
O8    C3    A    
S2    O25   D    
C10   C12   A    
C28   C39   A    
C36   C37   A    
C24   C42   S    
C10   C11   A    
O4    V1    S    
O3    V1    S    
V1    O10   S    
O15   V3    S    
C33   C40   A    
O12   V3    S    
C29   C30   A    
H15   C36   S    
C28   C38   A    
O14   C42   A    
O7    V2    S    
H14   C39   S    
O16   V4    S    
C35   C36   A    
C33   C37   A    
V4    O20   S    
O26   H23   S    
C12   C13   A    
C5    C17   A    
C7    C8    A    
O11   V4    S    
C31   H19   S    
H2    C14   S    
