data_str_m9_o16_o25_f0_sra.sym.51
_audit_creation_date              2012-12-11T15:14:44-0500
_audit_creation_method            fapswitch 2.2
_symmetry_space_group_name_H-M    P1
_symmetry_Int_Tables_number       1
_space_group_crystal_system       triclinic
_cell_length_a                    22.312109
_cell_length_b                    7.224549
_cell_length_c                    19.241561
_cell_angle_alpha                 90.044054
_cell_angle_beta                  98.795282
_cell_angle_gamma                 89.841365
_cell_volume                      3065.1577585

loop_
_atom_site_label
_atom_site_type_symbol
_atom_type_description
_atom_site_fract_x
_atom_site_fract_y
_atom_site_fract_z
_atom_type_partial_charge
O1    O     O_R   0.448470 0.506130 0.415700 -0.526192
O2    O     O_R   0.551530 0.006130 0.584300 -0.522246
O3    O     O_R   0.436320 0.174490 0.555800 -0.539581
O4    O     O_R   0.563680 0.674490 0.444200 -0.538970
C1    C     C_R   0.421270 0.344417 0.575263 0.757972
C2    C     C_R   0.578671 0.844046 0.424657 0.757824
O5    O     O_R   0.441350 0.176340 0.414480 -0.545275
O6    O     O_R   0.558650 0.676340 0.585520 -0.545273
O7    O     O_R   0.556600 0.007100 0.441970 -0.533049
O8    O     O_R   0.443400 0.507100 0.558030 -0.534191
C3    C     C_R   0.425693 0.345527 0.390307 0.766710
C4    C     C_R   0.574280 0.845324 0.609703 0.773597
O9    O     O_3   0.537810 0.339550 0.509190 -0.380977
O10   O     O_3   0.462190 0.839550 0.490810 -0.383478
V1    V     V_3+5 0.492990 0.064280 0.498300 1.414668
V2    V     V_3+5 0.507010 0.564280 0.501700 1.415270
C5    C     C_R   0.871814 0.961020 0.693040 -0.201308
C6    C     C_R   0.127616 0.452236 0.306884 -0.201843
H1    H     H_    0.792474 0.966580 0.579503 0.126542
H2    H     H_    0.206922 0.452580 0.420940 0.126105
H3    H     H_    0.889967 0.981493 0.644496 0.166456
H4    H     H_    0.109265 0.469022 0.355508 0.167972
C7    C     C_R   0.887553 0.940737 0.820096 -0.169731
C8    C     C_R   0.112358 0.439573 0.179747 -0.169019
C9    C     C_R   0.594387 0.806375 0.737079 -0.177387
C10   C     C_R   0.406089 0.311696 0.262610 -0.172667
C11   C     C_R   0.631423 0.797142 0.801731 -0.118776
C12   C     C_R   0.369211 0.303767 0.197794 -0.115454
C13   C     C_R   0.693191 0.831881 0.807346 -0.135430
C14   C     C_R   0.307199 0.335524 0.192229 -0.135342
C15   C     C_R   0.720046 0.879820 0.747858 0.043668
C16   C     C_R   0.279934 0.379000 0.251920 0.045988
C17   C     C_R   0.681551 0.893968 0.680676 -0.013103
C18   C     C_R   0.318190 0.390934 0.319263 -0.020956
C19   C     C_R   0.784157 0.910617 0.753197 0.087816
C20   C     C_R   0.215666 0.407896 0.246634 0.087324
C21   C     C_R   0.809090 0.938688 0.690843 0.009561
C22   C     C_R   0.190405 0.431252 0.309093 0.004974
C23   C     C_R   0.771546 0.949837 0.626157 -0.268385
C24   C     C_R   0.227719 0.439318 0.373926 -0.250352
C25   C     C_R   0.707985 0.946169 0.620876 0.355496
C26   C     C_R   0.291158 0.437736 0.379215 0.349955
C27   C     C_R   0.824757 0.913700 0.818027 -0.278840
C28   C     C_R   0.175238 0.413895 0.181761 -0.278516
C29   C     C_R   0.911267 0.962094 0.756824 0.462718
C30   C     C_R   0.088363 0.456741 0.243015 0.461413
C31   C     C_R   0.617932 0.853435 0.676172 -0.081571
C32   C     C_R   0.382098 0.354065 0.323747 -0.085976
H5    H     H_    0.809018 0.900042 0.868004 0.105284
H6    H     H_    0.191158 0.403359 0.131768 0.105124
H7    H     H_    0.546621 0.774661 0.734407 0.107973
H8    H     H_    0.454080 0.282655 0.265218 0.109326
H9    H     H_    0.718947 0.815953 0.859080 0.101731
H10   H     H_    0.281600 0.321021 0.140353 0.101721
H11   H     H_    0.612153 0.759212 0.848028 0.122674
H12   H     H_    0.388820 0.269615 0.151262 0.115329
C33   C     C_3   0.769799 0.765931 0.301101 -0.261060
C34   C     C_3   0.223686 0.306224 0.689320 -0.273146
C35   C     C_3   0.803795 0.945763 0.288339 0.541434
C36   C     C_3   0.201700 0.490030 0.718038 0.529365
H13   H     H_    0.785293 0.660939 0.342085 0.132713
H14   H     H_    0.202906 0.237017 0.640059 0.135189
H15   H     H_    0.740659 0.196233 0.311205 0.132147
H16   H     H_    0.280881 0.708011 0.717741 0.135551
C37   C     C_1   0.875663 0.941000 0.121716 -0.116567
C38   C     C_1   0.124819 0.439205 0.879036 -0.117268
C39   C     C_1   0.625223 0.853144 0.379848 -0.193234
C40   C     C_1   0.374596 0.354248 0.619944 -0.188879
C41   C     C_3   0.757442 0.732592 0.220199 -0.262762
C42   C     C_3   0.231079 0.223920 0.764893 -0.264037
C43   C     C_3   0.792039 0.913168 0.208636 0.049787
C44   C     C_3   0.208706 0.409506 0.792543 0.057712
C45   C     C_3   0.698960 0.849355 0.215888 0.510513
C46   C     C_3   0.296265 0.301570 0.779133 0.496467
C47   C     C_3   0.710705 0.881835 0.295535 0.050812
C48   C     C_3   0.289293 0.382259 0.704638 0.060064
C49   C     C_3   0.732923 0.029146 0.203124 -0.282204
C50   C     C_3   0.274317 0.485419 0.807801 -0.289843
C51   C     C_3   0.745251 0.062513 0.284036 -0.281417
C52   C     C_3   0.266786 0.567739 0.732173 -0.271931
C53   C     C_1   0.837959 0.929837 0.160863 0.031644
C54   C     C_1   0.162788 0.426823 0.840278 0.029198
C55   C     C_1   0.663968 0.864665 0.342131 0.004206
C56   C     C_1   0.335831 0.365752 0.657681 0.003596
H17   H     H_    0.717745 0.134839 0.162343 0.128382
H18   H     H_    0.295078 0.556543 0.856741 0.128558
H19   H     H_    0.761580 0.598707 0.192944 0.133962
H20   H     H_    0.216634 0.083558 0.778830 0.137187
O11   O     O_R   0.056650 0.288730 0.942060 -0.522074
O12   O     O_R   0.943350 0.788730 0.057940 -0.521420
O13   O     O_R   0.058660 0.616870 0.085540 -0.530461
O14   O     O_R   0.941340 0.116870 0.914460 -0.530282
C57   C     C_R   0.072159 0.448460 0.111295 0.770212
C58   C     C_R   0.927837 0.948692 0.888622 0.771268
O15   O     O_R   0.063700 0.618520 0.944220 -0.534437
O16   O     O_R   0.936300 0.118520 0.055780 -0.535227
O17   O     O_R   0.948460 0.787610 0.915680 -0.525405
O18   O     O_R   0.051540 0.287610 0.084320 -0.525405
C59   C     C_R   0.078905 0.449782 0.924714 0.741557
C60   C     C_R   0.921215 0.950237 0.075498 0.741208
O19   O     O_3   0.962230 0.453430 0.990860 -0.381770
O20   O     O_3   0.037770 0.953430 0.009140 -0.381761
V3    V     V_3+5 0.007010 0.728750 0.001700 1.543823
V4    V     V_3+5 0.992990 0.228750 0.998300 1.543443
S1    S     S_3+6 0.989872 0.994841 0.755954 -0.000457
O21   O     O_2   0.003861 0.987991 0.681991 -0.340262
O22   O     O_2   0.008135 0.180289 0.787591 -0.336014
O23   O     O_3   0.029486 0.828141 0.803820 -0.500005
H21   H     H_    0.072603 0.857972 0.802458 0.360044
S2    S     S_3+6 0.009630 0.488183 0.243741 0.002844
O24   O     O_2   0.995611 0.483920 0.317705 -0.339736
O25   O     O_2   0.990503 0.671990 0.211034 -0.332893
O26   O     O_3   0.970871 0.318804 0.196807 -0.501375
H22   H     H_    0.927586 0.349066 0.197170 0.357554
O27   O     O_3   0.641349 0.795587 0.181067 -0.570455
C61   C     C_3   0.640567 0.787251 0.107464 0.069180
H23   H     H_    0.623165 0.648837 0.089158 0.138579
H24   H     H_    0.685973 0.802312 0.090448 0.096404
C62   C     C_3   0.597461 0.935712 0.071770 -0.286278
H25   H     H_    0.551862 0.917508 0.087332 0.203875
H26   H     H_    0.614600 0.074910 0.089399 0.187295
C63   C     C_3   0.591687 0.924519 0.991815 -0.865177
H27   H     H_    0.636603 0.945349 0.974857 0.229531
H28   H     H_    0.560204 0.034046 0.967669 0.236624
H29   H     H_    0.573309 0.787671 0.972911 0.229465
O28   O     O_3   0.348966 0.202850 0.807679 -0.569882
C64   C     C_3   0.342647 0.135270 0.874905 0.071023
H30   H     H_    0.304630 0.034422 0.871096 0.115145
H31   H     H_    0.334349 0.250889 0.910615 0.112767
C65   C     C_3   0.401253 0.036352 0.906147 -0.271939
H32   H     H_    0.410138 0.920442 0.871031 0.200275
H33   H     H_    0.439776 0.134982 0.909886 0.196736
C66   C     C_3   0.397404 0.959634 0.979212 -0.858443
H34   H     H_    0.389572 0.073554 0.015615 0.228243
H35   H     H_    0.440667 0.889145 0.000266 0.238282
H36   H     H_    0.359913 0.857757 0.976525 0.229619
O29   O     O_3   0.670966 0.984390 0.557344 -0.587286
C67   C     C_3   0.690536 0.139175 0.521025 0.089265
H37   H     H_    0.656601 0.162014 0.473486 0.160121
H38   H     H_    0.733183 0.110230 0.500072 0.092278
C68   C     C_3   0.694247 0.319694 0.564026 -0.326679
H39   H     H_    0.650580 0.343742 0.583657 0.218871
H40   H     H_    0.730786 0.310518 0.610064 0.190023
C69   C     C_3   0.707665 0.484157 0.519173 -0.794411
H41   H     H_    0.752290 0.465940 0.501183 0.222584
H42   H     H_    0.708923 0.612584 0.550771 0.245191
H43   H     H_    0.671917 0.498725 0.472594 0.237027
O30   O     O_3   0.327207 0.473686 0.443333 -0.590418
C70   C     C_3   0.310160 0.640170 0.474734 0.087416
H44   H     H_    0.341630 0.659298 0.524560 0.156208
H45   H     H_    0.264687 0.631108 0.490992 0.093726
C71   C     C_3   0.315149 0.811484 0.428604 -0.331991
H46   H     H_    0.360058 0.811975 0.410551 0.223157
H47   H     H_    0.279701 0.808172 0.381302 0.183524
C72   C     C_3   0.307451 0.989099 0.469121 -0.754199
H48   H     H_    0.259615 0.006205 0.477267 0.219001
H49   H     H_    0.320216 0.107986 0.438505 0.244670
H50   H     H_    0.337035 0.988138 0.520983 0.233338
O31   O     O_3   0.861547 0.996553 0.323617 -0.542788
C73   C     C_3   0.860239 0.025275 0.396155 0.098352
H51   H     H_    0.896687 0.938962 0.425981 0.163736
H52   H     H_    0.816982 0.983908 0.414307 0.077799
C74   C     C_3   0.873155 0.229014 0.414151 -0.288693
H53   H     H_    0.915846 0.270963 0.395435 0.260753
H54   H     H_    0.835593 0.315959 0.386925 0.179966
C75   C     C_3   0.879592 0.263217 0.493245 -0.815841
H55   H     H_    0.837416 0.223571 0.513343 0.215757
H56   H     H_    0.888227 0.412452 0.504287 0.246782
H57   H     H_    0.918161 0.181843 0.521360 0.256771
O32   O     O_3   0.149200 0.590216 0.689930 -0.551834
C76   C     C_3   0.149901 0.636505 0.618650 0.117918
H58   H     H_    0.105494 0.594665 0.588533 0.171700
H59   H     H_    0.185561 0.564478 0.593819 0.071778
C77   C     C_3   0.157370 0.845697 0.611745 -0.311704
H60   H     H_    0.125535 0.919194 0.641500 0.258136
H61   H     H_    0.204418 0.884923 0.634418 0.173569
C78   C     C_3   0.144744 0.906375 0.534915 -0.804417
H62   H     H_    0.173899 0.828261 0.503239 0.219452
H63   H     H_    0.154246 0.056463 0.530995 0.227504
H64   H     H_    0.096431 0.881514 0.513017 0.256600

loop_
_geom_bond_atom_site_label_1
_geom_bond_atom_site_label_2
_ccdc_geom_bond_type
C34   H14   S    
C14   C16   A    
C76   H58   S    
C39   C55   T    
O28   C64   S    
C7    C29   A    
C72   H49   S    
C45   C47   S    
C74   H53   S    
O1    C3    A    
C42   H20   S    
C48   C56   S    
C2    O7    A    
C9    H7    S    
C12   H12   S    
C34   C48   S    
C23   C25   A    
H15   C51   S    
O23   H21   S    
O5    C3    A    
C76   H59   S    
C46   C48   S    
O11   C59   A    
C16   C20   A    
C19   C21   A    
C5    C29   A    
O26   H22   S    
C68   H40   S    
H2    C24   S    
C50   C52   S    
C33   C35   S    
C11   C13   A    
O32   C76   S    
C36   C44   S    
C34   C36   S    
O27   C61   S    
C7    C27   A    
C61   H23   S    
C41   C43   S    
C77   H60   S    
C44   C50   S    
S2    O24   D    
C35   O31   S    
C29   S1    S    
C12   C14   A    
C78   H63   S    
C18   C26   A    
C42   C46   S    
C66   H36   S    
C15   C17   A    
C41   C45   S    
C19   C27   A    
C9    C31   A    
C25   O29   S    
C41   H19   S    
C10   C32   A    
C50   H18   S    
C24   C26   A    
C26   O30   S    
O6    V2    S    
C72   H50   S    
C75   H56   S    
H16   C52   S    
C69   H43   S    
C3    C32   S    
C4    C31   S    
C6    C30   A    
O12   C60   A    
S1    O23   S    
O15   V3    S    
C77   H61   S    
C62   H26   S    
C76   C77   S    
C40   C56   T    
C73   C74   S    
C74   C75   S    
O30   C70   S    
C69   H42   S    
C70   C71   S    
C35   C51   S    
C27   H5    S    
C58   O17   A    
C5    H3    S    
C16   C18   A    
C38   C59   S    
O4    V2    S    
C65   H33   S    
C64   H31   S    
C10   H8    S    
S1    O22   D    
O13   C57   A    
C14   H10   S    
C37   C53   T    
O31   C73   S    
S2    O26   S    
C71   C72   S    
O6    C4    A    
C78   H64   S    
O14   C58   A    
C49   C51   S    
O1    V2    S    
C5    C21   A    
O2    V1    S    
C77   C78   S    
C8    C57   S    
O17   V3    S    
H1    C23   S    
O4    C2    A    
C2    C39   S    
C71   H47   S    
O19   V4    S    
C30   S2    S    
O11   V4    S    
C66   H34   S    
C8    C28   A    
C15   C19   A    
C68   C69   S    
C65   C66   S    
C18   C32   A    
C63   H28   S    
C64   H30   S    
C1    C40   S    
C43   C49   S    
O3    V1    S    
O2    C4    A    
S1    O21   D    
C62   C63   S    
C28   H6    S    
O16   V4    S    
C36   C52   S    
C74   H54   S    
C6    H4    S    
C73   H52   S    
C34   C42   S    
C48   C52   S    
C37   C60   S    
O13   V3    S    
C69   H41   S    
O3    C1    A    
C67   C68   S    
C62   H25   S    
C61   C62   S    
C33   H13   S    
C67   H38   S    
C9    C11   A    
O29   C67   S    
C11   H11   S    
C10   C12   A    
C45   O27   S    
C7    C58   S    
C17   C25   A    
C73   H51   S    
C33   C47   S    
C63   H29   S    
C70   H45   S    
C65   H32   S    
C6    C22   A    
C64   C65   S    
C36   O32   S    
C1    O8    A    
C13   C15   A    
O8    V2    S    
C70   H44   S    
C20   C22   A    
C22   C24   A    
C47   C55   S    
C46   O28   S    
C75   H55   S    
C13   H9    S    
C17   C31   A    
O16   C60   A    
O5    V1    S    
C61   H24   S    
O15   C59   A    
O7    V1    S    
O20   V3    S    
S2    O25   D    
O12   V3    S    
C20   C28   A    
C67   H37   S    
O14   V4    S    
C49   H17   S    
C71   H46   S    
C75   H57   S    
C21   C23   A    
C78   H62   S    
C46   C50   S    
O9    V2    S    
C72   H48   S    
C66   H35   S    
C45   C49   S    
O10   V1    S    
C42   C44   S    
C33   C41   S    
C63   H27   S    
C68   H39   S    
C47   C51   S    
C57   O18   A    
O18   V4    S    
C44   C54   S    
C38   C54   T    
C35   C43   S    
C8    C30   A    
C43   C53   S    
