data_str_m3_o4_o17_f0_pcu.sym.219
_audit_creation_date              2012-12-10T20:31:04-0500
_audit_creation_method            fapswitch 2.2
_symmetry_space_group_name_H-M    P1
_symmetry_Int_Tables_number       1
_space_group_crystal_system       triclinic
_cell_length_a                    14.928633
_cell_length_b                    10.654767
_cell_length_c                    9.873151
_cell_angle_alpha                 89.696782
_cell_angle_beta                  89.331487
_cell_angle_gamma                 90.141138
_cell_volume                      1570.30042783

loop_
_atom_site_label
_atom_site_type_symbol
_atom_type_description
_atom_site_fract_x
_atom_site_fract_y
_atom_site_fract_z
_atom_type_partial_charge
C1    C     C_R   0.505124 0.260192 0.500510 0.887784
C2    C     C_R   0.908621 0.616245 0.552004 -0.044214
C3    C     C_R   0.951952 0.329588 0.336570 -0.058068
C4    C     C_R   0.046381 0.324331 0.339540 -0.065761
C5    C     C_R   0.093748 0.415522 0.413883 0.021219
C6    C     C_R   0.047587 0.513552 0.481549 0.075925
C7    C     C_R   0.095511 0.606613 0.551957 0.094621
C8    C     C_R   0.051928 0.708674 0.609453 -0.103929
C9    C     C_R   0.959174 0.718580 0.604281 -0.065774
C10   C     C_R   0.186867 0.410286 0.425342 -0.218230
C11   C     C_R   0.231978 0.500734 0.498941 -0.019203
C12   C     C_R   0.327121 0.498896 0.500355 0.923202
C13   C     C_R   0.187612 0.599598 0.559462 -0.165300
C14   C     C_R   0.521262 0.063697 0.624239 -0.035790
C15   C     C_R   0.525278 0.129917 0.502852 -0.116460
C16   C     C_R   0.553826 0.068515 0.384754 -0.151012
C17   C     C_R   0.558743 0.937425 0.383289 -0.043249
C18   C     C_R   0.526361 0.871350 0.499557 -0.095966
C19   C     C_R   0.515320 0.936709 0.620607 0.059931
C20   C     C_3   0.450732 0.930586 0.739227 -0.096381
C21   C     C_3   0.461806 0.074326 0.747120 -0.274890
C22   C     C_R   0.428511 0.544340 0.072927 0.270371
C23   C     C_R   0.506639 0.739884 0.499343 0.963891
C24   C     C_R   0.573840 0.463410 0.070723 -0.092938
C25   C     C_R   0.573876 0.463565 0.926911 -0.108280
C26   C     C_R   0.427886 0.543639 0.930555 0.040344
C27   C     C_3   0.332347 0.497025 0.931207 -0.136789
C28   C     C_3   0.334659 0.498300 0.085653 -0.540723
C29   C     C_R   0.673059 0.504632 0.499175 0.918619
C30   C     C_R   0.814821 0.606834 0.568818 -0.074824
C31   C     C_R   0.768902 0.514690 0.495179 -0.060769
C32   C     C_R   0.813543 0.429615 0.413040 -0.278915
C33   C     C_R   0.906428 0.424567 0.410318 0.032225
C34   C     C_R   0.954179 0.518115 0.481079 0.079150
N1    N     N_R   0.499390 0.499140 0.142800 -0.111867
N2    N     N_R   0.499390 0.499180 0.857150 -0.133898
O1    O     O_R   0.500010 0.316790 0.614690 -0.641023
O2    O     O_R   0.500000 0.316760 0.385350 -0.614059
O3    O     O_R   0.367850 0.499990 0.614680 -0.620642
O4    O     O_R   0.367840 0.499950 0.385340 -0.622587
O5    O     O_R   0.500000 0.683240 0.614650 -0.612218
O6    O     O_R   0.499990 0.683210 0.385310 -0.634079
O7    O     O_R   0.632160 0.500050 0.614660 -0.605930
O8    O     O_R   0.632150 0.500010 0.385320 -0.650388
Zn1   Zn    Zn3+2 0.500010 0.500020 0.653130 0.965132
Zn2   Zn    Zn3+2 0.499990 0.499980 0.346870 0.972522
C35   C     C_2   0.766427 0.683841 0.671290 0.346327
H1    H     H_    0.794614 0.695737 0.771251 0.101989
O9    O     O_2   0.697470 0.738900 0.643183 -0.610082
C36   C     C_2   0.597400 0.874446 0.262022 0.487238
H2    H     H_    0.622973 0.779521 0.268599 0.077427
O10   O     O_2   0.603842 0.929583 0.153573 -0.535610
C37   C     C_2   0.355386 0.895459 0.704670 0.395147
H3    H     H_    0.303970 0.899534 0.783102 0.113688
O11   O     O_2   0.334255 0.866371 0.589927 -0.593838
C38   C     C_2   0.487015 0.855372 0.856579 0.455732
H4    H     H_    0.551933 0.810108 0.848566 0.117018
O12   O     O_2   0.444346 0.846434 0.962473 -0.542923
H5    H     H_    0.399928 0.129004 0.726631 0.177546
C39   C     C_2   0.513257 0.123235 0.866664 0.479291
H6    H     H_    0.580966 0.159115 0.853476 0.073958
O13   O     O_2   0.478848 0.123769 0.979391 -0.527420
H7    H     H_    0.632739 0.432116 0.123803 0.152149
H8    H     H_    0.632812 0.432395 0.872180 0.154338
C40   C     C_2   0.268473 0.593116 0.875835 0.561261
H9    H     H_    0.294029 0.673553 0.820294 0.023638
O14   O     O_2   0.187822 0.581796 0.894231 -0.531193
C41   C     C_2   0.321268 0.366428 0.874550 0.507504
H10   H     H_    0.367028 0.293209 0.904712 0.080158
O15   O     O_2   0.260816 0.341083 0.796928 -0.533679
H11   H     H_    0.290561 0.569575 0.134141 0.232061
H12   H     H_    0.773874 0.363277 0.356564 0.129786
H13   H     H_    0.330645 0.403943 0.134360 0.199923
C42   C     C_2   0.900977 0.236607 0.255459 0.500007
H14   H     H_    0.844045 0.187243 0.299744 0.043046
O16   O     O_2   0.921635 0.216011 0.137637 -0.508888
C43   C     C_2   0.095571 0.222459 0.267583 0.535482
H15   H     H_    0.154747 0.244179 0.206967 0.057014
O17   O     O_2   0.071372 0.113225 0.277867 -0.515976
H16   H     H_    0.225809 0.336153 0.378999 0.126210
H17   H     H_    0.225209 0.672673 0.609162 0.159606
H18   H     H_    0.091091 0.783743 0.653540 0.198309
C44   C     C_2   0.919542 0.842548 0.638342 0.420690
H19   H     H_    0.858671 0.873723 0.589799 0.089026
O18   O     O_2   0.955753 0.912761 0.718481 -0.517066
H20   H     H_    0.569772 0.121958 0.293860 0.210324

loop_
_geom_bond_atom_site_label_1
_geom_bond_atom_site_label_2
_ccdc_geom_bond_type
C8    C9    A    
C19   C20   S    
C20   C38   S    
C7    C8    A    
C35   O9    D    
C37   H3    S    
O4    Zn2   S    
C22   N1    A    
C26   C27   S    
C23   O6    A    
C42   O16   D    
C44   H19   S    
C8    H18   S    
C14   C21   S    
C21   H5    S    
C30   C31   A    
C3    C33   A    
C15   C16   A    
C13   H17   S    
C38   H4    S    
C39   O13   D    
C18   C19   A    
O6    Zn2   S    
C3    C42   S    
C27   C41   S    
C31   C32   A    
C16   C17   A    
C40   O14   D    
C36   O10   D    
C1    C15   S    
C1    O1    A    
O3    Zn1   S    
C2    C34   A    
C37   O11   D    
C22   C28   S    
C29   O7    A    
C16   H20   S    
C28   H13   S    
O8    Zn2   S    
C33   C34   A    
C43   O17   D    
C24   N1    A    
C42   H14   S    
C18   C23   S    
C30   C35   S    
C2    C9    A    
C24   C25   A    
C21   C39   S    
C32   H12   S    
C10   H16   S    
C41   H10   S    
C36   H2    S    
C43   H15   S    
C6    C34   A    
C39   H6    S    
C25   H8    S    
C12   O4    A    
C27   C40   S    
C35   H1    S    
C7    C13   A    
C17   C18   A    
N2    Zn1   S    
O7    Zn1   S    
C1    O2    A    
C9    C44   S    
C26   N2    A    
C44   O18   D    
C24   H7    S    
C29   O8    A    
C28   H11   S    
O1    Zn1   S    
C3    C4    A    
C14   C19   A    
C20   C37   S    
C17   C36   S    
C11   C12   S    
C6    C7    A    
C23   O5    A    
C2    C30   A    
C32   C33   A    
C12   O3    A    
C5    C10   A    
C29   C31   S    
C11   C13   A    
C5    C6    A    
C4    C5    A    
C38   O12   D    
O2    Zn2   S    
C10   C11   A    
C25   N2    A    
C4    C43   S    
C20   C21   S    
C41   O15   D    
C40   H9    S    
C22   C26   A    
C27   C28   S    
O5    Zn1   S    
C14   C15   A    
N1    Zn2   S    
