data_str_m9_o16_o27_f0_sra.sym.45
_audit_creation_date              2012-12-11T15:16:41-0500
_audit_creation_method            fapswitch 2.2
_symmetry_space_group_name_H-M    P1
_symmetry_Int_Tables_number       1
_space_group_crystal_system       triclinic
_cell_length_a                    25.133699
_cell_length_b                    7.23257
_cell_length_c                    21.983444
_cell_angle_alpha                 90.001947
_cell_angle_beta                  109.987962
_cell_angle_gamma                 90.000688
_cell_volume                      3755.4657276

loop_
_atom_site_label
_atom_site_type_symbol
_atom_type_description
_atom_site_fract_x
_atom_site_fract_y
_atom_site_fract_z
_atom_type_partial_charge
O1    O     O_R   0.554350 0.505270 0.581390 -0.527731
O2    O     O_R   0.445650 0.005270 0.418610 -0.527710
O3    O     O_R   0.553380 0.177580 0.454800 -0.542428
O4    O     O_R   0.446620 0.677580 0.545200 -0.542437
C1    C     C_R   0.565174 0.344381 0.437454 0.714233
C2    C     C_R   0.434826 0.844383 0.562545 0.714221
O5    O     O_R   0.560970 0.175640 0.583140 -0.537211
O6    O     O_R   0.439030 0.675640 0.416860 -0.537231
O7    O     O_R   0.453290 0.004120 0.547860 -0.535844
O8    O     O_R   0.546710 0.504120 0.452140 -0.535851
C3    C     C_R   0.576495 0.344118 0.607119 0.763838
C4    C     C_R   0.423504 0.844110 0.392881 0.763822
O9    O     O_3   0.464660 0.338800 0.488280 -0.377727
O10   O     O_3   0.535340 0.838800 0.511720 -0.377723
V1    V     V_3+5 0.506560 0.064420 0.502170 1.422912
V2    V     V_3+5 0.493440 0.564420 0.497830 1.422894
C5    C     C_R   0.143496 0.969087 0.288394 0.309135
C6    C     C_R   0.856517 0.468786 0.711601 0.309131
H1    H     H_    0.059305 0.996791 0.219416 0.111469
H2    H     H_    0.940709 0.496481 0.780579 0.111463
H3    H     H_    0.228874 0.970799 0.401156 0.175141
H4    H     H_    0.771143 0.470375 0.598834 0.175144
C7    C     C_R   0.119578 0.941859 0.172227 -0.071315
C8    C     C_R   0.880423 0.441818 0.827773 -0.071302
C9    C     C_R   0.394840 0.819581 0.275345 -0.190007
C10   C     C_R   0.605150 0.319785 0.724660 -0.190018
C11   C     C_R   0.355754 0.818746 0.213065 -0.112393
C12   C     C_R   0.644232 0.319022 0.786941 -0.112385
C13   C     C_R   0.298610 0.848251 0.202304 -0.141166
C14   C     C_R   0.701380 0.348446 0.797701 -0.141166
C15   C     C_R   0.278436 0.880287 0.254142 0.047339
C16   C     C_R   0.721561 0.380325 0.745860 0.047336
C17   C     C_R   0.319002 0.882748 0.318911 0.076441
C18   C     C_R   0.680999 0.382698 0.681088 0.076441
C19   C     C_R   0.219217 0.909242 0.243292 0.023388
C20   C     C_R   0.780784 0.409208 0.756709 0.023391
C21   C     C_R   0.201487 0.940197 0.297326 0.071662
C22   C     C_R   0.798521 0.439988 0.702670 0.071655
C23   C     C_R   0.241711 0.944363 0.359668 -0.230481
C24   C     C_R   0.758301 0.444070 0.640326 -0.230478
C25   C     C_R   0.299144 0.915362 0.371068 0.133933
C26   C     C_R   0.700865 0.415150 0.628928 0.133943
C27   C     C_R   0.176744 0.909436 0.180562 -0.210003
C28   C     C_R   0.823253 0.409495 0.819441 -0.209998
C29   C     C_R   0.103496 0.972496 0.225971 -0.230806
C30   C     C_R   0.896514 0.472270 0.774025 -0.230816
C31   C     C_R   0.377873 0.851342 0.328695 -0.073937
C32   C     C_R   0.622124 0.351380 0.671306 -0.073927
H5    H     H_    0.186408 0.887294 0.137036 0.101094
H6    H     H_    0.813583 0.387490 0.862970 0.101084
H7    H     H_    0.439035 0.794900 0.282047 0.106192
H8    H     H_    0.560951 0.295179 0.717959 0.106185
H9    H     H_    0.271351 0.844488 0.152467 0.108255
H10   H     H_    0.728636 0.344747 0.847540 0.108256
H11   H     H_    0.369907 0.794131 0.172451 0.123857
H12   H     H_    0.630073 0.294531 0.827558 0.123856
C33   C     C_R   0.132395 0.767511 0.897554 -0.197743
C34   C     C_R   0.867604 0.267510 0.102443 -0.197743
H13   H     H_    0.125076 0.647224 0.922978 0.123581
H14   H     H_    0.874923 0.147222 0.077018 0.123583
C35   C     C_R   0.169522 0.752448 0.862102 0.220073
C36   C     C_R   0.830477 0.252447 0.137896 0.220071
C37   C     C_R   0.179448 0.908399 0.828272 0.002832
C38   C     C_R   0.820551 0.408400 0.171727 0.002833
C39   C     C_R   0.152948 0.076763 0.833087 -0.188890
C40   C     C_R   0.847051 0.576769 0.166913 -0.188887
H15   H     H_    0.159473 0.198489 0.807847 0.173053
H16   H     H_    0.840526 0.698496 0.192154 0.173053
C41   C     C_R   0.116859 0.090512 0.869360 -0.172017
C42   C     C_R   0.883140 0.590518 0.130640 -0.172017
H17   H     H_    0.096929 0.222170 0.871184 0.131210
H18   H     H_    0.903070 0.722178 0.128817 0.131211
C43   C     C_R   0.105649 0.935610 0.901535 -0.074822
C44   C     C_R   0.894350 0.435613 0.098464 -0.074824
N1    N     N_R   0.238111 0.055536 0.770779 -0.279959
N2    N     N_R   0.761888 0.555535 0.229220 -0.279959
N3    N     N_R   0.271315 0.047577 0.734713 -0.282226
N4    N     N_R   0.728683 0.547575 0.265287 -0.282228
C45   C     C_R   0.284521 0.882641 0.713761 0.499410
C46   C     C_R   0.715478 0.382639 0.286238 0.499410
N5    N     N_R   0.262713 0.726298 0.730237 -0.282190
N6    N     N_R   0.737288 0.226298 0.269762 -0.282189
N7    N     N_R   0.229512 0.734393 0.766233 -0.233093
N8    N     N_R   0.770489 0.234395 0.233765 -0.233092
C47   C     C_R   0.216681 0.898912 0.787760 0.520663
C48   C     C_R   0.783318 0.398912 0.212239 0.520667
C49   C     C_R   0.337341 0.701427 0.654515 -0.133900
C50   C     C_R   0.662661 0.201425 0.345485 -0.133896
H19   H     H_    0.321359 0.573625 0.667330 0.139074
H20   H     H_    0.678644 0.073624 0.332670 0.139075
C51   C     C_R   0.373546 0.692006 0.618248 -0.169439
C52   C     C_R   0.626455 0.192004 0.381752 -0.169446
H21   H     H_    0.384216 0.557251 0.604266 0.121106
H22   H     H_    0.615787 0.057250 0.395735 0.121105
C53   C     C_R   0.395765 0.853937 0.600610 -0.054924
C54   C     C_R   0.604234 0.353934 0.399389 -0.054916
C55   C     C_R   0.380360 0.025578 0.619986 -0.166461
C56   C     C_R   0.619637 0.525573 0.380012 -0.166469
H23   H     H_    0.396344 0.153592 0.607323 0.121452
H24   H     H_    0.603652 0.653587 0.392674 0.121454
C57   C     C_R   0.344197 0.034918 0.656278 -0.136457
C58   C     C_R   0.655800 0.534914 0.343720 -0.136454
H25   H     H_    0.333559 0.169553 0.670389 0.134603
H26   H     H_    0.666436 0.669548 0.329609 0.134602
C59   C     C_R   0.322305 0.872984 0.674247 0.024942
C60   C     C_R   0.677694 0.372981 0.325752 0.024943
O11   O     O_R   0.953220 0.285790 0.047790 -0.537620
O12   O     O_R   0.046780 0.785790 0.952210 -0.537622
O13   O     O_R   0.939020 0.617570 0.916840 -0.534597
O14   O     O_R   0.060980 0.117570 0.083160 -0.534600
C61   C     C_R   0.924034 0.448633 0.892723 0.699387
C62   C     C_R   0.075967 0.948641 0.107277 0.699385
O15   O     O_R   0.946600 0.615450 0.045180 -0.541280
O16   O     O_R   0.053400 0.115450 0.954820 -0.541280
O17   O     O_R   0.054370 0.786770 0.081410 -0.532902
O18   O     O_R   0.945630 0.286770 0.918590 -0.532903
C63   C     C_R   0.934094 0.446824 0.061378 0.686856
C64   C     C_R   0.065906 0.946822 0.938622 0.686860
O19   O     O_3   0.035300 0.454160 0.011680 -0.374972
O20   O     O_3   0.964700 0.954160 0.988320 -0.374970
V3    V     V_3+5 0.993450 0.728620 0.997830 1.407973
V4    V     V_3+5 0.006550 0.228620 0.002170 1.407976
N9    N     N_3   0.197911 0.580140 0.861730 -0.636936
H27   H     H_    0.240770 0.599604 0.888501 0.235022
H28   H     H_    0.183430 0.477460 0.885704 0.216048
N10   N     N_3   0.802089 0.080134 0.138268 -0.636937
H29   H     H_    0.759231 0.099585 0.111493 0.235021
H30   H     H_    0.816573 0.977451 0.114295 0.216049
N11   N     N_2   0.124960 0.996195 0.342149 -0.533877
H31   H     H_    0.091925 0.088796 0.333171 0.260435
C65   C     C_3   0.113805 0.826254 0.370368 -0.549519
H32   H     H_    0.077734 0.751440 0.335062 0.197249
H33   H     H_    0.102849 0.858602 0.414034 0.208170
H34   H     H_    0.151788 0.735636 0.385136 0.206786
N12   N     N_2   0.875060 0.495721 0.657843 -0.533873
H35   H     H_    0.908104 0.588284 0.666805 0.260435
C66   C     C_3   0.886201 0.325686 0.629664 -0.549507
H36   H     H_    0.922263 0.250897 0.664988 0.197246
H37   H     H_    0.897164 0.357901 0.585992 0.208168
H38   H     H_    0.848210 0.235097 0.614912 0.206782
N13   N     N_3   0.336674 0.918980 0.436747 -0.677332
H39   H     H_    0.333140 0.047996 0.456522 0.232420
H40   H     H_    0.323341 0.818008 0.462429 0.221007
N14   N     N_3   0.663338 0.418683 0.563247 -0.677358
H41   H     H_    0.676657 0.317605 0.537587 0.221029
H42   H     H_    0.666893 0.547637 0.543444 0.232395

loop_
_geom_bond_atom_site_label_1
_geom_bond_atom_site_label_2
_ccdc_geom_bond_type
C34   C36   A    
C40   H16   S    
C37   C39   A    
N10   H29   S    
C7    C29   A    
C49   C51   A    
C11   C13   A    
O1    C3    A    
O12   V3    S    
C65   H34   S    
O2    C4    A    
C2    O7    A    
C12   H12   S    
N9    H27   S    
C23   C25   A    
C39   C41   A    
O5    C3    A    
C7    C62   S    
C14   H10   S    
O18   V4    S    
O17   V3    S    
C16   C20   A    
C19   C21   A    
C5    C29   A    
O13   C61   A    
N4    C46   A    
N9    H28   S    
C34   H14   S    
C46   C60   S    
C52   C54   A    
C7    C27   A    
C45   C59   S    
C35   C37   A    
O6    V2    S    
C33   C43   A    
C41   H17   S    
C36   C38   A    
C55   H23   S    
N1    C47   A    
C50   C52   A    
C18   C26   A    
C39   H15   S    
H2    C30   S    
C54   C56   A    
C42   C44   A    
C15   C17   A    
C41   C43   A    
C61   O18   A    
C19   C27   A    
C9    C31   A    
C10   C32   A    
C24   C26   A    
C57   H25   S    
C22   C24   A    
C37   C47   S    
C3    C32   S    
C8    C61   S    
C4    C31   S    
C6    C30   A    
C38   C48   S    
N5    N7    A    
N3    C45   A    
C57   C59   A    
C66   H38   S    
C5    N11   S    
O12   C64   A    
N12   H35   S    
N14   H42   S    
C36   N10   S    
C27   H5    S    
C65   H33   S    
C56   C58   A    
H1    C29   S    
C38   C40   A    
O4    V2    S    
C9    H7    S    
C25   N13   S    
C10   H8    S    
C51   H21   S    
C50   C60   A    
C49   C59   A    
O6    C4    A    
H4    C24   S    
C52   H22   S    
C6    N12   S    
O1    V2    S    
C5    C21   A    
C58   H26   S    
O2    V1    S    
N1    N3    A    
O16   C64   A    
O15   C63   A    
C46   N6    A    
N7    C47   A    
C50   H20   S    
N6    N8    A    
C49   H19   S    
C26   N14   S    
C8    C28   A    
C15   C19   A    
C20   C28   A    
O4    C2    A    
C18   C32   A    
C65   H32   S    
N2    C48   A    
C1    C54   S    
O3    V1    S    
O20   V3    S    
C34   C44   A    
C45   N5    A    
N11   H31   S    
O19   V4    S    
C28   H6    S    
N12   C66   S    
C44   C63   S    
N10   H30   S    
C43   C64   S    
C66   H37   S    
H3    C23   S    
N2    N4    A    
N14   H41   S    
O3    C1    A    
C53   C55   A    
C33   C35   A    
C9    C11   A    
C66   H36   S    
C10   C12   A    
C35   N9    S    
C8    C30   A    
N13   H40   S    
C6    C22   A    
C17   C25   A    
C12   C14   A    
C21   C23   A    
O8    V2    S    
N13   H39   S    
O14   V4    S    
C20   C22   A    
C14   C16   A    
O13   V3    S    
C40   C42   A    
C13   H9    S    
C17   C31   A    
O5    V1    S    
C58   C60   A    
C11   H11   S    
O7    V1    S    
C56   H24   S    
O14   C62   A    
C33   H13   S    
C51   C53   A    
O16   V4    S    
C1    O8    A    
O15   V3    S    
C13   C15   A    
C2    C53   S    
O9    V2    S    
O10   V1    S    
N8    C48   A    
C42   H18   S    
O11   V4    S    
O11   C63   A    
C62   O17   A    
C55   C57   A    
C16   C18   A    
N11   C65   S    
