data_str_m3_o40_o40_f0_fof.sym.55
_audit_creation_date              2012-12-10T16:37:25-0500
_audit_creation_method            fapswitch 2.2
_symmetry_space_group_name_H-M    P1
_symmetry_Int_Tables_number       1
_space_group_crystal_system       triclinic
_cell_length_a                    16.755653
_cell_length_b                    16.76011
_cell_length_c                    16.836258
_cell_angle_alpha                 66.247534
_cell_angle_beta                  65.914842
_cell_angle_gamma                 65.891879
_cell_volume                      3778.50527169

loop_
_atom_site_label
_atom_site_type_symbol
_atom_type_description
_atom_site_fract_x
_atom_site_fract_y
_atom_site_fract_z
_atom_type_partial_charge
C1    C     C_R   0.396471 0.053088 0.666420 -0.038211
C2    C     C_R   0.442134 0.707701 0.922823 0.009315
C3    C     C_R   0.105639 0.539079 0.286647 -0.001443
C4    C     C_R   0.072114 0.395868 0.660724 0.013569
C5    C     C_R   0.983566 0.174803 0.430397 0.974116
C6    C     C_R   0.039180 0.820454 0.561717 0.967665
C7    C     C_R   0.179434 0.438172 0.960966 1.003711
C8    C     C_R   0.837476 0.575153 0.993606 0.967199
C9    C     C_R   0.430216 0.980818 0.176442 0.990118
C10   C     C_R   0.561216 0.039311 0.820860 0.960447
C11   C     C_R   0.575392 0.837211 0.993622 0.968396
C12   C     C_R   0.556115 0.042350 0.320415 -0.000015
C13   C     C_R   0.438656 0.179163 0.960495 0.988213
C14   C     C_R   0.039183 0.561726 0.820343 0.948520
C15   C     C_R   0.985142 0.429972 0.174043 0.987073
C16   C     C_R   0.823789 0.018945 0.569694 0.977031
C17   C     C_R   0.179267 0.959842 0.438961 0.996212
C18   C     C_R   0.443159 0.078788 0.702169 0.471297
C19   C     C_R   0.500425 0.048127 0.272105 0.398115
C20   C     C_R   0.098010 0.701430 0.439442 0.413005
C21   C     C_R   0.085430 0.244307 0.492552 0.399526
C22   C     C_R   0.758883 0.494263 0.917774 0.377753
C23   C     C_R   0.077921 0.660296 0.394451 0.011051
C24   C     C_R   0.304232 0.561914 0.879613 0.381319
C25   C     C_R   0.301993 0.911761 0.556332 0.446200
C26   C     C_R   0.730417 0.949386 0.499921 0.397900
C27   C     C_R   0.563920 0.303286 0.878195 0.386207
C28   C     C_R   0.494916 0.757706 0.918289 0.382438
C29   C     C_R   0.085966 0.494828 0.242983 0.380376
C30   C     C_R   0.094291 0.439194 0.701532 0.465198
C31   C     C_R   0.540134 0.007687 0.554067 -0.060592
C32   C     C_R   0.448038 0.986452 0.461176 -0.061827
C33   C     C_R   0.080796 0.524780 0.524339 -0.069862
C34   C     C_R   0.102614 0.288449 0.538081 -0.048759
C35   C     C_R   0.060105 0.431718 0.429952 -0.070082
C36   C     C_R   0.576065 0.575067 0.916917 -0.095282
C37   C     C_R   0.478254 0.476920 0.906759 -0.091863
C38   C     C_R   0.586218 0.992287 0.468323 0.070997
C39   C     C_R   0.409295 0.978369 0.554979 0.011100
C40   C     C_R   0.076274 0.433645 0.567272 0.035478
C41   C     C_R   0.076811 0.516926 0.382928 0.047101
C42   C     C_R   0.484751 0.618855 0.911650 0.062104
C43   C     C_R   0.572336 0.436852 0.899608 0.060755
C44   C     C_R   0.532912 0.004218 0.415388 0.069415
C45   C     C_R   0.709058 0.441588 0.921798 0.009508
C46   C     C_R   0.446952 0.011108 0.594523 0.009406
C47   C     C_R   0.437713 0.570632 0.900748 0.062818
C48   C     C_R   0.620237 0.483975 0.910863 0.061475
C49   C     C_R   0.073761 0.384830 0.516107 0.046119
C50   C     C_R   0.080114 0.567261 0.432267 0.043613
C51   C     C_R   0.540012 0.051148 0.675886 0.031234
C52   C     C_R   0.433780 0.999960 0.317252 0.036170
C53   C     C_R   0.082390 0.666945 0.534253 0.032857
C54   C     C_R   0.037149 0.297875 0.427240 0.038019
C55   C     C_R   0.711875 0.577364 0.940678 0.035351
C56   C     C_R   0.358104 0.614087 0.870632 0.006089
C57   C     C_R   0.333912 0.465996 0.912488 0.047390
C58   C     C_R   0.326422 0.943151 0.460163 0.039761
C59   C     C_R   0.684022 0.996954 0.567230 0.032815
C60   C     C_R   0.467481 0.332937 0.911693 0.042135
C61   C     C_R   0.578001 0.711050 0.940856 0.035828
C62   C     C_R   0.038034 0.428582 0.296308 0.038469
C63   C     C_R   0.081068 0.534096 0.667033 0.019544
C64   C     C_R   0.591677 0.055165 0.723285 -0.046686
C65   C     C_R   0.393505 0.977474 0.271506 -0.095928
C66   C     C_R   0.067740 0.720423 0.589836 -0.080404
C67   C     C_R   0.341820 0.931283 0.604209 -0.038527
C68   C     C_R   0.998352 0.263195 0.390612 -0.078348
C69   C     C_R   0.751700 0.619894 0.968463 -0.096224
C70   C     C_R   0.278981 0.408901 0.935002 -0.064061
C71   C     C_R   0.277703 0.941843 0.408370 -0.056559
C72   C     C_R   0.729009 0.020794 0.607005 -0.096538
C73   C     C_R   0.409886 0.278324 0.934395 -0.065033
C74   C     C_R   0.620329 0.751188 0.968525 -0.093883
C75   C     C_R   0.999478 0.390972 0.262064 -0.080887
C76   C     C_R   0.067200 0.589687 0.720472 -0.067255
C77   C     C_R   0.681874 0.050846 0.682946 -0.334906
C78   C     C_R   0.682147 0.955468 0.444150 0.001043
C79   C     C_R   0.317514 0.947410 0.318165 -0.327581
C80   C     C_R   0.065525 0.679754 0.679731 -0.294305
C81   C     C_R   0.973311 0.313905 0.313253 -0.356996
C82   C     C_R   0.706388 0.705998 0.978564 -0.334176
C83   C     C_R   0.318161 0.317487 0.944324 -0.317622
C84   C     C_R   0.587837 0.019429 0.598635 -0.091079
C85   C     C_R   0.403315 0.975561 0.413038 -0.084213
C86   C     C_R   0.080615 0.575467 0.575388 -0.088317
C87   C     C_R   0.040747 0.388046 0.386293 -0.081148
C88   C     C_R   0.621391 0.620579 0.934202 -0.076135
C89   C     C_R   0.616313 0.357432 0.868610 0.016898
C90   C     C_R   0.426262 0.424959 0.911887 -0.083038
H1    H     H_    0.717571 0.063517 0.715845 0.199920
H2    H     H_    0.672967 0.060338 0.220885 0.182363
H3    H     H_    0.032531 0.785385 0.307444 0.180389
H4    H     H_    0.978260 0.710450 0.334169 0.177192
H5    H     H_    0.227771 0.210102 0.551426 0.214710
H6    H     H_    0.138445 0.186281 0.644706 0.156823
H7    H     H_    0.746576 0.328241 0.020281 0.188730
H8    H     H_    0.806822 0.319291 0.914558 0.182245
H9    H     H_    0.278540 0.745431 0.840378 0.174180
H10   H     H_    0.350165 0.706370 0.749351 0.228271
H11   H     H_    0.370271 0.891058 0.725897 0.209142
H12   H     H_    0.283876 0.936159 0.282164 0.199869
H13   H     H_    0.257003 0.926710 0.732581 0.156209
H14   H     H_    0.750580 0.843719 0.397389 0.180351
H15   H     H_    0.782598 0.939508 0.327285 0.179893
H16   H     H_    0.709897 0.349091 0.746692 0.200462
H17   H     H_    0.748841 0.278372 0.837132 0.170801
H18   H     H_    0.319388 0.804912 0.916635 0.174255
H19   H     H_    0.328432 0.745612 0.022048 0.189677
H20   H     H_    0.145266 0.646611 0.185827 0.183643
H21   H     H_    0.231963 0.549261 0.204716 0.200968
H22   H     H_    0.988266 0.318161 0.690746 0.195994
H23   H     H_    0.054120 0.721260 0.721003 0.198433
H24   H     H_    0.071147 0.267012 0.745286 0.186662
H25   H     H_    0.330350 0.157721 0.764508 0.349496
H26   H     H_    0.552296 0.134816 0.161122 0.326215
H27   H     H_    0.163278 0.772649 0.325601 0.333910
H28   H     H_    0.154010 0.121106 0.549396 0.321196
H29   H     H_    0.873604 0.424966 0.849954 0.336016
H30   H     H_    0.207665 0.666723 0.836526 0.324334
H31   H     H_    0.230721 0.840760 0.666925 0.337947
H32   H     H_    0.843090 0.863129 0.447213 0.321362
H33   H     H_    0.669444 0.207022 0.834402 0.323712
H34   H     H_    0.939925 0.288955 0.288585 0.189827
H35   H     H_    0.424908 0.871935 0.851766 0.314205
H36   H     H_    0.145223 0.558509 0.119730 0.325901
H37   H     H_    0.150845 0.323021 0.778096 0.329640
H38   H     H_    0.737766 0.737534 0.998212 0.198275
H39   H     H_    0.275227 0.274851 0.963562 0.200035
H40   H     H_    0.270628 0.072845 0.656364 0.188739
H41   H     H_    0.277627 0.039771 0.763264 0.168375
H42   H     H_    0.600037 0.155351 0.254450 0.185288
N1    N     N_3   0.298334 0.080372 0.697057 -0.489002
N2    N     N_3   0.344372 0.740007 0.957285 -0.457689
N3    N     N_3   0.170217 0.590820 0.235884 -0.432201
N4    N     N_3   0.025238 0.328400 0.721094 -0.478004
N5    N     N_3   0.628238 0.084798 0.276551 -0.453152
N6    N     N_3   0.043273 0.716413 0.317731 -0.461263
N7    N     N_3   0.163881 0.238170 0.592573 -0.453448
N8    N     N_3   0.741481 0.344112 0.955441 -0.454724
N9    N     N_3   0.344321 0.706178 0.813687 -0.440170
N10   N     N_3   0.322639 0.891323 0.700727 -0.486575
N11   N     N_3   0.727170 0.914372 0.370957 -0.453572
N12   N     N_3   0.709087 0.343711 0.811071 -0.451072
O1    O     O_R   0.982940 0.138950 0.510160 -0.600175
O2    O     O_R   0.982940 0.510160 0.138950 -0.594324
O3    O     O_R   0.861050 0.017060 0.489840 -0.586107
O4    O     O_R   0.138950 0.982940 0.510160 -0.573089
O5    O     O_R   0.867700 0.025880 0.612340 -0.651705
O6    O     O_R   0.132300 0.974120 0.387660 -0.632994
O7    O     O_R   0.025880 0.612340 0.867700 -0.659792
O8    O     O_R   0.974120 0.387660 0.132300 -0.639873
O9    O     O_R   0.612340 0.867700 0.025880 -0.648071
O10   O     O_R   0.387660 0.132300 0.974120 -0.642578
O11   O     O_R   0.387660 0.974120 0.132300 -0.643129
O12   O     O_R   0.017060 0.861050 0.489840 -0.562402
O13   O     O_R   0.612340 0.025880 0.867700 -0.656103
O14   O     O_R   0.132300 0.387660 0.974120 -0.639373
O15   O     O_R   0.867700 0.612340 0.025880 -0.647347
O16   O     O_R   0.974120 0.132300 0.387660 -0.642802
O17   O     O_R   0.025880 0.867700 0.612340 -0.645372
O18   O     O_3   0.396646 0.136655 0.757169 -0.755408
O19   O     O_3   0.501738 0.107555 0.186138 -0.756057
O20   O     O_3   0.140008 0.769859 0.390794 -0.760764
O21   O     O_3   0.129360 0.153301 0.496943 -0.752128
O22   O     O_3   0.853037 0.468454 0.885245 -0.750144
O23   O     O_R   0.138950 0.510160 0.982940 -0.573484
O24   O     O_3   0.232389 0.600805 0.842294 -0.761485
O25   O     O_3   0.245499 0.855711 0.600421 -0.765766
O26   O     O_3   0.817573 0.890351 0.497841 -0.758345
O27   O     O_3   0.603159 0.230571 0.841696 -0.769122
O28   O     O_3   0.469311 0.851562 0.885702 -0.756363
O29   O     O_3   0.127952 0.501357 0.151896 -0.753495
O30   O     O_3   0.134196 0.388890 0.771093 -0.744128
O31   O     O_R   0.861050 0.489840 0.017060 -0.572786
O32   O     O_R   0.510160 0.982940 0.138950 -0.581388
O33   O     O_R   0.489840 0.017060 0.861050 -0.569788
O34   O     O_R   0.489840 0.861050 0.017060 -0.573025
O35   O     O_R   0.510160 0.138950 0.982940 -0.579072
O36   O     O_R   0.017060 0.489840 0.861050 -0.549856
Zn1   Zn    Zn3+2 0.004880 0.004880 0.583590 0.969913
Zn2   Zn    Zn3+2 0.995120 0.995120 0.416410 0.996902
Zn3   Zn    Zn3+2 0.004880 0.583590 0.004880 0.968136
Zn4   Zn    Zn3+2 0.995120 0.416410 0.995120 1.018422
Zn5   Zn    Zn3+2 0.583590 0.004880 0.004880 0.978351
Zn6   Zn    Zn3+2 0.416410 0.995120 0.995120 1.003651

loop_
_geom_bond_atom_site_label_1
_geom_bond_atom_site_label_2
_ccdc_geom_bond_type
H31   O25   S    
H13   N10   S    
C35   C41   A    
C65   C79   A    
C64   C77   A    
C60   C73   A    
C23   N6    S    
C36   C42   A    
C17   O6    A    
C16   C72   S    
C7    C70   S    
C71   C79   A    
C8    O31   A    
O32   Zn5   S    
O6    Zn2   S    
C7    O14   A    
C36   C88   A    
H18   N2    S    
O10   Zn6   S    
C8    C69   S    
C26   C78   A    
C37   C90   A    
C16   O3    A    
C68   C81   A    
C52   C85   A    
C24   O24   S    
H22   N4    S    
C83   H39   S    
H10   N9    S    
C14   O36   A    
C54   C87   A    
C58   C71   A    
C54   C68   A    
C63   C76   A    
C40   C49   A    
C20   O20   S    
O1    Zn1   S    
C34   N7    S    
C21   O21   S    
C9    O32   A    
C32   C39   A    
C55   C88   A    
C3    C29   A    
H35   O28   S    
C69   C82   A    
H26   O19   S    
C35   C87   A    
C19   C52   A    
C28   O28   S    
O23   Zn3   S    
C4    C40   A    
C24   C57   A    
H32   O26   S    
C31   C46   A    
C25   C67   A    
C14   O7    A    
C35   C49   A    
C6    O17   A    
C79   H12   S    
C36   C48   A    
C53   C86   A    
H3    N6    S    
C57   C70   A    
C37   C47   A    
C43   C48   A    
H7    N8    S    
C59   C72   A    
C4    N4    S    
C28   C61   A    
H37   O30   S    
C30   C63   A    
O5    Zn1   S    
H20   N3    S    
H6    N7    S    
C5    C68   S    
C1    N1    S    
H2    N5    S    
O16   Zn2   S    
C15   O8    A    
C18   C51   A    
C9    C65   S    
H27   O20   S    
C32   C44   A    
C10   C64   S    
C33   C40   A    
C5    O1    A    
C57   C90   A    
C81   H34   S    
C17   O4    A    
C59   C84   A    
O33   Zn6   S    
C29   O29   S    
O12   Zn2   S    
O4    Zn1   S    
C23   C50   A    
C21   C34   A    
C38   C78   A    
H42   N5    S    
C13   O35   A    
O11   Zn6   S    
C45   N8    S    
C4    C30   A    
C31   C84   A    
H8    N8    S    
O34   Zn6   S    
C37   C43   A    
C33   C86   A    
C38   C44   A    
C72   C77   A    
C53   C66   A    
C61   C88   A    
H11   N10   S    
C10   O13   A    
C20   C23   A    
C5    O16   A    
C1    C18   A    
H14   N11   S    
C11   O34   A    
C19   O19   S    
H16   N12   S    
C70   C83   A    
H29   O22   S    
C82   H38   S    
C16   O5    A    
H36   O29   S    
C39   C46   A    
C56   N9    S    
O2    Zn3   S    
O3    Zn2   S    
C26   O26   S    
C13   C73   S    
C17   C71   S    
C63   C86   A    
H4    N6    S    
C62   C75   A    
H40   N1    S    
O8    Zn4   S    
C25   C58   A    
C58   C85   A    
C27   O27   S    
C41   C50   A    
H30   O24   S    
C15   C75   S    
C74   C82   A    
C45   C48   A    
C25   O25   S    
C7    O23   A    
C29   C62   A    
C77   H1    S    
C34   C49   A    
H19   N2    S    
C10   O33   A    
C39   C67   A    
H9    N9    S    
C75   C81   A    
C51   C64   A    
C76   C80   A    
O13   Zn5   S    
C20   C53   A    
H41   N1    S    
C11   C74   S    
H15   N11   S    
C15   O2    A    
C2    N2    S    
O7    Zn3   S    
C22   C55   A    
O35   Zn5   S    
C60   C90   A    
C61   C74   A    
C24   C56   A    
C89   N12   S    
C66   C80   A    
C62   C87   A    
H28   O21   S    
H5    N7    S    
C31   C38   A    
C27   C60   A    
C55   C69   A    
H25   O18   S    
C33   C50   A    
C12   C44   A    
C78   N11   S    
C18   O18   S    
H21   N3    S    
C21   C54   A    
O9    Zn5   S    
C2    C42   A    
C32   C85   A    
C12   C19   A    
C30   O30   S    
C27   C89   A    
C3    N3    S    
C42   C47   A    
C43   C89   A    
O17   Zn1   S    
C1    C46   A    
C6    O12   A    
C13   O10   A    
C3    C41   A    
C8    O15   A    
C11   O9    A    
C22   O22   S    
C6    C66   S    
C22   C45   A    
C80   H23   S    
C9    O11   A    
H24   N4    S    
C12   N5    S    
O31   Zn4   S    
C26   C59   A    
C2    C28   A    
O15   Zn3   S    
H17   N12   S    
C67   N10   S    
O14   Zn4   S    
C51   C84   A    
C73   C83   A    
H33   O27   S    
C52   C65   A    
O36   Zn4   S    
C14   C76   S    
C47   C56   A    
