data_str_m4_o22_o22_f0_acs.sym.26
_audit_creation_date              2012-12-11T15:06:57-0500
_audit_creation_method            fapswitch 2.2
_symmetry_space_group_name_H-M    P1
_symmetry_Int_Tables_number       1
_space_group_crystal_system       triclinic
_cell_length_a                    19.646566
_cell_length_b                    11.311633
_cell_length_c                    18.724564
_cell_angle_alpha                 90.001599
_cell_angle_beta                  89.457124
_cell_angle_gamma                 90.00266
_cell_volume                      4161.06189974

loop_
_atom_site_label
_atom_site_type_symbol
_atom_type_description
_atom_site_fract_x
_atom_site_fract_y
_atom_site_fract_z
_atom_type_partial_charge
C1    C     C_R   0.761530 0.523533 0.639084 0.534636
C2    C     C_3   0.253198 0.056740 0.563150 0.066360
C3    C     C_R   0.740932 0.037753 0.152838 0.505184
C4    C     C_R   0.773836 0.131690 0.858722 0.526109
C5    C     C_R   0.226174 0.131650 0.141287 0.526012
C6    C     C_R   0.273837 0.631695 0.858724 0.526104
C7    C     C_R   0.726170 0.631661 0.141284 0.526042
C8    C     C_R   0.946622 0.356240 0.861354 0.516295
C9    C     C_R   0.053361 0.356237 0.138652 0.516294
C10   C     C_R   0.446629 0.856240 0.861354 0.516288
C11   C     C_R   0.553373 0.856238 0.138651 0.516270
C12   C     C_3   0.687263 0.132346 0.466163 -0.235045
C13   C     C_3   0.246802 0.556742 0.436850 0.066365
C14   C     C_3   0.312740 0.132345 0.533837 -0.235044
C15   C     C_3   0.187263 0.632346 0.466163 -0.235045
C16   C     C_3   0.812740 0.632345 0.533837 -0.235043
C17   C     C_3   0.692815 0.145229 0.547253 -0.229707
C18   C     C_3   0.307186 0.145232 0.452747 -0.229702
C19   C     C_3   0.192815 0.645229 0.547253 -0.229708
C20   C     C_3   0.807187 0.645232 0.452747 -0.229703
C21   C     C_3   0.756316 0.939201 0.480673 -0.216577
C22   C     C_3   0.243682 0.939199 0.519322 -0.216582
C23   C     C_3   0.256316 0.439201 0.480673 -0.216577
C24   C     C_3   0.753198 0.556740 0.563150 0.066362
C25   C     C_3   0.743683 0.439199 0.519322 -0.216582
C26   C     C_3   0.760499 0.090547 0.574157 0.065788
C27   C     C_3   0.239501 0.090549 0.425843 0.065789
C28   C     C_3   0.260499 0.590547 0.574157 0.065787
C29   C     C_3   0.739501 0.590549 0.425843 0.065789
C30   C     C_3   0.753779 0.958115 0.561998 -0.262170
C31   C     C_3   0.246217 0.958116 0.437997 -0.262166
C32   C     C_3   0.253779 0.458115 0.561998 -0.262170
C33   C     C_R   0.238470 0.523533 0.360915 0.534605
C34   C     C_3   0.746217 0.458115 0.437997 -0.262166
C35   C     C_3   0.823383 0.133355 0.529098 -0.216717
C36   C     C_3   0.176618 0.133351 0.470905 -0.216715
C37   C     C_3   0.323383 0.633355 0.529098 -0.216718
C38   C     C_3   0.676618 0.633351 0.470905 -0.216715
C39   C     C_3   0.003747 0.204539 0.458985 -0.233037
C40   C     C_3   0.996253 0.204539 0.541012 -0.233044
C41   C     C_3   0.503747 0.704539 0.458985 -0.233037
C42   C     C_3   0.496253 0.704539 0.541012 -0.233044
C43   C     C_3   0.064495 0.405902 0.473453 -0.212424
C44   C     C_R   0.261530 0.023533 0.639084 0.534644
C45   C     C_3   0.935507 0.405898 0.526549 -0.212421
C46   C     C_3   0.564495 0.905902 0.473453 -0.212425
C47   C     C_3   0.435507 0.905898 0.526549 -0.212421
C48   C     C_3   0.941331 0.390252 0.445479 -0.263669
C49   C     C_3   0.058670 0.390257 0.554522 -0.263669
C50   C     C_3   0.441331 0.890252 0.445479 -0.263669
C51   C     C_3   0.558670 0.890257 0.554522 -0.263668
C52   C     C_3   0.010251 0.333008 0.430911 0.063785
C53   C     C_3   0.989749 0.333007 0.569089 0.063789
C54   C     C_3   0.510251 0.833008 0.430911 0.063783
C55   C     C_R   0.738470 0.023533 0.360915 0.534602
C56   C     C_3   0.489749 0.833007 0.569089 0.063789
C57   C     C_3   0.812745 0.006040 0.043806 0.125148
C58   C     C_3   0.187150 0.006195 0.956157 0.125175
C59   C     C_3   0.312763 0.506090 0.043815 0.125141
C60   C     C_3   0.687163 0.506181 0.956158 0.125194
C61   C     C_R   0.774411 0.121245 0.649358 0.536383
C62   C     C_R   0.225589 0.121246 0.350642 0.536363
C63   C     C_R   0.274411 0.621245 0.649358 0.536387
C64   C     C_R   0.725589 0.621246 0.350642 0.536364
C65   C     C_3   0.818323 0.021079 0.964043 -0.146798
C66   C     C_3   0.810737 0.130637 0.448340 -0.259797
C67   C     C_3   0.181681 0.021009 0.035951 -0.146404
C68   C     C_3   0.318334 0.521122 0.964050 -0.146763
C69   C     C_3   0.681666 0.521038 0.035945 -0.146478
C70   C     C_3   0.684415 0.039965 0.035920 -0.249722
C71   C     C_3   0.315554 0.039809 0.964081 -0.249597
C72   C     C_3   0.184428 0.539918 0.035918 -0.249704
C73   C     C_3   0.815554 0.539839 0.964078 -0.249628
C74   C     C_3   0.762841 0.204722 0.061620 -0.263866
C75   C     C_3   0.237256 0.204703 0.938395 -0.263588
C76   C     C_3   0.262803 0.704718 0.061623 -0.263856
C77   C     C_3   0.189265 0.130632 0.551663 -0.259794
C78   C     C_3   0.737239 0.704721 0.938392 -0.263653
C79   C     C_3   0.750552 0.074094 0.076205 0.035535
C80   C     C_3   0.249446 0.074061 0.923801 0.035965
C81   C     C_3   0.250550 0.574092 0.076206 0.035549
C82   C     C_3   0.749443 0.574079 0.923796 0.035902
C83   C     C_3   0.760874 0.103374 0.936324 0.020486
C84   C     C_3   0.239134 0.103295 0.063684 0.020623
C85   C     C_3   0.260873 0.603382 0.936327 0.020481
C86   C     C_3   0.739125 0.603313 0.063681 0.020599
C87   C     C_3   0.694131 0.037971 0.953000 -0.282512
C88   C     C_3   0.310737 0.630637 0.448340 -0.259796
C89   C     C_3   0.305851 0.037837 0.047005 -0.282546
C90   C     C_3   0.194144 0.537945 0.953000 -0.282501
C91   C     C_3   0.805839 0.537839 0.047002 -0.282569
C92   C     C_3   0.757530 0.221154 0.979631 -0.228440
C93   C     C_3   0.242519 0.221077 0.020392 -0.228331
C94   C     C_3   0.257504 0.721157 0.979634 -0.228435
C95   C     C_3   0.742523 0.721097 0.020388 -0.228372
C96   C     C_3   0.005981 0.479549 0.039927 -0.288518
C97   C     C_3   0.994093 0.479531 0.960054 -0.288545
C98   C     C_3   0.506006 0.979556 0.039920 -0.288522
C99   C     C_3   0.689265 0.630632 0.551663 -0.259794
C100  C     C_3   0.494113 0.979536 0.960045 -0.288550
C101  C     C_3   0.074814 0.297138 0.008138 -0.126565
C102  C     C_3   0.925114 0.297324 0.991907 -0.127065
C103  C     C_3   0.574832 0.797147 0.008129 -0.126631
C104  C     C_3   0.425124 0.797362 0.991912 -0.126979
C105  C     C_3   0.960861 0.274241 0.063505 0.162633
C106  C     C_3   0.039026 0.274047 0.936559 0.163279
C107  C     C_3   0.460878 0.774242 0.063496 0.162700
C108  C     C_3   0.539039 0.774041 0.936554 0.163249
C109  C     C_R   0.969444 0.342124 0.645106 0.538658
C110  C     C_3   0.746802 0.056742 0.436850 0.066366
C111  C     C_R   0.030557 0.342124 0.354894 0.538644
C112  C     C_R   0.469444 0.842125 0.645106 0.538656
C113  C     C_R   0.530556 0.842124 0.354894 0.538651
C114  C     C_3   0.025074 0.352292 0.064778 0.040196
C115  C     C_3   0.974898 0.352299 0.935243 0.040015
C116  C     C_3   0.525093 0.852295 0.064772 0.040151
C117  C     C_3   0.474911 0.852302 0.935239 0.040082
C118  C     C_R   0.759067 0.537754 0.847161 0.505101
C119  C     C_R   0.240931 0.537751 0.152838 0.505185
C120  C     C_R   0.259070 0.037743 0.847165 0.505055
Cr1   Cr    Cr6+3 0.885690 0.492860 0.745310 0.996363
Cr2   Cr    Cr6+3 0.111880 0.178590 0.246990 1.000277
Cr3   Cr    Cr6+3 0.388120 0.678590 0.753010 1.000179
Cr4   Cr    Cr6+3 0.611880 0.678590 0.246990 1.000254
Cr5   Cr    Cr6+3 0.114310 0.492860 0.254690 0.996382
Cr6   Cr    Cr6+3 0.385690 0.992860 0.745310 0.996376
Cr7   Cr    Cr6+3 0.614310 0.992860 0.254690 0.996379
Cr8   Cr    Cr6+3 0.729880 0.332270 0.748190 1.006027
Cr9   Cr    Cr6+3 0.270120 0.332270 0.251810 1.006285
Cr10  Cr    Cr6+3 0.229880 0.832270 0.748190 1.005949
Cr11  Cr    Cr6+3 0.770120 0.832270 0.251810 1.006307
Cr12  Cr    Cr6+3 0.888120 0.178590 0.753010 1.000152
H1    H     H_    0.864090 0.067749 0.538754 0.125298
H2    H     H_    0.203852 0.910200 0.411827 0.120631
H3    H     H_    0.885386 0.357680 0.007079 0.025593
H4    H     H_    0.574021 0.797179 0.891192 0.074977
H5    H     H_    0.425927 0.797571 0.108846 0.074909
H6    H     H_    0.074012 0.297192 0.891202 0.075054
H7    H     H_    0.925900 0.297591 0.108845 0.074844
H8    H     H_    0.901616 0.217514 0.971150 0.190198
H9    H     H_    0.098260 0.217305 0.028924 0.190615
H10   H     H_    0.401566 0.717612 0.971166 0.190051
H11   H     H_    0.598295 0.717339 0.028918 0.190444
H12   H     H_    0.648913 0.101439 0.573644 0.107767
H13   H     H_    0.296142 0.410200 0.588167 0.120625
H14   H     H_    0.351087 0.101443 0.426354 0.107770
H15   H     H_    0.148913 0.601439 0.573644 0.107767
H16   H     H_    0.851087 0.601443 0.426354 0.107770
H17   H     H_    0.721779 0.868979 0.464456 0.108810
H18   H     H_    0.278221 0.868981 0.535534 0.108811
H19   H     H_    0.221779 0.368979 0.464456 0.108810
H20   H     H_    0.778221 0.368981 0.535534 0.108811
H21   H     H_    0.705595 0.924157 0.585380 0.104235
H22   H     H_    0.294400 0.924160 0.414613 0.104234
H23   H     H_    0.205595 0.424157 0.585380 0.104235
H24   H     H_    0.703852 0.410200 0.411827 0.120632
H25   H     H_    0.794400 0.424160 0.414613 0.104234
H26   H     H_    0.854952 0.090402 0.420101 0.123650
H27   H     H_    0.145049 0.090394 0.579901 0.123637
H28   H     H_    0.354951 0.590402 0.420101 0.123651
H29   H     H_    0.645049 0.590394 0.579901 0.123640
H30   H     H_    0.842203 0.219386 0.546525 0.111911
H31   H     H_    0.157798 0.219382 0.453482 0.111896
H32   H     H_    0.342203 0.719386 0.546525 0.111911
H33   H     H_    0.657798 0.719382 0.453482 0.111896
H34   H     H_    0.638228 0.096069 0.451841 0.129784
H35   H     H_    0.046294 0.150230 0.441487 0.131861
H36   H     H_    0.361774 0.096063 0.548155 0.129775
H37   H     H_    0.138228 0.596069 0.451841 0.129784
H38   H     H_    0.861774 0.596063 0.548155 0.129775
H39   H     H_    0.869011 0.078099 0.119263 0.336493
H40   H     H_    0.131009 0.078063 0.880500 0.336456
H41   H     H_    0.369002 0.578160 0.119283 0.336529
H42   H     H_    0.630990 0.578105 0.880556 0.336503
H43   H     H_    0.977949 0.129804 0.118291 0.347560
H44   H     H_    0.021781 0.129522 0.881885 0.347793
H45   H     H_    0.478009 0.629790 0.118243 0.347653
H46   H     H_    0.953709 0.150222 0.558510 0.131857
H47   H     H_    0.521791 0.629504 0.881883 0.347734
H48   H     H_    0.804173 0.221043 0.426881 0.103771
H49   H     H_    0.195831 0.221038 0.573125 0.103772
H50   H     H_    0.304173 0.721043 0.426881 0.103772
H51   H     H_    0.695831 0.721038 0.573125 0.103773
H52   H     H_    0.546294 0.650230 0.441487 0.131861
H53   H     H_    0.453709 0.650222 0.558510 0.131858
H54   H     H_    0.959069 0.160864 0.435028 0.106801
H55   H     H_    0.040934 0.160872 0.564968 0.106789
H56   H     H_    0.459068 0.660864 0.435028 0.106802
H57   H     H_    0.135908 0.067745 0.461247 0.125299
H58   H     H_    0.540934 0.660872 0.564968 0.106791
H59   H     H_    0.616341 0.891326 0.453896 0.112581
H60   H     H_    0.383660 0.891326 0.546106 0.112578
H61   H     H_    0.116341 0.391326 0.453896 0.112581
H62   H     H_    0.883660 0.391326 0.546106 0.112578
H63   H     H_    0.600548 0.834832 0.575035 0.104305
H64   H     H_    0.399452 0.834824 0.424965 0.104309
H65   H     H_    0.100548 0.334832 0.575035 0.104305
H66   H     H_    0.899452 0.334824 0.424965 0.104309
H67   H     H_    0.938033 0.477436 0.418532 0.122097
H68   H     H_    0.364090 0.567749 0.538754 0.125298
H69   H     H_    0.061969 0.477441 0.581472 0.122094
H70   H     H_    0.438033 0.977436 0.418532 0.122097
H71   H     H_    0.561969 0.977441 0.581472 0.122095
H72   H     H_    0.947944 0.499851 0.536671 0.130379
H73   H     H_    0.052060 0.499853 0.463333 0.130381
H74   H     H_    0.447944 0.999851 0.536671 0.130380
H75   H     H_    0.552060 0.999853 0.463333 0.130381
H76   H     H_    0.804208 0.914719 0.054829 0.166339
H77   H     H_    0.195331 0.914776 0.944987 0.166381
H78   H     H_    0.304272 0.414753 0.054840 0.166356
H79   H     H_    0.635908 0.567744 0.461247 0.125299
H80   H     H_    0.695413 0.414785 0.945023 0.166403
H81   H     H_    0.687721 0.220808 0.440935 0.107331
H82   H     H_    0.312288 0.220806 0.559070 0.107331
H83   H     H_    0.187721 0.720808 0.440935 0.107331
H84   H     H_    0.812288 0.720806 0.559070 0.107331
H85   H     H_    0.870361 0.049320 0.949479 0.214924
H86   H     H_    0.129645 0.049132 0.050623 0.214927
H87   H     H_    0.370368 0.549386 0.949481 0.214966
H88   H     H_    0.629630 0.549172 0.050598 0.214891
H89   H     H_    0.814434 0.933595 0.937877 0.078442
H90   H     H_    0.808758 0.908851 0.468934 0.126310
H91   H     H_    0.185623 0.933464 0.062019 0.078046
H92   H     H_    0.314457 0.433634 0.937889 0.078443
H93   H     H_    0.685591 0.433502 0.062029 0.078114
H94   H     H_    0.665550 0.958101 0.059284 0.109144
H95   H     H_    0.334361 0.957953 0.940669 0.109101
H96   H     H_    0.165587 0.458043 0.059277 0.109122
H97   H     H_    0.834368 0.457987 0.940662 0.109131
H98   H     H_    0.696424 0.946565 0.931937 0.107323
H99   H     H_    0.303533 0.946446 0.068080 0.107368
H100  H     H_    0.196447 0.446544 0.931936 0.107322
H101  H     H_    0.191240 0.908842 0.531061 0.126308
H102  H     H_    0.803509 0.446441 0.068067 0.107374
H103  H     H_    0.723844 0.257746 0.090388 0.110348
H104  H     H_    0.276314 0.257659 0.909677 0.110186
H105  H     H_    0.223790 0.757695 0.090381 0.110374
H106  H     H_    0.776283 0.757691 0.909659 0.110206
H107  H     H_    0.812893 0.234662 0.080996 0.116115
H108  H     H_    0.187238 0.234733 0.918979 0.116695
H109  H     H_    0.312835 0.734688 0.081013 0.116143
H110  H     H_    0.687212 0.734743 0.918991 0.116561
H111  H     H_    0.792574 0.287650 0.958494 0.091067
H112  H     H_    0.308758 0.408851 0.468934 0.126310
H113  H     H_    0.207463 0.287575 0.041514 0.091020
H114  H     H_    0.292538 0.787668 0.958504 0.091075
H115  H     H_    0.707496 0.787654 0.041524 0.090987
H116  H     H_    0.705019 0.250785 0.971983 0.131173
H117  H     H_    0.295043 0.250632 0.028083 0.131351
H118  H     H_    0.204998 0.750782 0.971976 0.131129
H119  H     H_    0.795066 0.750594 0.028056 0.131412
H120  H     H_    0.645753 0.108329 0.048766 0.138593
H121  H     H_    0.354277 0.108068 0.951238 0.138535
H122  H     H_    0.145744 0.608231 0.048767 0.138590
H123  H     H_    0.691240 0.408842 0.531061 0.126308
H124  H     H_    0.854273 0.608115 0.951242 0.138534
H125  H     H_    0.687556 0.237406 0.562897 0.138466
H126  H     H_    0.312449 0.237409 0.437107 0.138456
H127  H     H_    0.187556 0.737406 0.562897 0.138466
H128  H     H_    0.812449 0.737409 0.437107 0.138456
H129  H     H_    0.650712 0.082905 0.926823 0.129239
H130  H     H_    0.349290 0.082730 0.073172 0.129204
H131  H     H_    0.150719 0.582859 0.926826 0.129213
H132  H     H_    0.849278 0.582714 0.073181 0.129217
H133  H     H_    0.045109 0.545618 0.052293 0.144419
H134  H     H_    0.796142 0.910200 0.588167 0.120624
H135  H     H_    0.955002 0.545674 0.947679 0.144480
H136  H     H_    0.545140 0.045615 0.052283 0.144419
H137  H     H_    0.455022 0.045683 0.947674 0.144479
H138  H     H_    0.959077 0.509092 0.068304 0.136339
H139  H     H_    0.041017 0.508941 0.931663 0.136273
H140  H     H_    0.459106 0.009115 0.068299 0.136343
H141  H     H_    0.541036 0.008938 0.931650 0.136285
H142  H     H_    0.614612 0.857421 0.992936 0.025301
H143  H     H_    0.385437 0.857776 0.007108 0.025592
H144  H     H_    0.114603 0.357405 0.992955 0.025254
O1    O     O_R   0.957210 0.449410 0.665480 -0.529252
O2    O     O_R   0.167480 0.095300 0.164000 -0.535950
O3    O     O_R   0.332520 0.595300 0.836000 -0.535921
O4    O     O_R   0.667480 0.595300 0.164000 -0.535954
O5    O     O_R   0.946380 0.253940 0.826940 -0.512036
O6    O     O_R   0.053620 0.253940 0.173060 -0.511944
O7    O     O_R   0.446380 0.753940 0.826940 -0.512013
O8    O     O_R   0.553620 0.753940 0.173060 -0.512004
O9    O     O_3   0.834560 0.334570 0.748840 -0.284067
O10   O     O_3   0.165440 0.334570 0.251160 -0.284124
O11   O     O_3   0.334560 0.834570 0.748840 -0.284054
O12   O     O_R   0.042790 0.449410 0.334520 -0.529242
O13   O     O_3   0.665440 0.834570 0.251160 -0.284132
O14   O     O_R   0.820730 0.541240 0.668250 -0.514639
O15   O     O_R   0.179270 0.541240 0.331750 -0.514650
O16   O     O_R   0.320730 0.041240 0.668250 -0.514633
O17   O     O_R   0.679270 0.041240 0.331750 -0.514651
O18   O     O_R   0.714240 0.455060 0.663710 -0.533383
O19   O     O_R   0.285760 0.455060 0.336290 -0.533380
O20   O     O_R   0.214240 0.955060 0.663710 -0.533383
O21   O     O_R   0.785760 0.955060 0.336290 -0.533382
O22   O     O_R   0.736780 0.204870 0.675910 -0.515012
O23   O     O_R   0.457210 0.949410 0.665480 -0.529252
O24   O     O_R   0.263220 0.204870 0.324090 -0.515024
O25   O     O_R   0.236780 0.704870 0.675910 -0.515008
O26   O     O_R   0.763220 0.704870 0.324090 -0.515023
O27   O     O_R   0.833070 0.087590 0.673490 -0.528870
O28   O     O_R   0.166930 0.087590 0.326510 -0.528872
O29   O     O_R   0.333070 0.587590 0.673490 -0.528867
O30   O     O_R   0.666930 0.587590 0.326510 -0.528871
O31   O     O_R   0.946890 0.246800 0.676300 -0.511527
O32   O     O_R   0.053110 0.246800 0.323700 -0.511533
O33   O     O_R   0.446890 0.746800 0.676300 -0.511527
O34   O     O_R   0.542790 0.949410 0.334520 -0.529241
O35   O     O_R   0.553110 0.746800 0.323700 -0.511526
O36   O     O_R   0.956650 0.457120 0.827980 -0.526523
O37   O     O_R   0.043350 0.457120 0.172020 -0.526524
O38   O     O_R   0.456650 0.957120 0.827980 -0.526528
O39   O     O_R   0.543350 0.957120 0.172020 -0.526513
O40   O     O_R   0.820220 0.548390 0.818890 -0.513577
O41   O     O_R   0.179780 0.548390 0.181110 -0.513618
O42   O     O_R   0.320220 0.048390 0.818890 -0.513548
O43   O     O_R   0.679780 0.048390 0.181110 -0.513625
O44   O     O_R   0.713680 0.462770 0.826210 -0.519463
O45   O     O_R   0.736260 0.212010 0.826560 -0.500703
O46   O     O_R   0.286320 0.462770 0.173790 -0.518862
O47   O     O_R   0.213680 0.962770 0.826210 -0.519680
O48   O     O_R   0.786320 0.962770 0.173790 -0.518818
O49   O     O_3   0.875572 0.031430 0.075014 -0.668253
O50   O     O_3   0.124376 0.032396 0.925109 -0.669319
O51   O     O_3   0.375578 0.531564 0.075020 -0.668352
O52   O     O_3   0.624387 0.532216 0.925069 -0.669266
O53   O     O_3   0.979898 0.154441 0.067559 -0.596021
O54   O     O_3   0.019824 0.154306 0.932587 -0.595567
O55   O     O_3   0.479908 0.654440 0.067522 -0.595971
O56   O     O_R   0.263740 0.212010 0.173440 -0.500625
O57   O     O_3   0.519841 0.654295 0.932590 -0.595553
O58   O     O_R   0.236260 0.712010 0.826560 -0.500724
O59   O     O_R   0.763740 0.712010 0.173440 -0.500612
O60   O     O_R   0.832520 0.095300 0.836000 -0.535930

loop_
_geom_bond_atom_site_label_1
_geom_bond_atom_site_label_2
_ccdc_geom_bond_type
C22   H18   S    
Cr11  O26   S    
C3    C79   S    
C21   C110  S    
Cr7   O13   S    
C40   H55   S    
Cr8   O18   S    
C91   H102  S    
C6    C85   S    
C1    O18   A    
C25   H20   S    
Cr2   O28   S    
C9    C114  S    
Cr1   O1    S    
C19   H127  S    
Cr3   O3    S    
Cr10  O20   S    
C74   C92   S    
C76   C94   S    
C2    C22   S    
C77   H49   S    
C3    O43   A    
C97   C115  S    
C64   O30   A    
C59   H78   S    
C25   C34   S    
Cr12  O5    S    
C29   C64   S    
C78   H106  S    
C96   C114  S    
C75   H108  S    
C46   H75   S    
C11   O8    A    
Cr12  O60   S    
C100  H137  S    
C50   H70   S    
C112  O23   A    
C48   H67   S    
C27   C31   S    
C28   C32   S    
C15   H83   S    
C38   C99   S    
C32   H13   S    
C35   C66   S    
C118  O44   A    
C119  O41   A    
C76   H105  S    
C13   C33   S    
C94   H118  S    
C78   C82   S    
C88   H50   S    
C16   C20   S    
C119  O46   A    
C66   C110  S    
C67   H91   S    
C60   H80   S    
C33   O19   A    
C93   H113  S    
C77   H27   S    
C74   C79   S    
Cr10  O25   S    
C82   C118  S    
Cr12  O31   S    
C14   H36   S    
H44   O54   S    
Cr6   O38   S    
C75   C93   S    
C104  C117  S    
C53   C109  S    
C45   H62   S    
C70   C79   S    
C67   H86   S    
C70   H94   S    
C103  H142  S    
C103  H11   S    
C85   C90   S    
C81   C119  S    
C105  O53   S    
C61   O27   A    
C106  C115  S    
C86   C91   S    
C76   H109  S    
C51   H63   S    
C65   H85   S    
Cr1   O36   S    
C49   C53   S    
C103  C116  S    
C84   C93   S    
C88   H28   S    
C2    C14   S    
C86   C95   S    
C28   C63   S    
C26   C35   S    
C48   C52   S    
C44   O20   A    
C59   O51   S    
C100  C117  S    
C104  C107  S    
C38   H33   S    
Cr7   O39   S    
C112  O33   A    
C69   H88   S    
Cr4   O30   S    
C46   H59   S    
C12   C110  S    
Cr4   O4    S    
C49   H65   S    
C113  O35   A    
C17   H12   S    
C43   C52   S    
C7    C86   S    
Cr9   O19   S    
C13   C23   S    
Cr4   O35   S    
C47   H60   S    
C102  H3    S    
C95   H115  S    
C98   C116  S    
C97   H135  S    
C98   H136  S    
Cr12  O27   S    
C29   C38   S    
C36   H31   S    
C111  O12   A    
C20   H16   S    
C41   H52   S    
C21   H17   S    
C99   H51   S    
Cr11  O48   S    
Cr7   O17   S    
C45   C53   S    
Cr2   O32   S    
C68   C85   S    
C90   H100  S    
C68   H92   S    
C31   H2    S    
C70   C87   S    
Cr2   O2    S    
C47   C50   S    
C9    O37   A    
Cr4   O8    S    
C49   H69   S    
Cr11  O13   S    
C39   C40   S    
C5    C84   S    
Cr6   O23   S    
C46   C51   S    
C48   H66   S    
H45   O55   S    
C27   C62   S    
C73   H124  S    
C72   C90   S    
C58   C67   S    
Cr12  O9    S    
C8    O36   A    
C75   H104  S    
H39   O49   S    
C19   C28   S    
Cr5   O15   S    
C37   H32   S    
Cr6   O16   S    
C42   H53   S    
C26   C30   S    
C4    O45   A    
H41   O51   S    
C60   O52   S    
C17   H125  S    
C70   H120  S    
C31   H22   S    
C58   H77   S    
C101  C106  S    
C118  O40   A    
C108  C117  S    
Cr11  O21   S    
C5    O2    A    
C72   H122  S    
C109  O1    A    
C63   O25   A    
C34   H24   S    
C109  O31   A    
C43   H61   S    
C62   O28   A    
C10   C117  S    
C60   C69   S    
C9    O6    A    
C107  C116  S    
C55   O17   A    
C34   H25   S    
C1    C24   S    
C58   O50   S    
C74   H103  S    
Cr9   O56   S    
C47   C56   S    
C83   C87   S    
C41   C42   S    
C37   C88   S    
C35   H1    S    
C65   H89   S    
C25   H123  S    
Cr1   O40   S    
C15   C19   S    
C57   H76   S    
C50   C54   S    
Cr1   O14   S    
C26   C61   S    
Cr8   O9    S    
C36   C77   S    
C92   H111  S    
Cr8   O45   S    
C14   H82   S    
C102  C105  S    
C37   H68   S    
C16   H84   S    
C14   C18   S    
C71   H121  S    
Cr5   O41   S    
C102  C115  S    
C42   C56   S    
C99   H29   S    
C39   H54   S    
C50   H64   S    
C55   O21   A    
Cr7   O43   S    
Cr8   O44   S    
C12   C17   S    
C101  H144  S    
C87   H129  S    
C72   C81   S    
C58   C80   S    
C101  C114  S    
C12   H81   S    
C6    O3    A    
C73   H97   S    
C51   H71   S    
C92   H116  S    
C21   H90   S    
C64   O26   A    
C68   H87   S    
Cr4   O13   S    
C95   H119  S    
C97   H139  S    
C98   H140  S    
C66   H48   S    
C29   C34   S    
C19   H15   S    
C41   H56   S    
C10   O7    A    
C107  H5    S    
C105  H7    S    
C22   H101  S    
C78   C95   S    
C46   C54   S    
Cr3   O33   S    
C102  H8    S    
C11   C116  S    
Cr2   O6    S    
Cr3   O11   S    
C10   O38   A    
C98   C100  S    
C104  H10   S    
C7    O4    A    
C73   C82   S    
H43   O53   S    
Cr10  O47   S    
C45   C48   S    
C96   H133  S    
Cr7   O34   S    
Cr5   O10   S    
C47   H74   S    
C59   C81   S    
C57   C65   S    
Cr10  O11   S    
C69   H93   S    
H47   O57   S    
C27   C36   S    
C106  O54   S    
C87   H98   S    
C21   C30   S    
C113  O34   A    
C57   O49   S    
C23   C32   S    
C2    C77   S    
C4    C83   S    
C45   H72   S    
C1    O14   A    
C18   H126  S    
C65   C83   S    
C16   H38   S    
C72   H96   S    
C108  O57   S    
C89   H130  S    
C23   H112  S    
C91   H132  S    
C80   C120  S    
C43   H73   S    
C24   C99   S    
C62   O24   A    
C57   C79   S    
C63   O29   A    
C83   C92   S    
C78   H110  S    
C17   C26   S    
C28   C37   S    
Cr9   O10   S    
C108  H4    S    
C12   H34   S    
C106  H6    S    
C120  O47   A    
C96   H138  S    
C54   C113  S    
C15   H37   S    
C7    O59   A    
C51   C56   S    
C74   H107  S    
C42   H58   S    
C8    C115  S    
C101  H9    S    
C30   H21   S    
C107  O55   S    
C103  C108  S    
C30   H134  S    
C120  O42   A    
C38   H79   S    
C75   C80   S    
Cr11  O59   S    
C5    O56   A    
C39   C52   S    
Cr5   O12   S    
C67   C84   S    
C16   C24   S    
Cr6   O11   S    
C60   C82   S    
C71   C80   S    
C33   O15   A    
C93   H117  S    
C20   C29   S    
C111  O32   A    
C35   H30   S    
C22   C31   S    
C36   H57   S    
C105  C114  S    
C24   C25   S    
C73   C91   S    
Cr5   O37   S    
C2    C44   S    
Cr6   O42   S    
C43   C49   S    
Cr1   O9    S    
C52   C111  S    
C89   H99   S    
H40   O50   S    
C59   C68   S    
C32   H23   S    
C94   H114  S    
C85   C94   S    
H42   O52   S    
C3    O48   A    
C71   C89   S    
C96   C97   S    
C90   H131  S    
C104  H143  S    
C20   H128  S    
C40   H46   S    
C4    O60   A    
C13   C15   S    
C55   C110  S    
C6    O58   A    
C84   C89   S    
C66   H26   S    
C23   H19   S    
C61   O22   A    
C44   O16   A    
C71   H95   S    
C18   C27   S    
C18   H14   S    
C76   C81   S    
Cr8   O22   S    
Cr10  O58   S    
Cr9   O24   S    
C100  H141  S    
Cr3   O29   S    
Cr9   O46   S    
Cr2   O10   S    
Cr3   O7    S    
C8    O5    A    
C11   O39   A    
C13   C88   S    
C39   H35   S    
C41   C54   S    
C40   C53   S    
C56   C112  S    
C69   C86   S    
