data_str_m3_o4_o16_f0_pcu.sym.70
_audit_creation_date              2012-12-10T20:30:15-0500
_audit_creation_method            fapswitch 2.2
_symmetry_space_group_name_H-M    P1
_symmetry_Int_Tables_number       1
_space_group_crystal_system       triclinic
_cell_length_a                    9.890886
_cell_length_b                    10.688001
_cell_length_c                    13.117883
_cell_angle_alpha                 90.401393
_cell_angle_beta                  69.449062
_cell_angle_gamma                 90.045978
_cell_volume                      1298.45579763

loop_
_atom_site_label
_atom_site_type_symbol
_atom_type_description
_atom_site_fract_x
_atom_site_fract_y
_atom_site_fract_z
_atom_type_partial_charge
C1    C     C_R   0.498956 0.739958 0.502024 0.899408
C2    C     C_R   0.366389 0.484914 0.822858 -0.105585
C3    C     C_R   0.376560 0.936563 0.501860 0.003394
C4    C     C_R   0.419472 0.493759 0.704305 0.866594
C5    C     C_R   0.491269 0.871817 0.515242 -0.123466
C6    C     C_R   0.593179 0.935997 0.547783 -0.195109
C7    C     C_R   0.592669 0.065434 0.548701 -0.225166
C8    C     C_R   0.489126 0.128990 0.518160 -0.124936
C9    C     C_R   0.373671 0.064153 0.505698 0.199383
C10   C     C_3   0.307534 0.073712 0.418949 -0.291132
C11   C     C_3   0.311775 0.931007 0.414014 -0.268921
C12   C     C_R   0.429843 0.476081 0.985050 0.027427
C13   C     C_R   0.888441 0.545131 0.587547 0.220007
C14   C     C_R   0.966909 0.440484 0.419365 0.021535
C15   C     C_R   0.110957 0.443397 0.419009 -0.039049
C16   C     C_R   0.498395 0.260204 0.502933 0.857663
C17   C     C_R   0.030260 0.543952 0.588066 0.218500
C18   C     C_3   0.014905 0.672130 0.636058 -0.506726
C19   C     C_3   0.862284 0.674191 0.633863 -0.487937
C20   C     C_R   0.580471 0.499287 0.295469 0.886106
C21   C     C_R   0.773167 0.368822 0.016548 -0.215193
C22   C     C_R   0.628878 0.481598 0.178159 -0.057592
C23   C     C_R   0.458168 0.440435 0.876113 0.087110
C24   C     C_R   0.231994 0.537453 0.883199 -0.312695
C25   C     C_R   0.192194 0.554573 0.995399 0.055614
C26   C     C_R   0.292234 0.526788 0.045674 -0.105808
C27   C     C_2   0.155693 0.124933 0.459099 0.435755
C28   C     C_2   0.413291 0.880684 0.307186 0.446184
C29   C     C_2   0.938374 0.367766 0.333022 0.410482
C30   C     C_2   0.048384 0.607368 0.057919 0.420030
C31   C     C_R   0.540419 0.459144 0.028933 0.080415
C32   C     C_R   0.666224 0.389182 0.970886 0.172447
C33   C     C_R   0.681754 0.338489 0.869369 -0.245134
C34   C     C_R   0.578851 0.363359 0.822550 -0.183618
C35   C     C_R   0.530377 0.512142 0.128424 -0.238759
C36   C     C_R   0.752860 0.412596 0.121270 -0.199894
H1    H     H_    0.829934 0.387692 0.159097 0.194515
H2    H     H_    0.848384 0.742875 0.575241 0.211411
H3    H     H_    0.869053 0.314705 0.973278 0.158223
H4    H     H_    0.442433 0.573739 0.171718 0.197454
H5    H     H_    0.159985 0.568723 0.842419 0.150524
H6    H     H_    0.258802 0.542000 0.132411 0.191092
H7    H     H_    0.594085 0.320444 0.744334 0.168895
H8    H     H_    0.677220 0.887266 0.566437 0.164533
H9    H     H_    0.092312 0.119709 0.406434 0.074040
H10   H     H_    0.524115 0.913385 0.274313 0.062564
H11   H     H_    0.831896 0.333575 0.344119 0.117378
H12   H     H_    0.677229 0.114812 0.567009 0.175493
H13   H     H_    0.973609 0.629693 0.016710 0.057620
H14   H     H_    0.379245 0.121333 0.344289 0.123039
H15   H     H_    0.203732 0.885696 0.441879 0.181081
H16   H     H_    0.197361 0.398290 0.354154 0.171890
H17   H     H_    0.018237 0.671656 0.719874 0.196325
H18   H     H_    0.087936 0.740866 0.580403 0.220079
H19   H     H_    0.777595 0.676632 0.716317 0.210025
H20   H     H_    0.774575 0.281213 0.825319 0.165857
N1    N     N_R   0.856940 0.500860 0.500710 -0.154137
N2    N     N_R   0.142580 0.500820 0.500710 -0.117125
O1    O     O_R   0.385310 0.683210 0.499990 -0.605043
O2    O     O_2   0.371351 0.802773 0.256742 -0.573979
O3    O     O_2   0.036174 0.341131 0.248346 -0.615799
O4    O     O_2   0.011307 0.626317 0.155855 -0.551367
O5    O     O_R   0.614650 0.683240 0.500000 -0.611212
O6    O     O_R   0.328390 0.499940 0.653610 -0.604318
O7    O     O_R   0.557730 0.499980 0.653620 -0.619000
O8    O     O_R   0.385350 0.316760 0.500000 -0.581952
O9    O     O_R   0.614690 0.316790 0.500010 -0.664998
O10   O     O_R   0.442270 0.500020 0.346380 -0.613539
O11   O     O_R   0.671610 0.500060 0.346390 -0.618690
O12   O     O_2   0.102895 0.172738 0.549318 -0.572569
Zn1   Zn    Zn3+2 0.346870 0.499980 0.499990 0.984477
Zn2   Zn    Zn3+2 0.653130 0.500020 0.500010 0.945877

loop_
_geom_bond_atom_site_label_1
_geom_bond_atom_site_label_2
_ccdc_geom_bond_type
C10   C27   S    
O11   Zn2   S    
C2    C4    S    
C6    C7    A    
C3    C9    A    
C19   H2    S    
O7    Zn2   S    
C22   C36   A    
C9    C10   S    
C4    O6    A    
C31   C32   A    
C21   H3    S    
C13   C17   A    
C17   N2    A    
C23   C34   A    
C7    H12   S    
C27   H9    S    
C33   H20   S    
C1    O1    A    
C33   C34   A    
C7    C8    A    
N1    Zn2   S    
C21   C36   A    
C6    H8    S    
C15   H16   S    
C24   C25   A    
C22   C35   A    
C12   C23   A    
C28   H10   S    
C4    O7    A    
C27   O12   D    
C24   H5    S    
C11   C28   S    
C29   H11   S    
O10   Zn1   S    
C1    C5    S    
C1    O5    A    
C11   H15   S    
C36   H1    S    
C21   C32   A    
C30   H13   S    
C20   C22   S    
C35   H4    S    
C31   C35   A    
C30   O4    D    
C12   C31   A    
C2    C24   A    
C5    C6    A    
N2    Zn1   S    
C15   N2    A    
C29   O3    D    
C20   O11   A    
C3    C11   S    
C10   C11   S    
C18   H18   S    
C14   C29   S    
C10   H14   S    
C2    C23   A    
C13   N1    A    
C28   O2    D    
O5    Zn2   S    
C26   H6    S    
C17   C18   S    
O9    Zn2   S    
C8    C16   S    
O6    Zn1   S    
C19   H19   S    
C25   C30   S    
C16   O9    A    
C14   N1    A    
C13   C19   S    
C14   C15   A    
C18   C19   S    
C16   O8    A    
C18   H17   S    
O1    Zn1   S    
C25   C26   A    
C20   O10   A    
C34   H7    S    
O8    Zn1   S    
C32   C33   A    
C12   C26   A    
C8    C9    A    
C3    C5    A    
