data_str_m4_o1_o14_f0_acs.sym.137
_audit_creation_date              2013-03-05T15:44:35-0500
_audit_creation_method            fapswitch 2.2
_symmetry_space_group_name_H-M    P1
_symmetry_Int_Tables_number       1
_space_group_crystal_system       triclinic
_cell_length_a                    18.904821
_cell_length_b                    10.953738
_cell_length_c                    18.837945
_cell_angle_alpha                 90.137551
_cell_angle_beta                  90.12363
_cell_angle_gamma                 89.720626
_cell_volume                      3900.86597084

loop_
_atom_site_label
_atom_site_type_symbol
_atom_site_description
_atom_site_fract_x
_atom_site_fract_y
_atom_site_fract_z
_atom_type_partial_charge
O1    O     O_R   0.787540 0.042690 0.170470 -0.448571
O2    O     O_R   0.212460 0.042690 0.829530 -0.468449
O3    O     O_R   0.287540 0.542690 0.170470 -0.500859
O4    O     O_R   0.712460 0.542690 0.829530 -0.457852
O5    O     O_R   0.765660 0.292160 0.175050 -0.500529
O6    O     O_R   0.234340 0.292160 0.824950 -0.460182
O7    O     O_R   0.265660 0.792160 0.175050 -0.527358
O8    O     O_R   0.734340 0.792160 0.824950 -0.503811
C1    C     C_R   0.727908 0.371936 0.143557 0.560676
C2    C     C_R   0.269435 0.378932 0.853128 0.527102
C3    C     C_R   0.230818 0.879246 0.146861 0.554173
C4    C     C_R   0.771955 0.872169 0.856376 0.560319
O9    O     O_R   0.670190 0.408980 0.168550 -0.506562
O10   O     O_R   0.329810 0.408980 0.831450 -0.539361
O11   O     O_R   0.170190 0.908980 0.168550 -0.530298
O12   O     O_R   0.829810 0.908980 0.831450 -0.506143
O13   O     O_R   0.556580 0.251450 0.175160 -0.525519
O14   O     O_R   0.443420 0.251450 0.824840 -0.524407
O15   O     O_R   0.056580 0.751450 0.175160 -0.523072
O16   O     O_R   0.943420 0.751450 0.824840 -0.522978
C5    C     C_R   0.531812 0.154767 0.146884 0.547814
C6    C     C_R   0.466695 0.156950 0.854314 0.547988
C7    C     C_R   0.034116 0.656472 0.145035 0.541419
C8    C     C_R   0.969813 0.654584 0.852089 0.521926
O17   O     O_R   0.545920 0.049510 0.170320 -0.497690
O18   O     O_R   0.454080 0.049510 0.829680 -0.489688
O19   O     O_R   0.045920 0.549510 0.170320 -0.517667
O20   O     O_R   0.954080 0.549510 0.829680 -0.494517
O21   O     O_R   0.681390 0.957840 0.176710 -0.445628
O22   O     O_R   0.318610 0.957840 0.823290 -0.429431
O23   O     O_R   0.181390 0.457840 0.176710 -0.433288
O24   O     O_R   0.818610 0.457840 0.823290 -0.438536
C9    C     C_R   0.742272 0.965720 0.148658 0.604332
C10   C     C_R   0.272705 0.022937 0.860094 0.579773
C11   C     C_R   0.228334 0.516611 0.140047 0.553901
C12   C     C_R   0.757927 0.465893 0.851439 0.605961
O25   O     O_R   0.787500 0.044280 0.330990 -0.429393
O26   O     O_R   0.212500 0.044280 0.669010 -0.493385
O27   O     O_R   0.287500 0.544280 0.330990 -0.445157
O28   O     O_R   0.712500 0.544280 0.669010 -0.410528
O29   O     O_R   0.765610 0.293630 0.323860 -0.506840
O30   O     O_R   0.234390 0.293630 0.676140 -0.492051
O31   O     O_R   0.265610 0.793630 0.323860 -0.515852
O32   O     O_R   0.734390 0.793630 0.676140 -0.504325
C13   C     C_R   0.731775 0.384808 0.350224 0.593236
C14   C     C_R   0.272246 0.375619 0.645681 0.548226
C15   C     C_R   0.231273 0.881735 0.350973 0.584071
C16   C     C_R   0.768416 0.884508 0.649600 0.566464
O33   O     O_R   0.670140 0.410570 0.329080 -0.437824
O34   O     O_R   0.329860 0.410570 0.670920 -0.452873
O35   O     O_R   0.170140 0.910570 0.329080 -0.432191
O36   O     O_R   0.829860 0.910570 0.670920 -0.431187
O37   O     O_R   0.556540 0.252920 0.323970 -0.492166
O38   O     O_R   0.443460 0.252920 0.676030 -0.447157
O39   O     O_R   0.056540 0.752920 0.323970 -0.481336
O40   O     O_R   0.943460 0.752920 0.676030 -0.486596
C17   C     C_R   0.534230 0.158321 0.354666 0.555183
C18   C     C_R   0.467191 0.156030 0.646392 0.531369
C19   C     C_R   0.031541 0.657762 0.353464 0.539996
C20   C     C_R   0.968286 0.657012 0.646437 0.516001
O41   O     O_R   0.545870 0.051100 0.330840 -0.517117
O42   O     O_R   0.454130 0.051100 0.669160 -0.519712
O43   O     O_R   0.045870 0.551100 0.330840 -0.517435
O44   O     O_R   0.954130 0.551100 0.669160 -0.527659
O45   O     O_R   0.681340 0.959300 0.325510 -0.474698
O46   O     O_R   0.318660 0.959300 0.674490 -0.502904
O47   O     O_R   0.181340 0.459300 0.325510 -0.489274
O48   O     O_R   0.818660 0.459300 0.674490 -0.479523
C21   C     C_R   0.727545 0.022423 0.361795 0.595188
C22   C     C_R   0.259434 0.977541 0.642958 0.554386
C23   C     C_R   0.242028 0.468820 0.353400 0.630724
C24   C     C_R   0.772396 0.522146 0.638108 0.594157
Cr1   Cr    Cr6+3 0.772000 0.169640 0.250110 1.113990
Cr2   Cr    Cr6+3 0.228000 0.169640 0.749890 1.089531
Cr3   Cr    Cr6+3 0.272000 0.669640 0.250110 1.064214
Cr4   Cr    Cr6+3 0.728000 0.669640 0.749890 1.117679
Cr5   Cr    Cr6+3 0.614960 0.323350 0.249260 1.083122
Cr6   Cr    Cr6+3 0.385040 0.323350 0.750740 1.093571
Cr7   Cr    Cr6+3 0.114960 0.823350 0.249260 1.090041
Cr8   Cr    Cr6+3 0.885040 0.823350 0.750740 1.078266
Cr9   Cr    Cr6+3 0.616670 0.010620 0.250840 1.113303
Cr10  Cr    Cr6+3 0.383330 0.010620 0.749160 1.083090
Cr11  Cr    Cr6+3 0.116670 0.510620 0.250840 1.099767
Cr12  Cr    Cr6+3 0.883330 0.510620 0.749160 1.105485
O49   O     O_3   0.667880 0.167870 0.250070 -0.318882
O50   O     O_3   0.332120 0.167870 0.749930 -0.312065
O51   O     O_3   0.167880 0.667870 0.250070 -0.312420
O52   O     O_3   0.832120 0.667870 0.749930 -0.315387
H1    H     H_    0.540888 0.974678 0.053433 0.176717
H2    H     H_    0.528283 0.984475 0.928897 0.156577
H3    H     H_    0.994015 0.473764 0.063965 0.157854
H4    H     H_    0.986182 0.465752 0.939531 0.183450
C25   C     C_R   0.492773 0.172682 0.926896 0.027506
C26   C     C_R   0.506205 0.161032 0.074309 0.042029
C27   C     C_R   0.001696 0.660212 0.922475 0.008233
C28   C     C_R   0.012765 0.669057 0.070539 0.033071
C29   C     C_R   0.478539 0.280371 0.968975 0.022426
C30   C     C_R   0.482018 0.271047 0.043891 0.041201
C31   C     C_R   0.018561 0.772255 0.954870 0.034027
C32   C     C_R   0.021466 0.779550 0.030034 0.057820
C33   C     C_R   0.521868 0.059830 0.031465 -0.140827
C34   C     C_R   0.516465 0.066198 0.959330 -0.139407
C35   C     C_R   0.999952 0.558973 0.035492 -0.128305
C36   C     C_R   0.997047 0.553905 0.963148 -0.111570
C37   C     C_R   0.460119 0.396516 0.940297 -0.021279
C38   C     C_R   0.459596 0.370574 0.086658 -0.045679
C39   C     C_R   0.030474 0.877873 0.913742 -0.093771
C40   C     C_R   0.032584 0.897224 0.060281 -0.037595
C41   C     C_R   0.034258 0.991518 0.945273 -0.084239
C42   C     C_R   0.037332 0.001069 0.018263 -0.072236
C43   C     C_R   0.440040 0.494027 0.983565 -0.101109
C44   C     C_R   0.438847 0.480623 0.056525 -0.125332
H5    H     H_    0.464375 0.419257 0.885083 0.212186
H6    H     H_    0.454805 0.363021 0.143627 0.168300
H7    H     H_    0.036063 0.874703 0.856716 0.143598
H8    H     H_    0.031737 0.917003 0.115989 0.202453
H9    H     H_    0.033808 0.072232 0.912671 0.191249
H10   H     H_    0.041389 0.090109 0.042879 0.190528
H11   H     H_    0.425678 0.580841 0.960129 0.138450
H12   H     H_    0.421787 0.555717 0.089907 0.134317
C45   C     C_R   0.697846 0.855626 0.041109 0.189079
C46   C     C_R   0.317205 0.918141 0.969755 0.221932
C47   C     C_R   0.207180 0.551814 0.012120 0.185395
C48   C     C_R   0.804621 0.361971 0.959872 0.195946
C49   C     C_R   0.701669 0.849289 0.966821 -0.150372
C50   C     C_R   0.307761 0.882975 0.040455 -0.096795
C51   C     C_R   0.215659 0.516699 0.941695 -0.048097
C52   C     C_R   0.799939 0.354994 0.033997 -0.141448
H13   H     H_    0.658929 0.808305 0.936829 0.161451
H14   H     H_    0.340877 0.812066 0.063203 0.115107
H15   H     H_    0.193926 0.572894 0.899595 0.144203
H16   H     H_    0.843946 0.319440 0.064662 0.166580
C53   C     C_R   0.760928 0.895073 0.931556 -0.046147
C54   C     C_R   0.253380 0.933506 0.080284 0.007386
C55   C     C_R   0.254231 0.412435 0.925442 -0.005993
C56   C     C_R   0.738537 0.394201 0.068391 -0.045587
C57   C     C_R   0.818678 0.938497 0.970737 -0.127037
C58   C     C_R   0.212409 0.027584 0.052473 -0.053339
C59   C     C_R   0.285631 0.342460 0.978714 -0.081674
C60   C     C_R   0.679636 0.431647 0.028545 -0.125846
H17   H     H_    0.867300 0.966583 0.945280 0.179593
H18   H     H_    0.173017 0.070725 0.085913 0.190522
H19   H     H_    0.317105 0.263582 0.963739 0.132319
H20   H     H_    0.629616 0.453959 0.053576 0.183026
C61   C     C_R   0.817241 0.939234 0.043619 0.162986
C62   C     C_R   0.217220 0.063435 0.982049 0.150737
C63   C     C_R   0.274176 0.368764 0.050256 0.215846
C64   C     C_R   0.682107 0.434232 0.955601 0.158006
C65   C     C_R   0.754288 0.909670 0.079079 0.060315
C66   C     C_R   0.268517 0.001866 0.937678 0.024631
C67   C     C_R   0.235548 0.476719 0.067080 0.020030
C68   C     C_R   0.746611 0.410174 0.921006 0.054185
C69   C     C_R   0.464273 0.086286 0.454423 -0.175928
C70   C     C_R   0.452563 0.081655 0.526404 -0.169830
C71   C     C_R   0.997012 0.556640 0.462403 -0.190299
C72   C     C_R   0.995084 0.555210 0.534976 -0.194892
H21   H     H_    0.438038 0.021354 0.419874 0.162094
H22   H     H_    0.414627 0.016353 0.545910 0.165644
H23   H     H_    0.996876 0.469177 0.435383 0.172245
H24   H     H_    0.990220 0.466924 0.560257 0.171736
C73   C     C_R   0.488751 0.160029 0.573019 -0.012534
C74   C     C_R   0.510526 0.172535 0.427455 -0.023154
C75   C     C_R   0.995154 0.664350 0.573857 -0.041749
C76   C     C_R   0.003659 0.666831 0.425660 -0.038504
C77   C     C_R   0.537198 0.245493 0.546997 0.315072
C78   C     C_R   0.544859 0.256265 0.473904 0.262310
C79   C     C_R   0.002644 0.777097 0.537965 0.286511
C80   C     C_R   0.002431 0.778832 0.463725 0.284290
C81   C     C_R   0.786525 0.055333 0.479222 0.237063
C82   C     C_R   0.205890 0.024155 0.524862 0.231883
C83   C     C_R   0.318648 0.431870 0.455623 0.231161
C84   C     C_R   0.716105 0.559927 0.519769 0.260778
C85   C     C_R   0.790074 0.035261 0.552886 0.220151
C86   C     C_R   0.211983 0.021128 0.451454 0.257031
C87   C     C_R   0.321928 0.440399 0.529249 0.185533
C88   C     C_R   0.713267 0.539907 0.445810 0.238287
C89   C     C_R   0.744953 0.947895 0.584262 -0.010980
C90   C     C_R   0.252748 0.928055 0.420107 -0.037368
C91   C     C_R   0.262507 0.404440 0.570744 -0.037634
C92   C     C_R   0.756005 0.447407 0.415472 0.008048
C93   C     C_R   0.685600 0.908349 0.546526 -0.169008
C94   C     C_R   0.298481 0.856622 0.461837 -0.191479
C95   C     C_R   0.198727 0.376074 0.537400 -0.149482
C96   C     C_R   0.813260 0.401602 0.454250 -0.173763
H25   H     H_    0.645938 0.853541 0.572301 0.192233
H26   H     H_    0.331253 0.785882 0.438430 0.199545
H27   H     H_    0.152882 0.349398 0.567964 0.190036
H28   H     H_    0.851680 0.342773 0.429083 0.187679
C97   C     C_R   0.678593 0.935436 0.474492 -0.169068
C98   C     C_R   0.298773 0.870096 0.534990 -0.194593
C99   C     C_R   0.192916 0.387556 0.464448 -0.135583
C100  C     C_R   0.819733 0.427919 0.526374 -0.169206
H29   H     H_    0.633359 0.900116 0.445828 0.189378
H30   H     H_    0.335530 0.817619 0.566636 0.208743
H31   H     H_    0.141213 0.377236 0.440370 0.192334
H32   H     H_    0.863024 0.387172 0.555785 0.181815
C101  C     C_R   0.731423 0.001817 0.439294 0.029063
C102  C     C_R   0.251416 0.950438 0.567446 -0.033527
C103  C     C_R   0.252426 0.418256 0.423688 0.048017
C104  C     C_R   0.768728 0.500693 0.560621 0.040104
O53   O     O_3   0.835566 0.126757 0.444703 -0.676895
H33   H     H_    0.876351 0.144109 0.475780 0.371016
O54   O     O_3   0.157096 0.103528 0.553569 -0.634791
H34   H     H_    0.123592 0.052562 0.580874 0.367403
O55   O     O_3   0.377949 0.447605 0.413584 -0.651385
H35   H     H_    0.421278 0.437656 0.442601 0.359934
O56   O     O_3   0.669262 0.637234 0.553674 -0.669924
H36   H     H_    0.628121 0.654195 0.522951 0.374773
N1    N     N_R   0.836767 0.107173 0.596252 0.068403
O57   O     O_R   0.810497 0.174407 0.646843 -0.314418
O58   O     O_R   0.904831 0.089278 0.593830 -0.283657
N2    N     N_R   0.173245 0.107472 0.408647 0.107893
O59   O     O_R   0.202798 0.155637 0.353077 -0.329575
O60   O     O_R   0.107448 0.133346 0.422584 -0.256637
N3    N     N_R   0.382257 0.499649 0.559928 0.091706
O61   O     O_R   0.436969 0.435550 0.578755 -0.293077
O62   O     O_R   0.389909 0.616333 0.551007 -0.353475
N4    N     N_R   0.671742 0.618448 0.400730 0.068302
O63   O     O_R   0.702500 0.675771 0.348955 -0.318879
O64   O     O_R   0.602980 0.617225 0.403304 -0.336162
O65   O     O_3   0.639903 0.810983 0.077107 -0.672383
H37   H     H_    0.606626 0.773768 0.042602 0.330945
O66   O     O_3   0.372414 0.868443 0.931027 -0.664485
H38   H     H_    0.401898 0.815568 0.962007 0.310828
O67   O     O_3   0.172341 0.661087 0.024009 -0.718246
H39   H     H_    0.169382 0.678341 0.075337 0.308893
O68   O     O_3   0.865335 0.324967 0.925021 -0.666958
H40   H     H_    0.899574 0.291742 0.960052 0.331292
N5    N     N_R   0.879247 0.976401 0.081295 0.071999
O69   O     O_R   0.900355 0.913616 0.136073 -0.355094
O70   O     O_R   0.903587 0.085969 0.071634 -0.386646
N6    N     N_R   0.171250 0.164941 0.961673 0.042871
O71   O     O_R   0.142411 0.174657 0.899561 -0.326052
O72   O     O_R   0.146583 0.237709 0.010613 -0.385822
N7    N     N_R   0.300605 0.283577 0.103139 0.076216
O73   O     O_R   0.337936 0.189273 0.083609 -0.394649
O74   O     O_R   0.282526 0.290683 0.169558 -0.269006
N8    N     N_R   0.619236 0.466655 0.917343 0.077467
O75   O     O_R   0.600305 0.403764 0.861791 -0.348270
O76   O     O_R   0.585386 0.566657 0.933346 -0.383086
O77   O     O_3   0.576479 0.321625 0.590331 -0.583810
H41   H     H_    0.573638 0.293103 0.640041 0.332906
O78   O     O_3   0.588840 0.346006 0.449597 -0.627646
H42   H     H_    0.559645 0.396551 0.417208 0.371439
O79   O     O_3   0.008803 0.887010 0.573233 -0.595049
H43   H     H_    0.032593 0.871658 0.619292 0.315254
O80   O     O_3   0.003133 0.890995 0.430636 -0.580702
H44   H     H_    0.976670 0.883309 0.385400 0.341360

loop_
_geom_bond_atom_site_label_1
_geom_bond_atom_site_label_2
_geom_bond_distance
_ccdc_geom_bond_type
C18   O42   1.253622 A    
Cr11  O51   1.980108 S    
O54   H34   0.991788 S    
O4    C12   1.268818 A    
C53   C57   1.401011 A    
C77   C78   1.390181 A    
O39   C19   1.275627 A    
O20   Cr12  2.065162 S    
O5    Cr1   1.954893 S    
N7    O74   1.299802 A    
O53   H33   0.986051 S    
C70   C73   1.405588 A    
C59   H19   1.083817 S    
C43   C44   1.382840 A    
C56   C60   1.401779 A    
C60   C64   1.375376 A    
O26   C22   1.247544 A    
C29   C30   1.416566 A    
C10   C66   1.482538 S    
C41   H9    1.077707 S    
C9    C65   1.463769 S    
C38   C44   1.388128 A    
O55   H35   0.989512 S    
O7    C3    1.273025 A    
C88   C92   1.413236 A    
C59   C63   1.394633 A    
O5    C1    1.272599 A    
C33   C34   1.364409 A    
C11   C67   1.447850 S    
C38   H6    1.080594 S    
C73   C77   1.402865 A    
C64   N8    1.432352 S    
C100  H32   1.082423 S    
C37   H5    1.073390 S    
C99   C103  1.406058 A    
C70   H22   1.080931 S    
C15   C90   1.454254 S    
O25   C21   1.298039 A    
O33   Cr5   2.063481 S    
O30   C14   1.287820 A    
C27   C31   1.407005 A    
O46   Cr10  1.945452 S    
C5    C26   1.451037 S    
C26   C30   1.409404 A    
C97   C101  1.406435 A    
O78   H42   0.990270 S    
O34   Cr6   2.062114 S    
O8    Cr4   1.951032 S    
C20   C75   1.462118 S    
O23   Cr11  1.943692 S    
C7    C28   1.466048 S    
C43   H11   1.082538 S    
O77   H41   0.989543 S    
C94   H26   1.083311 S    
O32   Cr4   1.949542 S    
C89   C93   1.397066 A    
C1    O9    1.254564 A    
O44   Cr12  2.068077 S    
C5    O17   1.262649 A    
C19   C76   1.462640 S    
C37   C43   1.393743 A    
C13   C92   1.478975 S    
C74   C78   1.423931 A    
C3    O11   1.258746 A    
H2    C34   1.084466 S    
C17   C74   1.451263 S    
C4    O12   1.259675 A    
C72   C75   1.400529 A    
O28   Cr4   2.069970 S    
C95   C99   1.384393 A    
C83   C103  1.396275 A    
N7    O73   1.301029 A    
C96   C100  1.393494 A    
C45   O65   1.381624 S    
C7    O19   1.284163 A    
C83   O55   1.385647 S    
O3    Cr3   2.063655 S    
C49   C53   1.399338 A    
Cr4   O52   1.968369 S    
O47   C23   1.265503 A    
O2    Cr2   2.070427 S    
C97   H29   1.082929 S    
O48   C24   1.304747 A    
C48   C52   1.401643 A    
C29   C37   1.424716 A    
Cr6   O50   1.979408 S    
O10   Cr6   2.066895 S    
C86   C90   1.404781 A    
C48   C68   1.417828 A    
Cr5   O49   1.971060 S    
C22   C102  1.460152 S    
C88   N4    1.439308 S    
O79   H43   0.990794 S    
C21   C101  1.479408 S    
C78   O78   1.370786 S    
C39   C41   1.380096 A    
C42   H10   1.081930 S    
O18   Cr10  2.065162 S    
C93   C97   1.395629 A    
C52   H16   1.083220 S    
Cr7   O51   1.971060 S    
C16   C89   1.480719 S    
C35   C36   1.364811 A    
O6    Cr2   1.951032 S    
C98   H30   1.079184 S    
C91   C95   1.394409 A    
C23   C103  1.449122 S    
O31   Cr3   1.944068 S    
O24   Cr12  1.949228 S    
O16   Cr8   1.943451 S    
N8    O76   1.301038 A    
C32   C40   1.424388 A    
O30   Cr2   1.949542 S    
O22   C10   1.317737 A    
C71   H23   1.083800 S    
O56   H36   0.985672 S    
O48   Cr12  1.945452 S    
C64   C68   1.407359 A    
C72   H24   1.083396 S    
C2    C55   1.439201 S    
C26   C33   1.400524 A    
O66   H38   0.991865 S    
N1    O57   1.300919 A    
C2    O10   1.258633 A    
C3    C54   1.454821 S    
C79   C80   1.398689 A    
C44   H12   1.082532 S    
C50   H14   1.083783 S    
C93   H25   1.079689 S    
C12   C68   1.463561 S    
C15   O35   1.265128 A    
C47   C67   1.426016 A    
C81   O53   1.380784 S    
C49   H13   1.083491 S    
C79   O79   1.379012 S    
C83   C87   1.391150 A    
O13   C5    1.274981 A    
O40   C20   1.276011 A    
C96   H28   1.078427 S    
O12   Cr8   2.066895 S    
C87   N3    1.434775 S    
C46   C50   1.399358 A    
O15   C7    1.259039 A    
N3    O61   1.296575 A    
C45   C49   1.402991 A    
N5    O69   1.302301 A    
C62   N6    1.459467 S    
C95   H27   1.083276 S    
C24   C104  1.479458 S    
O65   H37   0.991937 S    
O39   Cr7   1.953425 S    
O3    C11   1.289337 A    
C25   C29   1.444144 A    
N4    O64   1.301089 A    
O68   H40   0.991933 S    
C13   O33   1.261470 A    
C75   C79   1.417229 A    
O8    C4    1.275139 A    
C39   H7    1.080131 S    
N6    O72   1.302857 A    
O67   H39   0.986413 S    
C57   H17   1.083923 S    
O7    Cr3   1.954893 S    
O29   C13   1.282983 A    
Cr2   O50   1.968369 S    
O15   Cr7   1.945098 S    
O35   Cr7   2.063481 S    
Cr1   O49   1.968558 S    
C82   O54   1.375250 S    
C90   C94   1.403978 A    
C6    O18   1.287194 A    
C47   O67   1.381414 S    
C76   C80   1.419655 A    
Cr3   O51   1.968558 S    
O14   Cr6   1.943451 S    
N2    O60   1.301562 A    
O21   Cr9   1.943692 S    
O27   Cr3   2.072926 S    
C46   O66   1.383407 S    
O9    Cr5   2.074816 S    
C58   H18   1.082525 S    
O37   Cr5   1.953425 S    
O38   C18   1.277868 A    
C6    C25   1.462543 S    
C86   N2    1.440654 S    
C19   O43   1.270852 A    
C8    C27   1.456613 S    
C77   O77   1.383267 S    
C46   C66   1.430178 A    
C47   C51   1.389794 A    
C82   C102  1.424652 A    
C48   O68   1.382083 S    
O47   Cr11  1.943960 S    
C27   C36   1.398690 A    
C98   C102  1.393537 A    
C8    O20   1.261673 A    
C81   C101  1.412435 A    
O26   Cr2   2.069970 S    
C57   C61   1.373274 A    
C62   C66   1.445103 A    
C61   N5    1.429409 S    
N8    O75   1.301955 A    
O27   C23   1.269089 A    
O22   Cr10  1.949228 S    
O28   C24   1.295877 A    
H1    C33   1.080967 S    
O14   C6    1.253256 A    
O21   C9    1.270921 A    
C14   C91   1.458351 S    
C45   C65   1.414735 A    
C84   O56   1.379044 S    
C85   N1    1.437937 S    
C60   H20   1.084158 S    
H3    C35   1.084032 S    
O17   Cr9   2.063972 S    
O37   C17   1.262611 A    
C25   C34   1.389800 A    
C54   C58   1.389032 A    
C87   C91   1.427451 A    
O80   H44   0.990845 S    
O24   C12   1.267452 A    
C17   O41   1.274610 A    
O42   Cr10  2.068077 S    
C82   C86   1.388189 A    
O11   Cr7   2.074816 S    
C71   C76   1.399149 A    
C31   C39   1.413167 A    
C14   O34   1.248958 A    
O25   Cr1   2.072926 S    
C30   C38   1.417742 A    
C31   C32   1.418953 A    
C69   C74   1.388336 A    
C20   O44   1.267544 A    
C55   C59   1.394147 A    
O1    Cr1   2.063655 S    
C40   H8    1.071187 S    
C51   H15   1.084047 S    
C52   C56   1.395968 A    
O40   Cr8   1.946492 S    
C69   C70   1.375497 A    
N5    O70   1.300810 A    
O32   C16   1.290227 A    
Cr10  O50   1.971817 S    
C41   C42   1.379821 A    
O13   Cr5   1.945098 S    
O2    C10   1.292600 A    
N4    O63   1.300992 A    
O46   C22   1.281369 A    
Cr12  O52   1.971817 S    
C58   C62   1.387749 A    
O45   C21   1.307419 A    
C63   C67   1.422262 A    
C28   C32   1.442572 A    
O19   Cr11  2.063972 S    
N6    O71   1.294169 A    
N1    O58   1.301514 A    
C40   C42   1.390725 A    
C84   C104  1.412700 A    
O23   C11   1.299773 A    
C100  C104  1.405043 A    
C69   H21   1.084107 S    
C51   C55   1.385992 A    
C99   H31   1.082950 S    
O4    Cr4   2.070427 S    
N3    O62   1.298344 A    
O6    C2    1.275758 A    
O1    C9    1.271164 A    
O29   Cr1   1.944068 S    
C1    C56   1.451952 S    
C84   C88   1.410808 A    
C16   O36   1.262042 A    
C80   O80   1.379153 S    
C61   C65   1.405590 A    
N2    O59   1.301686 A    
C50   C54   1.386367 A    
Cr8   O52   1.979408 S    
H4    C36   1.082584 S    
C28   C35   1.395318 A    
O43   Cr11  2.063724 S    
C71   C72   1.367814 A    
C81   C85   1.406912 A    
O45   Cr9   1.943960 S    
O41   Cr9   2.063724 S    
C94   C98   1.385578 A    
C85   C89   1.416213 A    
O36   Cr8   2.062114 S    
C18   C73   1.442710 S    
O31   C15   1.267511 A    
O16   C8    1.278523 A    
Cr9   O49   1.980108 S    
C4    C53   1.452987 S    
C92   C96   1.396419 A    
O38   Cr6   1.946492 S    
C63   N7    1.452770 S    
