data_str_m12_o4_o10_f0_bcu.sym.13
_audit_creation_date              2012-12-11T16:45:28-0500
_audit_creation_method            fapswitch 2.2
_symmetry_space_group_name_H-M    P1
_symmetry_Int_Tables_number       1
_space_group_crystal_system       triclinic
_cell_length_a                    20.076957
_cell_length_b                    17.007772
_cell_length_c                    15.508868
_cell_angle_alpha                 90.22075
_cell_angle_beta                  52.23702
_cell_angle_gamma                 89.924444
_cell_volume                      4186.4634576

loop_
_atom_site_label
_atom_site_type_symbol
_atom_type_description
_atom_site_fract_x
_atom_site_fract_y
_atom_site_fract_z
_atom_type_partial_charge
C1    C     C_R   0.852198 0.683740 0.027565 -0.154353
C2    C     C_R   0.170712 0.317604 0.041904 0.107288
C3    C     C_2   0.664984 0.744240 0.899063 0.474834
C4    C     C_2   0.438798 0.357973 0.276257 0.588959
C5    C     C_2   0.725853 0.335406 0.658776 0.465138
C6    C     C_2   0.785413 0.841306 0.345654 0.481741
C7    C     C_2   0.225766 0.834813 0.665197 0.480370
C8    C     C_R   0.349808 0.811384 0.930222 -0.046411
C9    C     C_R   0.705541 0.841487 0.984862 0.137748
C10   C     C_R   0.845486 0.671475 0.323397 0.094011
C11   C     C_R   0.142908 0.677827 0.682076 0.083630
C12   C     C_R   0.391103 0.185533 0.302695 0.084618
C13   C     C_R   0.650152 0.173400 0.678635 0.080434
C14   C     C_R   0.716365 0.654390 0.513588 0.116167
C15   C     C_R   0.262331 0.660398 0.487041 0.127342
C16   C     C_R   0.319541 0.203253 0.494351 0.107379
C17   C     C_R   0.153600 0.678874 0.964447 -0.041665
C18   C     C_R   0.771231 0.156000 0.483411 0.139775
C19   C     C_R   0.768854 0.704205 0.423734 0.055477
C20   C     C_R   0.220585 0.708176 0.580745 0.057925
C21   C     C_R   0.365357 0.238177 0.392278 -0.017393
C22   C     C_R   0.726838 0.204466 0.576837 0.055795
C23   C     C_R   0.377731 0.320927 0.384253 -0.085783
C24   C     C_R   0.770035 0.271663 0.575948 -0.126959
C25   C     C_R   0.733349 0.776891 0.423280 -0.158310
C26   C     C_R   0.266644 0.772788 0.579855 -0.130064
C27   C     C_R   0.327462 0.367333 0.482009 -0.152018
C28   C     C_R   0.337606 0.168335 0.057524 -0.163382
C29   C     C_R   0.853245 0.285693 0.481931 -0.159513
C30   C     C_R   0.649063 0.793773 0.512358 -0.180107
C31   C     C_R   0.349594 0.786272 0.484751 -0.167245
C32   C     C_R   0.265444 0.328404 0.581158 -0.058194
C33   C     C_R   0.875517 0.256563 0.382187 0.057246
C34   C     C_R   0.619109 0.761114 0.613580 0.064792
C35   C     C_R   0.370328 0.757925 0.385548 0.059895
C36   C     C_R   0.643460 0.683112 0.609349 0.125767
C37   C     C_R   0.334779 0.686126 0.389358 0.127821
C38   C     C_R   0.269616 0.247139 0.586142 0.138385
C39   C     C_R   0.648807 0.182687 0.972839 0.005697
C40   C     C_R   0.843296 0.182667 0.385885 0.089900
C41   C     C_3   0.655624 0.631971 0.677465 -0.228936
C42   C     C_3   0.306800 0.652844 0.326484 -0.160649
C43   C     C_3   0.202410 0.184937 0.642461 -0.184189
C44   C     C_3   0.819863 0.142866 0.321274 -0.180103
C45   C     C_R   0.904891 0.300764 0.204746 -0.175570
C46   C     C_R   0.153189 0.334921 0.780633 -0.115719
C47   C     C_R   0.406215 0.801046 0.204864 -0.150278
C48   C     C_R   0.592790 0.801429 0.792401 -0.129733
C49   C     C_3   0.734404 0.599841 0.572471 -0.522951
C50   C     C_R   0.893420 0.314753 0.300694 0.080499
C51   C     C_3   0.229413 0.622782 0.432696 -0.581705
C52   C     C_3   0.258994 0.135665 0.539952 -0.512029
C53   C     C_3   0.742235 0.112702 0.427686 -0.563823
C54   C     C_2   0.756355 0.205088 0.997721 -0.139184
C55   C     C_2   0.222455 0.193743 0.050681 -0.191756
C56   C     C_2   0.262899 0.699585 0.986389 -0.197138
C57   C     C_2   0.753596 0.716752 0.992943 -0.239851
C58   C     C_2   0.312997 0.750924 0.905265 -0.089643
C59   C     C_2   0.771830 0.793653 0.967933 -0.090036
C60   C     C_2   0.809117 0.252234 0.912245 -0.080108
C61   C     C_R   0.193470 0.366208 0.678199 0.079158
C62   C     C_2   0.237771 0.270644 0.024085 -0.081469
C63   C     C_R   0.865672 0.388846 0.898045 -0.130855
C64   C     C_R   0.146780 0.393026 0.085815 -0.031448
C65   C     C_R   0.367013 0.888621 0.896128 -0.128030
C66   C     C_R   0.666007 0.905721 0.054981 -0.079283
C67   C     C_R   0.885981 0.601531 0.313503 0.022603
C68   C     C_R   0.105190 0.606030 0.691257 0.008293
C69   C     C_R   0.411290 0.108019 0.299999 0.040063
C70   C     C_R   0.609856 0.103211 0.688602 0.025945
C71   C     C_R   0.878684 0.298206 0.991024 0.020722
C72   C     C_R   0.391958 0.815882 0.302255 0.058694
C73   C     C_R   0.130769 0.300659 0.997323 -0.063590
C74   C     C_R   0.377341 0.798482 0.991283 0.047392
C75   C     C_R   0.656649 0.817508 0.955499 -0.035280
C76   C     C_R   0.871979 0.689038 0.219320 -0.094248
C77   C     C_R   0.119838 0.692829 0.785127 -0.092688
C78   C     C_R   0.397476 0.198899 0.209844 -0.127491
C79   C     C_R   0.625604 0.189967 0.782339 -0.066732
C80   C     C_R   0.905340 0.394555 0.303805 -0.071678
C81   C     C_R   0.141134 0.422271 0.684122 -0.148632
C82   C     C_R   0.403351 0.895683 0.305270 -0.062136
C83   C     C_R   0.604754 0.816930 0.696384 0.077862
C84   C     C_R   0.595155 0.896754 0.695034 -0.077400
C85   C     C_R   0.842529 0.592672 0.929995 -0.103344
C86   C     C_R   0.164074 0.585946 0.058409 -0.143315
C87   C     C_R   0.329082 0.081310 0.955305 -0.096975
C88   C     C_R   0.658624 0.090671 0.068048 -0.136939
C89   C     C_R   0.810722 0.663478 0.987199 0.130256
C90   C     C_R   0.202075 0.651648 0.992757 0.199894
C91   C     C_R   0.287955 0.143115 0.030783 0.110930
C92   C     C_R   0.694865 0.157620 0.005588 0.180619
C93   C     C_2   0.340566 0.453401 0.484081 0.474018
C94   C     C_R   0.849292 0.311594 0.932250 -0.038444
C95   C     C_2   0.914102 0.331791 0.486203 0.508752
C96   C     C_2   0.594686 0.844997 0.501371 0.526359
C97   C     C_2   0.411058 0.833347 0.486655 0.544909
C98   C     C_2   0.332312 0.749149 0.796021 0.521478
C99   C     C_2   0.856935 0.828681 0.911957 0.575461
C100  C     C_2   0.828241 0.247245 0.803190 0.509124
C101  C     C_2   0.323735 0.306342 0.956377 0.532921
C102  C     C_2   0.914284 0.222390 0.990601 0.444539
C103  C     C_2   0.114331 0.222610 0.971666 0.419647
C104  C     C_2   0.403115 0.720558 0.002849 0.405765
H1    H     H_    0.848302 0.739056 0.064450 0.091228
H2    H     H_    0.171587 0.651857 0.453435 0.209602
H3    H     H_    0.284386 0.082867 0.553118 0.201509
H4    H     H_    0.684744 0.138463 0.443747 0.201340
H5    H     H_    0.730945 0.536913 0.555794 0.208629
H6    H     H_    0.226445 0.557623 0.440162 0.194266
H7    H     H_    0.233249 0.124109 0.494815 0.200800
H8    H     H_    0.741138 0.047900 0.438007 0.203523
H9    H     H_    0.747948 0.210470 0.073640 0.168228
H10   H     H_    0.159782 0.169172 0.093194 0.171486
H11   H     H_    0.252944 0.703225 0.063304 0.169752
H12   H     H_    0.158630 0.734789 0.928447 0.083360
H13   H     H_    0.691154 0.693498 0.029909 0.144829
H14   H     H_    0.918556 0.244583 0.165165 0.139989
H15   H     H_    0.179307 0.290021 0.799810 0.128785
H16   H     H_    0.423396 0.744547 0.165412 0.161742
H17   H     H_    0.576155 0.745123 0.829826 0.064645
H18   H     H_    0.859643 0.415939 0.840140 0.090601
H19   H     H_    0.160877 0.421920 0.135074 0.118081
H20   H     H_    0.363142 0.915487 0.836229 0.109384
H21   H     H_    0.683617 0.933737 0.100838 0.117968
H22   H     H_    0.856057 0.739827 0.194640 0.117653
H23   H     H_    0.326121 0.217794 0.108966 0.109714
H24   H     H_    0.130130 0.744686 0.814740 0.122521
H25   H     H_    0.395107 0.255394 0.180145 0.107592
H26   H     H_    0.640846 0.240137 0.809016 0.119798
H27   H     H_    0.909256 0.425135 0.361289 0.112657
H28   H     H_    0.151921 0.455390 0.617489 0.097660
H29   H     H_    0.404170 0.927433 0.364697 0.107320
H30   H     H_    0.591818 0.929457 0.638780 0.116782
H31   H     H_    0.827911 0.564235 0.880949 0.113497
H32   H     H_    0.181204 0.556021 0.103628 0.120624
H33   H     H_    0.308447 0.050344 0.914496 0.128461
H34   H     H_    0.652010 0.239169 0.939150 0.084043
H35   H     H_    0.672514 0.063457 0.118207 0.111705
H36   H     H_    0.292097 0.489750 0.551691 0.045703
H37   H     H_    0.895036 0.360345 0.560722 -0.018588
H38   H     H_    0.619197 0.873264 0.424802 0.031371
H39   H     H_    0.392272 0.864937 0.559141 0.024049
H40   H     H_    0.579640 0.543716 0.688342 0.175979
H41   H     H_    0.607915 0.532476 0.769834 0.166838
H42   H     H_    0.374977 0.550114 0.290282 0.154195
H43   H     H_    0.331813 0.560190 0.226150 0.163615
H44   H     H_    0.135801 0.230748 0.591551 0.138812
H45   H     H_    0.671376 0.661838 0.726187 0.201155
H46   H     H_    0.086325 0.158761 0.685081 0.152426
H47   H     H_    0.890533 0.043335 0.293494 0.159626
H48   H     H_    0.852629 0.047251 0.222226 0.171976
H49   H     H_    0.358356 0.800718 0.744569 0.036892
H50   H     H_    0.912169 0.791831 0.877049 0.023909
H51   H     H_    0.856439 0.297034 0.748435 -0.023668
H52   H     H_    0.379930 0.269920 0.909782 0.034624
H53   H     H_    0.966412 0.547946 0.331914 0.105117
H54   H     H_    0.926147 0.631643 0.400196 0.117694
H55   H     H_    0.035773 0.535757 0.668188 0.103347
H56   H     H_    0.289760 0.696659 0.290150 0.208371
H57   H     H_    0.033656 0.631053 0.644810 0.118874
H58   H     H_    0.491829 0.036374 0.300392 0.106009
H59   H     H_    0.475644 0.122185 0.361058 0.118611
H60   H     H_    0.526928 0.048121 0.675813 0.108900
H61   H     H_    0.556570 0.135955 0.619004 0.111417
H62   H     H_    0.978817 0.207774 0.922741 0.022576
H63   H     H_    0.053436 0.210930 0.991791 0.023195
H64   H     H_    0.453236 0.688290 0.931449 0.044316
H65   H     H_    0.610001 0.707940 0.931997 -0.021792
H66   H     H_    0.425856 0.415320 0.259287 0.020177
H67   H     H_    0.192840 0.159856 0.715415 0.190263
H68   H     H_    0.757082 0.368059 0.684744 -0.015437
H69   H     H_    0.757800 0.886088 0.326780 -0.020981
H70   H     H_    0.256537 0.858715 0.697395 -0.021369
H71   H     H_    0.802315 0.181742 0.280765 0.198062
H72   H     H_    0.790652 0.616337 0.566146 0.208658
N1    N     N_R   0.908660 0.628630 0.995840 -0.044332
N2    N     N_R   0.096530 0.421430 0.063580 -0.056907
N3    N     N_R   0.403470 0.921430 0.936420 -0.047386
N4    N     N_R   0.596530 0.921430 0.063580 -0.056784
N5    N     N_R   0.927500 0.575670 0.211370 -0.059620
N6    N     N_R   0.072500 0.575670 0.788630 -0.054025
N7    N     N_R   0.427500 0.075670 0.211370 -0.059015
N8    N     N_R   0.572500 0.075670 0.788630 -0.058720
N9    N     N_R   0.908660 0.365680 0.995820 -0.070887
N10   N     N_R   0.091340 0.365680 0.004180 -0.080150
N11   N     N_R   0.408660 0.865680 0.995820 -0.067625
N12   N     N_R   0.091340 0.628630 0.004160 -0.056228
N13   N     N_R   0.591340 0.865680 0.004180 -0.085782
N14   N     N_R   0.922310 0.631420 0.151980 -0.057803
N15   N     N_R   0.077690 0.631420 0.848020 -0.055469
N16   N     N_R   0.422310 0.131420 0.151980 -0.051039
N17   N     N_R   0.577690 0.131420 0.848020 -0.061175
N18   N     N_R   0.927500 0.426330 0.211360 -0.048321
N19   N     N_R   0.072500 0.426330 0.788640 -0.039858
N20   N     N_R   0.427500 0.926330 0.211360 -0.051351
N21   N     N_R   0.572500 0.926330 0.788640 -0.046746
N22   N     N_R   0.903470 0.570760 0.936440 -0.050366
N23   N     N_R   0.408660 0.128630 0.995840 -0.048262
N24   N     N_R   0.096530 0.570760 0.063560 -0.054753
N25   N     N_R   0.403470 0.070760 0.936440 -0.057060
N26   N     N_R   0.596530 0.070760 0.063560 -0.054622
N27   N     N_3   0.588437 0.573852 0.739646 -0.191770
N28   N     N_3   0.363047 0.590509 0.250590 -0.175545
N29   N     N_3   0.123602 0.208847 0.662948 -0.203596
N30   N     N_3   0.879920 0.080908 0.249661 -0.176941
N31   N     N_3   0.910163 0.580029 0.379970 -0.227475
N32   N     N_3   0.073742 0.585561 0.632642 -0.226012
N33   N     N_3   0.444481 0.077088 0.352887 -0.222728
N34   N     N_R   0.591340 0.128630 0.004160 -0.055819
N35   N     N_3   0.579817 0.084091 0.627912 -0.225430
N36   N     N_R   0.922310 0.368460 0.151950 -0.046684
N37   N     N_R   0.077690 0.368460 0.848050 -0.064140
N38   N     N_R   0.422310 0.868460 0.151950 -0.046138
N39   N     N_R   0.577690 0.868460 0.848050 -0.051789
N40   N     N_R   0.903470 0.421430 0.936420 -0.042718
Ni1   Ni    Ni4+2 0.000000 0.630300 0.000000 0.232100
Ni2   Ni    Ni4+2 0.500000 0.130300 0.000000 0.235976
Ni3   Ni    Ni4+2 0.000000 0.369700 0.000000 0.208257
Ni4   Ni    Ni4+2 0.500000 0.869700 0.000000 0.215367
Ni5   Ni    Ni4+2 0.988090 0.497570 0.863760 0.204259
Ni6   Ni    Ni4+2 0.011910 0.497570 0.136240 0.220281
Ni7   Ni    Ni4+2 0.488090 0.997570 0.863760 0.214294
Ni8   Ni    Ni4+2 0.511910 0.997570 0.136240 0.221273
O1    O     O_2   0.407796 0.484294 0.413982 -0.585970
O2    O     O_2   0.169638 0.172792 0.922037 -0.596845
O3    O     O_2   0.361644 0.687540 0.090552 -0.632810
O4    O     O_2   0.733706 0.722644 0.817925 -0.587009
O5    O     O_2   0.504984 0.325018 0.205489 -0.598804
O6    O     O_2   0.654123 0.354393 0.695857 -0.583938
O7    O     O_2   0.859619 0.847640 0.306386 -0.576473
O8    O     O_2   0.157253 0.861476 0.698416 -0.558601
O9    O     O_2   0.988149 0.335459 0.406458 -0.594155
O10   O     O_2   0.520037 0.853392 0.577466 -0.614983
O11   O     O_2   0.485161 0.835171 0.406756 -0.586788
O12   O     O_2   0.323115 0.689478 0.760368 -0.572101
O13   O     O_2   0.866379 0.899852 0.902025 -0.554177
O14   O     O_2   0.816932 0.186758 0.771188 -0.574714
O15   O     O_2   0.332627 0.377628 0.949446 -0.574746
O16   O     O_2   0.871819 0.175423 0.064326 -0.612572

loop_
_geom_bond_atom_site_label_1
_geom_bond_atom_site_label_2
_ccdc_geom_bond_type
C45   H14   S    
N8    Ni7   S    
C12   C69   A    
C13   C79   A    
C103  H63   S    
C16   C21   A    
C87   C91   A    
C43   N29   S    
C76   H22   S    
C42   N28   S    
H53   N31   S    
C44   H71   S    
N16   Ni2   S    
N7    N16   A    
N15   Ni1   S    
C73   N10   A    
N37   Ni3   S    
H55   N32   S    
C71   C94   A    
C54   C60   D    
C10   C67   A    
C103  O2    D    
C47   N38   A    
C63   C94   A    
C68   N6    A    
C8    C74   A    
C7    C26   S    
C4    H66   S    
C13   C22   S    
N5    Ni6   S    
C98   H49   S    
H54   N31   S    
C57   H13   S    
H43   N28   S    
C35   C37   A    
C78   H25   S    
C71   N9    A    
C32   C61   S    
N4    N13   A    
C14   C36   A    
C43   C52   S    
C57   C59   D    
C14   C49   S    
C101  O15   D    
C13   C70   A    
N12   N24   A    
C17   N12   A    
N8    N17   A    
C97   O11   D    
C54   H9    S    
C29   C33   A    
C64   N2    A    
C12   C78   A    
C65   H20   S    
C37   C42   S    
N9    N40   A    
C18   C40   A    
N40   Ni5   S    
C15   C37   A    
H42   N28   S    
C11   C77   A    
C18   C53   S    
C8    C58   S    
C24   C29   A    
C1    N1    A    
C44   C53   S    
C56   H11   S    
C97   H39   S    
C88   C92   A    
C52   H3    S    
N7    Ni8   S    
C58   C98   S    
C68   N32   S    
C73   C103  S    
C55   C91   S    
C80   N18   A    
H57   N32   S    
C100  O14   D    
C41   H45   S    
C32   C38   A    
C63   N40   A    
C41   N27   S    
C3    C75   S    
C82   N20   A    
N21   N39   A    
N13   Ni4   S    
C29   C95   S    
C42   C51   S    
N11   Ni4   S    
C62   C101  S    
C56   C90   S    
C52   H7    S    
C39   H34   S    
C26   C31   A    
C102  H62   S    
C80   H27   S    
C6    O7    D    
C70   N35   S    
C86   N24   A    
C36   C41   S    
N17   Ni2   S    
N23   Ni2   S    
C10   C76   A    
C43   H67   S    
N26   N34   A    
C41   C49   S    
C2    C64   A    
C7    O8    D    
H59   N33   S    
C15   C20   A    
C42   H56   S    
C11   C20   S    
C28   N23   A    
C30   C34   A    
C46   C61   A    
H60   N35   S    
C33   C40   A    
N26   Ni8   S    
N22   Ni5   S    
C78   N16   A    
C86   C90   A    
C48   H17   S    
H41   N27   S    
C4    C23   S    
C85   C89   A    
C3    H65   S    
C81   H28   S    
C99   H50   S    
C65   N3    A    
C101  H52   S    
C60   C100  S    
C33   C50   S    
N12   Ni1   S    
C79   H26   S    
N18   N36   A    
C12   C21   S    
C39   N34   A    
N3    Ni7   S    
C9    C59   S    
C77   N15   A    
C88   H35   S    
C54   C92   S    
N2    N10   A    
C81   N19   A    
H40   N27   S    
N20   N38   A    
N5    N14   A    
C8    C65   A    
C83   C84   A    
C66   H21   S    
C48   N39   A    
C10   C19   S    
C46   N37   A    
C84   H30   S    
C44   N30   S    
C98   O12   D    
C77   H24   S    
N20   Ni8   S    
C2    C73   A    
C57   C89   S    
H44   N29   S    
C69   N7    A    
C100  H51   S    
C70   N8    A    
C47   H16   S    
C55   H10   S    
C71   C102  S    
C85   H31   S    
C35   C72   S    
C95   H37   S    
C51   H6    S    
C23   C27   A    
N1    N22   A    
C21   C23   A    
C75   N13   A    
C15   C51   S    
C27   C93   S    
C69   N33   S    
C34   C83   S    
N25   Ni7   S    
N14   Ni1   S    
C39   C92   A    
C63   H18   S    
C67   N31   S    
C11   C68   A    
C53   H8    S    
C104  O3    D    
C74   C104  S    
C74   N11   A    
C86   H32   S    
C25   C30   A    
N6    Ni5   S    
C1    C89   A    
N9    Ni3   S    
C67   N5    A    
C27   C32   A    
C18   C22   A    
C14   C19   A    
H61   N35   S    
C17   C90   A    
C16   C52   S    
H46   N29   S    
N1    Ni1   S    
N21   Ni7   S    
C50   C80   A    
C104  H64   S    
C28   H23   S    
N36   Ni3   S    
C84   N21   A    
C64   H19   S    
C9    C75   A    
N10   Ni3   S    
C102  O16   D    
C79   N17   A    
C48   C83   A    
N18   Ni6   S    
H48   N30   S    
N24   Ni6   S    
C4    O5    D    
C82   H29   S    
C49   H5    S    
N19   Ni5   S    
C38   C43   S    
C20   C26   A    
C93   H36   S    
N38   Ni4   S    
N39   Ni4   S    
C9    C66   A    
C6    C25   S    
C53   H4    S    
C6    H69   S    
C5    C24   S    
C66   N4    A    
C45   C50   A    
C51   H2    S    
C59   C99   S    
C31   C35   A    
C7    H70   S    
C5    H68   S    
C56   C58   D    
C46   H15   S    
N4    Ni8   S    
C28   C91   A    
C22   C24   A    
C31   C97   S    
H47   N30   S    
C19   C25   A    
C47   C72   A    
N19   N37   A    
C76   N14   A    
C96   H38   S    
C99   O13   D    
C93   O1    D    
C85   N22   A    
C40   C44   S    
N3    N11   A    
C55   C62   D    
C34   C36   A    
H58   N33   S    
N6    N15   A    
C16   C38   A    
N23   N25   A    
C96   O10   D    
C5    O6    D    
N2    Ni6   S    
C30   C96   S    
C61   C81   A    
C95   O9    D    
C88   N26   A    
C45   N36   A    
C87   H33   S    
C3    O4    D    
C87   N25   A    
C49   H72   S    
C72   C82   A    
N34   Ni2   S    
C2    C62   S    
C17   H12   S    
C1    H1    S    
C60   C94   S    
