data_str_m4_o1_o24_f0_acs.sym.136
_audit_creation_date              2012-12-11T14:52:28-0500
_audit_creation_method            fapswitch 2.2
_symmetry_space_group_name_H-M    P1
_symmetry_Int_Tables_number       1
_space_group_crystal_system       triclinic
_cell_length_a                    18.773684
_cell_length_b                    10.96953
_cell_length_c                    18.705523
_cell_angle_alpha                 90.117549
_cell_angle_beta                  90.402356
_cell_angle_gamma                 89.865376
_cell_volume                      3852.07356349

loop_
_atom_site_label
_atom_site_type_symbol
_atom_type_description
_atom_site_fract_x
_atom_site_fract_y
_atom_site_fract_z
_atom_type_partial_charge
C1    C     C_R   0.288815 0.996707 0.861374 0.544330
C2    C     C_R   0.711242 0.996577 0.138504 0.543347
C3    C     C_R   0.788820 0.496695 0.861372 0.540866
C4    C     C_R   0.211250 0.496598 0.138505 0.545019
C5    C     C_3   0.523124 0.725738 0.966454 0.049631
C6    C     C_3   0.477119 0.725809 0.033273 0.049631
C7    C     C_3   0.023217 0.225808 0.966415 0.049753
C8    C     C_3   0.977214 0.225729 0.033233 0.049739
C9    C     C_R   0.296387 0.506058 0.952231 -0.117433
C10   C     C_R   0.703976 0.505808 0.047733 -0.120324
C11   C     C_R   0.796379 0.006034 0.952223 -0.117933
C12   C     C_R   0.204001 0.005727 0.047765 -0.119149
C13   C     C_R   0.288399 0.468991 0.023318 0.035824
C14   C     C_R   0.711908 0.468907 0.976543 0.036377
C15   C     C_R   0.788388 0.968956 0.023307 0.036280
C16   C     C_R   0.211915 0.968880 0.976560 0.035811
C17   C     C_R   0.225887 0.511033 0.061282 -0.013477
C18   C     C_R   0.774267 0.511018 0.938608 -0.012411
C19   C     C_R   0.725872 0.010983 0.061272 -0.013973
C20   C     C_R   0.274259 0.011036 0.938613 -0.013734
C21   C     C_R   0.170832 0.566473 0.021965 -0.147007
C22   C     C_R   0.829237 0.566415 0.977951 -0.147036
C23   C     C_R   0.670813 0.066403 0.021950 -0.147307
C24   C     C_R   0.329224 0.066461 0.977951 -0.147302
C25   C     C_R   0.178696 0.592184 0.950308 -0.120209
C26   C     C_R   0.821395 0.592115 0.049647 -0.120822
C27   C     C_R   0.678684 0.092137 0.950295 -0.120228
C28   C     C_R   0.321396 0.092126 0.049653 -0.120428
C29   C     C_R   0.243496 0.571235 0.916976 -0.005240
C30   C     C_R   0.756713 0.571035 0.083014 -0.006744
C31   C     C_R   0.743489 0.071211 0.916968 -0.004836
C32   C     C_R   0.256728 0.070991 0.083036 -0.005066
C33   C     C_R   0.539690 0.750412 0.546490 -0.138981
C34   C     C_R   0.550044 0.746635 0.473766 -0.134259
C35   C     C_R   0.973153 0.222798 0.529276 -0.128742
C36   C     C_R   0.977555 0.226916 0.456289 -0.132342
C37   C     C_R   0.513609 0.827845 0.428396 0.039366
C38   C     C_R   0.493259 0.836618 0.574450 0.021146
C39   C     C_R   0.998930 0.334320 0.422995 0.022339
C40   C     C_R   0.985380 0.328087 0.570379 0.027068
C41   C     C_R   0.467807 0.915536 0.456191 -0.098067
C42   C     C_R   0.458157 0.920875 0.529534 -0.122997
C43   C     C_R   0.008333 0.441762 0.463102 -0.121426
C44   C     C_R   0.000861 0.438798 0.536923 -0.119565
C45   C     C_R   0.443834 0.817978 0.863105 0.528286
C46   C     C_R   0.556235 0.817696 0.136912 0.530271
C47   C     C_R   0.943849 0.317981 0.863106 0.528579
C48   C     C_R   0.056253 0.317690 0.136913 0.531335
C49   C     C_R   0.224720 0.737787 0.518516 -0.141757
C50   C     C_R   0.797737 0.674848 0.471175 -0.129259
C51   C     C_R   0.673526 0.079110 0.553675 -0.122693
C52   C     C_R   0.276074 0.236209 0.481366 -0.138210
C53   C     C_R   0.216824 0.713672 0.445864 0.050877
C54   C     C_R   0.794866 0.677952 0.544306 0.041509
C55   C     C_R   0.661972 0.072138 0.480931 0.028581
C56   C     C_R   0.283927 0.212407 0.553890 0.046709
C57   C     C_R   0.256927 0.616999 0.415387 0.008088
C58   C     C_R   0.749091 0.595270 0.578592 -0.001159
C59   C     C_R   0.717117 0.020591 0.437956 -0.014604
C60   C     C_R   0.243327 0.116830 0.584523 0.000730
C61   C     C_R   0.314497 0.567658 0.453881 -0.160035
C62   C     C_R   0.698943 0.527326 0.538950 -0.161788
C63   C     C_R   0.783531 0.992351 0.468974 -0.162475
C64   C     C_R   0.185389 0.068732 0.546138 -0.159877
C65   C     C_R   0.323918 0.597206 0.525581 -0.124499
C66   C     C_R   0.698873 0.532497 0.465189 -0.149014
C67   C     C_R   0.797158 0.022827 0.539084 -0.111975
C68   C     C_R   0.175924 0.098311 0.474472 -0.126048
C69   C     C_R   0.274993 0.674419 0.559368 -0.010109
C70   C     C_R   0.748660 0.605769 0.431198 0.000798
C71   C     C_R   0.742265 0.067255 0.581217 0.026240
C72   C     C_R   0.225245 0.174141 0.440616 -0.010231
C73   C     C_R   0.259203 0.632917 0.850127 0.550080
C74   C     C_R   0.740858 0.632874 0.149898 0.536232
C75   C     C_R   0.759203 0.132916 0.850128 0.534821
C76   C     C_R   0.240867 0.132840 0.149917 0.548238
C77   C     C_R   0.269558 0.051734 0.648138 0.555898
C78   C     C_R   0.708325 0.998470 0.361950 0.562850
C79   C     C_R   0.769974 0.549284 0.647690 0.577627
C80   C     C_R   0.230506 0.551959 0.351783 0.568770
C81   C     C_R   0.469542 0.824137 0.646914 0.543301
C82   C     C_R   0.530799 0.823078 0.353557 0.556011
C83   C     C_R   0.967695 0.322830 0.645434 0.561519
C84   C     C_R   0.028713 0.324191 0.352219 0.550755
C85   C     C_R   0.275756 0.691960 0.636676 0.567039
C86   C     C_R   0.740043 0.638020 0.357164 0.544068
C87   C     C_R   0.758503 0.131664 0.646163 0.568254
C88   C     C_R   0.224290 0.191812 0.363359 0.570481
C89   C     C_3   0.477346 0.925379 0.034603 -0.130066
C90   C     C_3   0.522752 0.925311 0.965683 -0.131338
C91   C     C_3   0.977320 0.425299 0.034628 -0.131189
C92   C     C_3   0.022725 0.425381 0.965709 -0.130288
C93   C     C_3   0.428306 0.825360 0.002311 -0.167632
C94   C     C_3   0.571870 0.824962 0.997698 -0.168037
C95   C     C_3   0.928339 0.325224 0.002306 -0.168122
C96   C     C_3   0.071904 0.325088 0.997692 -0.167526
C97   C     C_3   0.474584 0.825040 0.934906 0.007989
C98   C     C_3   0.525577 0.824765 0.065095 0.008630
C99   C     C_3   0.974616 0.325052 0.934900 0.008691
C100  C     C_3   0.025611 0.324744 0.065088 0.008171
Cr1   Cr    Cr6+3 0.229630 0.835900 0.747350 1.065184
Cr2   Cr    Cr6+3 0.770370 0.835900 0.252650 1.065505
Cr3   Cr    Cr6+3 0.729630 0.335900 0.747350 1.072156
Cr4   Cr    Cr6+3 0.270370 0.335900 0.252650 1.069820
Cr5   Cr    Cr6+3 0.387410 0.989850 0.750850 1.061598
Cr6   Cr    Cr6+3 0.612590 0.989850 0.249150 1.082362
Cr7   Cr    Cr6+3 0.887410 0.489850 0.750850 1.072792
Cr8   Cr    Cr6+3 0.112590 0.489850 0.249150 1.056074
Cr9   Cr    Cr6+3 0.385800 0.677120 0.749340 1.069124
Cr10  Cr    Cr6+3 0.614200 0.677120 0.250660 1.047664
Cr11  Cr    Cr6+3 0.885800 0.177120 0.749340 1.066926
Cr12  Cr    Cr6+3 0.114200 0.177120 0.250660 1.046615
H1    H     H_    0.369217 0.822648 0.002866 0.128628
H2    H     H_    0.630965 0.821978 0.997166 0.128658
H3    H     H_    0.869251 0.322436 0.002859 0.128381
H4    H     H_    0.130999 0.322184 0.997159 0.128902
H5    H     H_    0.190739 0.804765 0.543717 0.149125
H6    H     H_    0.835782 0.734225 0.445520 0.176118
H7    H     H_    0.630988 0.113064 0.587399 0.172995
H8    H     H_    0.310493 0.302102 0.456171 0.154425
H9    H     H_    0.349078 0.499878 0.430184 0.147933
H10   H     H_    0.662843 0.464337 0.564538 0.176236
H11   H     H_    0.827274 0.956513 0.437863 0.155667
H12   H     H_    0.150457 0.002001 0.569909 0.146680
H13   H     H_    0.366628 0.554179 0.555350 0.173034
H14   H     H_    0.659662 0.481114 0.434960 0.163564
H15   H     H_    0.851131 0.016776 0.559310 0.155016
H16   H     H_    0.132765 0.056460 0.444788 0.185738
H17   H     H_    0.135413 0.635984 0.921926 0.164970
H18   H     H_    0.864566 0.636070 0.078032 0.164859
H19   H     H_    0.635405 0.135945 0.921911 0.164507
H20   H     H_    0.364565 0.136100 0.078031 0.165497
H21   H     H_    0.566090 0.684225 0.580562 0.134960
H22   H     H_    0.586632 0.679878 0.452650 0.143631
H23   H     H_    0.958787 0.136550 0.553133 0.137870
H24   H     H_    0.969167 0.143261 0.426474 0.149888
O1    O     O_R   0.214270 0.709000 0.827470 -0.478900
O2    O     O_R   0.785730 0.709000 0.172530 -0.480379
O3    O     O_R   0.714270 0.209000 0.827470 -0.484875
O4    O     O_R   0.285730 0.209000 0.172530 -0.477133
O5    O     O_R   0.445950 0.919440 0.676520 -0.500665
O6    O     O_R   0.554050 0.919440 0.323480 -0.460843
O7    O     O_R   0.945950 0.419440 0.676520 -0.493609
O8    O     O_R   0.054050 0.419440 0.323480 -0.501199
O9    O     O_R   0.456730 0.717630 0.669840 -0.520951
O10   O     O_R   0.543270 0.717630 0.330160 -0.518056
O11   O     O_R   0.956730 0.217630 0.669840 -0.517684
O12   O     O_R   0.043270 0.217630 0.330160 -0.522424
O13   O     O_R   0.320620 0.625640 0.672920 -0.470263
O14   O     O_R   0.679380 0.625640 0.327080 -0.506541
O15   O     O_R   0.820620 0.125640 0.672920 -0.491214
O16   O     O_R   0.179380 0.125640 0.327080 -0.492246
O17   O     O_3   0.334280 0.834290 0.749180 -0.333451
O18   O     O_3   0.665720 0.834290 0.250820 -0.330937
O19   O     O_3   0.834280 0.334290 0.749180 -0.309565
O20   O     O_3   0.165720 0.334290 0.250820 -0.328091
O21   O     O_R   0.236160 0.958490 0.823130 -0.449769
O22   O     O_R   0.763840 0.958490 0.176870 -0.443802
O23   O     O_R   0.736160 0.458490 0.823130 -0.452423
O24   O     O_R   0.263840 0.458490 0.176870 -0.448809
O25   O     O_R   0.332080 0.075470 0.831280 -0.481650
O26   O     O_R   0.667920 0.075470 0.168720 -0.491321
O27   O     O_R   0.832080 0.575470 0.831280 -0.488940
O28   O     O_R   0.167920 0.575470 0.168720 -0.486139
O29   O     O_R   0.446300 0.918110 0.826620 -0.510385
O30   O     O_R   0.553700 0.918110 0.173380 -0.511263
O31   O     O_R   0.946300 0.418110 0.826620 -0.511326
O32   O     O_R   0.053700 0.418110 0.173380 -0.510733
O33   O     O_R   0.457110 0.716200 0.831760 -0.474286
O34   O     O_R   0.542890 0.716200 0.168240 -0.471973
O35   O     O_R   0.957110 0.216200 0.831760 -0.473028
O36   O     O_R   0.042890 0.216200 0.168240 -0.474098
O37   O     O_R   0.320980 0.624310 0.823030 -0.507891
O38   O     O_R   0.679020 0.624310 0.176970 -0.516341
O39   O     O_R   0.820980 0.124310 0.823030 -0.515682
O40   O     O_R   0.179020 0.124310 0.176970 -0.516337
O41   O     O_R   0.213890 0.710430 0.665540 -0.500328
O42   O     O_R   0.786110 0.710430 0.334460 -0.529647
O43   O     O_R   0.713890 0.210430 0.665540 -0.518532
O44   O     O_R   0.286110 0.210430 0.334460 -0.499187
O45   O     O_R   0.235810 0.959820 0.673020 -0.530049
O46   O     O_R   0.764190 0.959820 0.326980 -0.504844
O47   O     O_R   0.735810 0.459820 0.673020 -0.508532
O48   O     O_R   0.264190 0.459820 0.326980 -0.529438
O49   O     O_R   0.331700 0.076900 0.669350 -0.479096
O50   O     O_R   0.668300 0.076900 0.330650 -0.454993
O51   O     O_R   0.831700 0.576900 0.669350 -0.469259
O52   O     O_R   0.168300 0.576900 0.330650 -0.476384
C101  C     C_2   0.165663 0.788992 0.404152 0.585175
O53   O     O_2   0.109410 0.821276 0.430919 -0.547129
O54   O     O_R   0.182328 0.824357 0.334463 -0.654496
H25   H     H_    0.143223 0.875022 0.311442 0.347021
C102  C     C_2   0.843311 0.763423 0.582813 0.576819
O55   O     O_2   0.824416 0.810982 0.638832 -0.502981
O56   O     O_R   0.910384 0.789955 0.554705 -0.717686
H26   H     H_    0.938694 0.848012 0.586069 0.334720
C103  C     C_2   0.598413 0.142038 0.455178 0.587326
O57   O     O_2   0.560684 0.105193 0.406694 -0.491328
O58   O     O_R   0.580660 0.251654 0.489245 -0.715968
H27   H     H_    0.536402 0.291313 0.468246 0.352207
C104  C     C_2   0.336282 0.286536 0.594664 0.588561
O59   O     O_2   0.322211 0.322085 0.654968 -0.471822
O60   O     O_R   0.401316 0.317227 0.563531 -0.726256
H28   H     H_    0.432893 0.366749 0.596766 0.338543
H29   H     H_    0.461870 0.007497 0.065290 0.133304
H30   H     H_    0.538198 0.007396 0.935255 0.132192
H31   H     H_    0.961799 0.507354 0.065349 0.132288
H32   H     H_    0.038128 0.507532 0.935318 0.132859
C105  C     C_2   0.550184 0.621277 0.923451 0.621897
O61   O     O_2   0.519582 0.523231 0.925369 -0.449880
O62   O     O_R   0.603977 0.643033 0.873826 -0.675327
H33   H     H_    0.608283 0.576068 0.836843 0.371426
C106  C     C_2   0.450056 0.621460 0.075958 0.621171
O63   O     O_2   0.480586 0.523116 0.073679 -0.450762
O64   O     O_R   0.396199 0.643504 0.125587 -0.672094
H34   H     H_    0.391712 0.576326 0.162225 0.373172
C107  C     C_2   0.050334 0.121432 0.923379 0.621695
O65   O     O_2   0.019694 0.023411 0.925154 -0.450279
O66   O     O_R   0.104226 0.143257 0.873875 -0.671985
H35   H     H_    0.108607 0.076338 0.836873 0.372706
C108  C     C_2   0.950225 0.121268 0.075874 0.620952
O67   O     O_2   0.980731 0.022912 0.073443 -0.451811
O68   O     O_R   0.896466 0.143201 0.125625 -0.674291
H36   H     H_    0.892077 0.075969 0.162242 0.373620
H37   H     H_    0.345628 0.487985 0.924203 0.205431
H38   H     H_    0.654843 0.487731 0.075817 0.203917
H39   H     H_    0.845623 0.987974 0.924197 0.204900
H40   H     H_    0.154885 0.987594 0.075869 0.203574
C109  C     C_2   0.348108 0.388748 0.049304 0.599918
O69   O     O_2   0.362698 0.376374 0.112279 -0.469632
O70   O     O_R   0.392156 0.331740 0.998995 -0.691781
H41   H     H_    0.434168 0.287581 0.021501 0.343178
C110  C     C_2   0.652213 0.388985 0.950457 0.601280
O71   O     O_2   0.637447 0.376839 0.887490 -0.468585
O72   O     O_R   0.608297 0.332201 0.000700 -0.693855
H42   H     H_    0.566177 0.288551 0.978176 0.343964
C111  C     C_2   0.848098 0.888713 0.049288 0.600502
O73   O     O_2   0.862686 0.876324 0.112263 -0.469955
O74   O     O_R   0.892144 0.831706 0.998977 -0.692647
H43   H     H_    0.934153 0.787535 0.021480 0.342975
C112  C     C_2   0.152206 0.888995 0.950465 0.600445
O75   O     O_2   0.137448 0.876860 0.887494 -0.468613
O76   O     O_R   0.108268 0.832236 0.000699 -0.693614
H44   H     H_    0.066146 0.788607 0.978165 0.343898
H45   H     H_    0.120799 0.590909 0.046794 0.163584
H46   H     H_    0.879171 0.590855 0.953118 0.164281
H47   H     H_    0.620778 0.090828 0.046778 0.163496
H48   H     H_    0.379149 0.090936 0.953111 0.164457
H49   H     H_    0.439626 0.978487 0.421477 0.163587
H50   H     H_    0.420339 0.986219 0.550645 0.153103
H51   H     H_    0.025094 0.525871 0.438134 0.166331
H52   H     H_    0.007937 0.521729 0.567684 0.161727

loop_
_geom_bond_atom_site_label_1
_geom_bond_atom_site_label_2
_ccdc_geom_bond_type
C58   C62   A    
Cr5   O17   S    
O60   H28   S    
C49   C53   A    
C55   C59   A    
C63   H11   S    
C34   C37   A    
C27   H19   S    
C41   C42   A    
C14   C18   A    
C9    H37   S    
C19   C23   A    
C35   C36   A    
C40   C83   S    
C86   O42   A    
C43   C44   A    
C25   H17   S    
Cr2   O22   S    
C5    C94   S    
C94   H2    S    
Cr1   O45   S    
C7    C8    S    
Cr7   O19   S    
C66   C70   A    
C106  O63   D    
C46   C98   S    
C15   C19   A    
C7    C96   S    
Cr8   O28   S    
C45   O29   A    
C50   C54   A    
C7    C99   S    
C51   H7    S    
Cr10  O18   S    
C64   C68   A    
C39   C84   S    
C74   O38   A    
C67   H15   S    
C86   O14   A    
C11   H39   S    
Cr2   O2    S    
C5    C6    S    
C30   C74   S    
Cr9   O37   S    
C12   H40   S    
Cr3   O47   S    
C29   C73   S    
C94   C98   S    
C95   C99   S    
O76   H44   S    
Cr7   O51   S    
C6    C106  S    
C92   C96   S    
C47   C99   S    
C3    C18   S    
C61   H9    S    
C112  O75   D    
C104  O59   D    
Cr5   O49   S    
C103  O58   S    
C9    C13   A    
C21   C25   A    
C82   O10   A    
C48   O36   A    
C11   C15   A    
C44   H52   S    
C89   H29   S    
O74   H43   S    
C95   H3    S    
C102  O56   S    
C48   O32   A    
C77   O45   A    
O72   H42   S    
Cr12  O16   S    
C53   C101  S    
C88   O44   A    
C33   H21   S    
C78   O50   A    
C23   C27   A    
C91   C100  S    
C103  O57   D    
C62   H10   S    
Cr9   O17   S    
C110  O71   D    
Cr2   O18   S    
C90   C97   S    
Cr3   O43   S    
C26   H18   S    
C9    C29   A    
C16   C112  S    
C81   O5    A    
Cr8   O32   S    
C11   C31   A    
O58   H27   S    
C45   C97   S    
C54   C102  S    
C49   C69   A    
C111  O73   D    
C12   C32   A    
C90   H30   S    
C37   C41   A    
C104  O60   S    
C57   C80   S    
C2    O26   A    
Cr12  O36   S    
C8    C95   S    
C51   C71   A    
Cr4   O24   S    
C1    O25   A    
Cr10  O14   S    
C77   O49   A    
C36   H24   S    
C59   C78   S    
C72   C88   S    
Cr9   O33   S    
C90   C94   S    
Cr7   O31   S    
C106  O64   S    
C25   C29   A    
C48   C100  S    
C63   C67   A    
C60   C77   S    
C62   C66   A    
C108  O68   S    
C27   C31   A    
O54   H25   S    
Cr2   O46   S    
C84   O8    A    
C12   C16   A    
C28   C32   A    
C76   O40   A    
Cr10  O34   S    
Cr6   O50   S    
O68   H36   S    
C105  O61   D    
C10   C14   A    
C35   H23   S    
C91   C92   S    
C22   H46   S    
C53   C57   A    
C21   H45   S    
C56   C104  S    
C51   C55   A    
Cr6   O18   S    
C107  O65   D    
C64   H12   S    
C75   O39   A    
C89   C93   S    
C17   C21   A    
Cr12  O12   S    
C45   O33   A    
C68   C72   A    
C28   H20   S    
C65   H13   S    
Cr4   O44   S    
C84   O12   A    
Cr9   O13   S    
O64   H34   S    
C32   C76   S    
C109  O69   D    
C52   C72   A    
Cr11  O11   S    
C108  O67   D    
C47   O31   A    
C6    C98   S    
C10   C30   A    
C31   C75   S    
O62   H33   S    
Cr8   O20   S    
Cr1   O17   S    
C16   C20   A    
C6    C93   S    
C83   O7    A    
C4    O28   A    
C33   C34   A    
C80   O52   A    
C3    O23   A    
C93   H1    S    
Cr4   O20   S    
C110  O72   S    
C42   H50   S    
C46   O34   A    
C79   O51   A    
C58   C79   S    
C83   O11   A    
C4    C17   S    
C52   H8    S    
Cr3   O19   S    
Cr12  O20   S    
Cr12  O40   S    
Cr8   O8    S    
C5    C97   S    
C26   C30   A    
C81   O9    A    
C111  O74   S    
C38   C81   S    
C71   C87   S    
Cr3   O3    S    
Cr2   O42   S    
Cr11  O39   S    
C37   C82   S    
C24   H48   S    
C112  O76   S    
Cr5   O29   S    
C76   O4    A    
Cr7   O7    S    
C70   C86   S    
C93   C97   S    
O66   H35   S    
C69   C85   S    
C54   C58   A    
C68   H16   S    
Cr6   O6    S    
Cr1   O1    S    
C46   O30   A    
Cr4   O48   S    
C2    C19   S    
C50   H6    S    
Cr8   O52   S    
C36   C39   A    
Cr9   O9    S    
C24   C28   A    
Cr7   O27   S    
C1    C20   S    
Cr11  O15   S    
C88   O16   A    
C47   O35   A    
C57   C61   A    
Cr6   O26   S    
C3    O27   A    
C92   H32   S    
C107  O66   S    
C5    C105  S    
C15   C111  S    
C59   C63   A    
C33   C38   A    
C73   O37   A    
C13   C17   A    
C89   C98   S    
C60   C64   A    
C18   C22   A    
C35   C40   A    
C50   C70   A    
C66   H14   S    
C109  O70   S    
C75   O3    A    
O56   H26   S    
C87   O43   A    
C4    O24   A    
C74   O2    A    
Cr3   O23   S    
C8    C100  S    
C55   C103  S    
Cr10  O38   S    
C73   O1    A    
Cr6   O30   S    
C65   C69   A    
C96   C100  S    
C1    O21   A    
C91   H31   S    
C105  O62   S    
C79   O47   A    
C67   C71   A    
C80   O48   A    
C61   C65   A    
C23   H47   S    
C101  O53   D    
Cr5   O5    S    
C85   O13   A    
Cr1   O41   S    
C13   C109  S    
C82   O6    A    
C7    C107  S    
C38   C42   A    
C43   H51   S    
C40   C44   A    
C56   C60   A    
C2    O22   A    
C39   C43   A    
C91   C95   S    
C85   O41   A    
C102  O55   D    
C22   C26   A    
C49   H5    S    
C41   H49   S    
O70   H41   S    
C10   H38   S    
C34   H22   S    
C96   H4    S    
Cr5   O25   S    
C87   O15   A    
C78   O46   A    
C89   C90   S    
Cr10  O10   S    
Cr11  O19   S    
C20   C24   A    
C14   C110  S    
Cr1   O21   S    
C8    C108  S    
C52   C56   A    
C92   C99   S    
Cr4   O4    S    
C101  O54   S    
Cr11  O35   S    
