data_str_m3_o1_o28_f0_pcu.sym.27
_audit_creation_date              2012-12-10T18:54:26-0500
_audit_creation_method            fapswitch 2.2
_symmetry_space_group_name_H-M    P1
_symmetry_Int_Tables_number       1
_space_group_crystal_system       triclinic
_cell_length_a                    10.774643
_cell_length_b                    9.802841
_cell_length_c                    23.189181
_cell_angle_alpha                 87.725552
_cell_angle_beta                  91.266028
_cell_angle_gamma                 90.215981
_cell_volume                      2446.7530143

loop_
_atom_site_label
_atom_site_type_symbol
_atom_type_description
_atom_site_fract_x
_atom_site_fract_y
_atom_site_fract_z
_atom_type_partial_charge
C1    C     C_R   0.259528 0.499902 0.499096 1.021161
C2    C     C_R   0.575816 0.420374 0.709983 0.336953
C3    C     C_R   0.459407 0.637472 0.236075 0.225102
C4    C     C_R   0.548688 0.401341 0.769197 0.319893
C5    C     C_R   0.546883 0.555125 0.209107 -0.020267
C6    C     C_R   0.449384 0.475705 0.791638 -0.040957
C7    C     C_R   0.063397 0.375562 0.486576 0.323396
C8    C     C_R   0.935267 0.622563 0.482589 0.324517
C9    C     C_R   0.935690 0.373234 0.489759 0.311130
C10   C     C_R   0.061581 0.624556 0.492563 0.332444
C11   C     C_R   0.871453 0.498277 0.489128 -0.416353
C12   C     C_R   0.739566 0.499957 0.495671 1.026068
C13   C     C_R   0.126772 0.499841 0.494067 -0.400383
C14   C     C_R   0.515216 0.067588 0.550390 -0.082422
C15   C     C_R   0.483007 0.932662 0.449811 -0.094246
C16   C     C_R   0.483196 0.076420 0.449734 -0.082300
C17   C     C_R   0.516207 0.923621 0.550349 -0.091526
C18   C     C_R   0.498243 0.502948 0.389093 1.007355
C19   C     C_R   0.500336 0.497459 0.610922 1.037588
C20   C     C_R   0.531825 0.594022 0.871947 0.703596
C21   C     C_R   0.447253 0.458131 0.127340 0.687965
C22   C     C_R   0.377135 0.422772 0.887773 0.712080
C23   C     C_R   0.618093 0.458214 0.241830 0.446943
C24   C     C_R   0.610989 0.619168 0.112308 0.723895
C25   C     C_R   0.388821 0.434733 0.947742 -0.194395
C26   C     C_R   0.590996 0.618429 0.052218 -0.173686
C27   C     C_R   0.482799 0.521390 0.969715 -0.102801
C28   C     C_R   0.502213 0.526575 0.029877 -0.106652
C29   C     C_R   0.556928 0.602599 0.931579 -0.183722
C30   C     C_R   0.432692 0.440080 0.067757 -0.214568
C31   C     C_R   0.314621 0.355482 0.985982 0.423657
C32   C     C_R   0.657256 0.706917 0.014432 0.382454
C33   C     C_R   0.347351 0.344292 0.044765 0.300489
C34   C     C_R   0.366322 0.549541 0.754714 0.497490
C35   C     C_R   0.650997 0.689375 0.954513 0.305593
C36   C     C_3   0.110494 0.368938 0.955665 0.144662
C37   C     C_3   0.034391 0.380654 0.010338 -0.403600
C38   C     C_3   0.917878 0.466072 0.998569 -0.787894
C39   C     C_3   0.664616 0.934769 0.029441 0.160741
C40   C     C_3   0.744720 0.050207 0.052649 -0.253873
C41   C     C_3   0.683404 0.188946 0.040717 -0.853570
C42   C     C_3   0.129541 0.233973 0.417618 0.148914
C43   C     C_3   0.124225 0.081257 0.406915 -0.400379
C44   C     C_3   0.117172 0.055353 0.342439 -0.734483
C45   C     C_R   0.599856 0.442566 0.300806 -0.405663
C46   C     C_3   0.871344 0.753555 0.405238 0.114180
C47   C     C_3   0.790839 0.874965 0.385301 -0.389812
C48   C     C_3   0.777352 0.886087 0.319618 -0.817423
C49   C     C_3   0.876563 0.179225 0.539632 0.131977
C50   C     C_3   0.838651 0.030891 0.531660 -0.359450
C51   C     C_3   0.823190 0.953392 0.589456 -0.823329
C52   C     C_3   0.127526 0.787333 0.553158 0.131426
C53   C     C_3   0.183463 0.930409 0.555796 -0.363802
C54   C     C_3   0.216173 0.967579 0.617556 -0.837910
C55   C     C_R   0.385092 0.552629 0.695692 -0.368753
C56   C     C_R   0.505086 0.513078 0.326566 -0.260089
C57   C     C_R   0.489283 0.491151 0.673354 -0.285132
C58   C     C_R   0.427996 0.604154 0.293679 0.352265
H1    H     H_    0.657269 0.372272 0.326780 0.210734
H2    H     H_    0.091557 0.430259 0.044031 0.265184
H3    H     H_    0.943671 0.569292 0.981490 0.318277
H4    H     H_    0.867353 0.477102 0.039323 0.287077
H5    H     H_    0.855346 0.416452 0.966934 0.253376
H6    H     H_    0.576400 0.929537 0.053540 0.195480
H7    H     H_    0.642137 0.959300 0.983110 0.179087
H8    H     H_    0.759599 0.033076 0.099970 0.274345
H9    H     H_    0.836648 0.050503 0.031791 0.243668
H10   H     H_    0.674997 0.212063 0.993499 0.267916
H11   H     H_    0.740502 0.269709 0.060581 0.290974
H12   H     H_    0.319808 0.605998 0.666710 0.203140
H13   H     H_    0.589773 0.189959 0.059574 0.298556
H14   H     H_    0.158146 0.060309 0.047100 0.386310
H15   H     H_    0.944605 0.872753 0.924884 0.395582
H16   H     H_    0.870326 0.343340 0.274663 0.355764
H17   H     H_    0.098596 0.778576 0.746206 0.407937
H18   H     H_    0.141443 0.547711 0.371109 0.352406
H19   H     H_    0.849169 0.452968 0.619142 0.354007
H20   H     H_    0.554245 0.899879 0.182583 0.380441
H21   H     H_    0.803255 0.309556 0.870050 0.373151
H22   H     H_    0.218828 0.275303 0.401285 0.194316
H23   H     H_    0.527684 0.118399 0.590627 0.180943
H24   H     H_    0.051901 0.284531 0.392176 0.139878
H25   H     H_    0.207816 0.030224 0.426440 0.248433
H26   H     H_    0.041063 0.036109 0.427632 0.245513
H27   H     H_    0.035583 0.108128 0.321820 0.265505
H28   H     H_    0.106580 0.944411 0.335983 0.300040
H29   H     H_    0.203153 0.092220 0.321236 0.291641
H30   H     H_    0.830281 0.659844 0.386547 0.120542
H31   H     H_    0.966728 0.769472 0.388557 0.177060
H32   H     H_    0.697619 0.861625 0.403813 0.236532
H33   H     H_    0.831975 0.970922 0.401087 0.235561
H34   H     H_    0.471302 0.882215 0.409588 0.191874
H35   H     H_    0.869803 0.898924 0.299826 0.287628
H36   H     H_    0.719325 0.976073 0.306726 0.293098
H37   H     H_    0.731580 0.793150 0.303124 0.252199
H38   H     H_    0.809221 0.227090 0.567973 0.217770
H39   H     H_    0.970002 0.180488 0.561257 0.151289
H40   H     H_    0.750444 0.026997 0.506208 0.246854
H41   H     H_    0.910694 0.980116 0.506929 0.251133
H42   H     H_    0.909483 0.959430 0.616233 0.259837
H43   H     H_    0.801919 0.844515 0.581904 0.285365
H44   H     H_    0.745763 0.996707 0.613446 0.288528
H45   H     H_    0.469643 0.133739 0.409358 0.164259
H46   H     H_    0.187390 0.714538 0.579155 0.147072
H47   H     H_    0.033974 0.787910 0.572498 0.150387
H48   H     H_    0.268146 0.936146 0.529695 0.251860
H49   H     H_    0.117053 0.006196 0.536686 0.240787
H50   H     H_    0.132245 0.963140 0.644482 0.278343
H51   H     H_    0.254459 0.072923 0.617523 0.267609
H52   H     H_    0.287289 0.896363 0.636605 0.282266
H53   H     H_    0.529560 0.866236 0.590711 0.172136
H54   H     H_    0.050544 0.323162 0.921913 0.214321
H55   H     H_    0.136898 0.472609 0.938288 0.163637
H56   H     H_    0.006943 0.277109 0.026788 0.255851
N1    N     N_R   0.450232 0.499306 0.852048 -0.330733
N2    N     N_R   0.536931 0.543162 0.147922 -0.325750
N3    N     N_R   0.500000 0.857200 0.500000 -0.088191
N4    N     N_R   0.500000 0.142800 0.500000 -0.083774
O1    O     O_R   0.316770 0.614620 0.500000 -0.571071
O2    O     O_2   0.369265 0.396864 0.165003 -0.437186
O3    O     O_2   0.298605 0.330811 0.864964 -0.444215
O4    O     O_2   0.702739 0.695113 0.135403 -0.465864
O5    O     O_3   0.213834 0.281264 0.965907 -0.560081
O6    O     O_3   0.730206 0.810136 0.036408 -0.540814
O7    O     O_2   0.390684 0.144520 0.126455 -0.173000
O8    O     O_2   0.181191 0.239997 0.119950 -0.248142
O9    O     O_3   0.248532 0.073019 0.041960 -0.465856
O10   O     O_2   0.819826 0.669102 0.870866 -0.198281
O11   O     O_2   0.714243 0.889315 0.877445 -0.201636
O12   O     O_R   0.683230 0.385380 0.500000 -0.581847
O13   O     O_3   0.888026 0.826112 0.952447 -0.534223
O14   O     O_2   0.650965 0.240681 0.178589 -0.255933
O15   O     O_2   0.802161 0.425571 0.166667 -0.275243
O16   O     O_3   0.816434 0.269898 0.259823 -0.539622
O17   O     O_2   0.149276 0.542998 0.808553 -0.243496
O18   O     O_2   0.286570 0.737292 0.826291 -0.265650
O19   O     O_3   0.167871 0.732151 0.727674 -0.574911
O20   O     O_2   0.296803 0.784127 0.352074 -0.310431
O21   O     O_2   0.186235 0.670079 0.273884 -0.218510
O22   O     O_3   0.231781 0.531378 0.368504 -0.620042
O23   O     O_R   0.683230 0.614620 0.500000 -0.573942
O24   O     O_2   0.823000 0.384511 0.727944 -0.176095
O25   O     O_2   0.713253 0.226334 0.665247 -0.328741
O26   O     O_3   0.760393 0.472222 0.625405 -0.606289
O27   O     O_2   0.287670 0.725339 0.157625 -0.188540
O28   O     O_2   0.336646 0.880527 0.235159 -0.195455
O29   O     O_3   0.494950 0.858881 0.154921 -0.522323
O30   O     O_2   0.559983 0.229375 0.864098 -0.293443
O31   O     O_2   0.689894 0.172928 0.784294 -0.165463
O32   O     O_3   0.755492 0.377747 0.846080 -0.493206
O33   O     O_3   0.124415 0.254123 0.477714 -0.611927
O34   O     O_R   0.316770 0.385380 0.500000 -0.587375
O35   O     O_3   0.875042 0.742772 0.466291 -0.606838
O36   O     O_3   0.874755 0.249293 0.485151 -0.606654
O37   O     O_3   0.120514 0.749914 0.494912 -0.581978
O38   O     O_R   0.499970 0.614690 0.416160 -0.614993
O39   O     O_R   0.500030 0.385310 0.583840 -0.614081
O40   O     O_R   0.500030 0.614690 0.583840 -0.635185
O41   O     O_R   0.499970 0.385310 0.416160 -0.637760
O42   O     O_2   0.585506 0.680236 0.833273 -0.425395
S1    S     S_3+6 0.290933 0.199219 0.085612 0.119402
S2    S     S_3+6 0.769059 0.769635 0.911541 0.085334
S3    S     S_3+6 0.723517 0.347791 0.209483 0.049146
S4    S     S_3+6 0.240193 0.641559 0.781527 0.068265
S5    S     S_3+6 0.282357 0.652703 0.321581 0.062732
S6    S     S_3+6 0.721943 0.371875 0.682732 0.069560
S7    S     S_3+6 0.389625 0.777734 0.196154 0.127440
S8    S     S_3+6 0.638098 0.289101 0.816519 0.111948
Zn1   Zn    Zn3+2 0.500000 0.653120 0.500000 1.002855
Zn2   Zn    Zn3+2 0.500000 0.346880 0.500000 0.995529

loop_
_geom_bond_atom_site_label_1
_geom_bond_atom_site_label_2
_ccdc_geom_bond_type
C25   C31   A    
O28   S7    D    
H15   O13   S    
C42   H22   S    
C23   C45   A    
C48   H37   S    
C27   C29   A    
C43   H25   S    
O17   S4    D    
C32   O6    S    
C2    C4    A    
C42   H24   S    
C2    C57   A    
C3    S7    S    
C46   H31   S    
C53   C54   S    
C19   C57   S    
C52   O37   S    
C26   C32   A    
C39   H6    S    
C50   H41   S    
C48   H36   S    
O20   S5    D    
C36   C37   S    
O41   Zn2   S    
C24   C26   A    
C21   O2    S    
C34   S4    S    
O18   S4    D    
N4    Zn2   S    
C15   C16   A    
C17   H53   S    
O38   Zn1   S    
O22   S5    S    
O16   S3    S    
C54   H52   S    
C1    O34   A    
C1    O1    A    
O21   S5    D    
C58   S5    S    
C18   O41   A    
C15   H34   S    
C53   H48   S    
C52   H46   S    
C45   C56   A    
C4    S8    S    
C14   N4    A    
C22   C25   A    
C36   H54   S    
C31   C33   A    
O8    S1    D    
C2    S6    S    
C46   H30   S    
C18   C56   S    
C41   H13   S    
C38   H3    S    
C34   C55   A    
O9    S1    S    
C40   H8    S    
C43   H26   S    
C39   H7    S    
C14   C17   A    
O31   S8    D    
C21   N2    A    
C44   H28   S    
C36   H55   S    
O15   S3    D    
C24   O4    S    
O19   S4    S    
C41   H10   S    
C23   S3    S    
C20   C29   A    
H18   O22   S    
C50   H40   S    
C35   S2    S    
C48   H35   S    
H14   O9    S    
C19   O39   A    
C32   C35   A    
C49   O36   S    
C36   O5    S    
C4    C6    A    
H17   O19   S    
C39   C40   S    
C37   H56   S    
O13   S2    S    
C40   H9    S    
C39   O6    S    
C6    C34   A    
C54   H51   S    
O26   S6    S    
C51   H44   S    
C33   S1    S    
C43   C44   S    
O25   S6    D    
C22   N1    A    
C37   C38   S    
C42   O33   S    
C16   N4    A    
O39   Zn2   S    
O24   S6    D    
O34   Zn2   S    
C53   H49   S    
C16   H45   S    
C47   C48   S    
C5    C23   A    
O32   S8    S    
O10   S2    D    
C50   C51   S    
C8    O35   S    
C9    C11   A    
C12   O12   A    
H20   O29   S    
O1    Zn1   S    
H21   O32   S    
C7    O33   S    
C40   C41   S    
C52   H47   S    
C24   N2    A    
C55   C57   A    
C5    N2    S    
O30   S8    D    
C47   H32   S    
C1    C13   S    
C42   C43   S    
C44   H27   S    
C44   H29   S    
C18   O38   A    
C52   C53   S    
C22   O3    S    
C41   H11   S    
C38   H5    S    
O27   S7    D    
C51   H42   S    
C7    C9    A    
C46   O35   S    
C46   C47   S    
C45   H1    S    
C30   C33   A    
O23   Zn1   S    
C19   O40   A    
C47   H33   S    
O7    S1    D    
C3    C5    A    
C10   C13   A    
C10   O37   S    
C9    O36   S    
C20   N1    A    
C11   C12   S    
O40   Zn1   S    
C55   H12   S    
C17   N3    A    
C25   C27   A    
C21   C30   A    
C29   C35   A    
C26   C28   A    
C54   H50   S    
C15   N3    A    
C28   C30   A    
C12   O23   A    
H19   O26   S    
C31   O5    S    
O29   S7    S    
O12   Zn2   S    
C8    C11   A    
H16   O16   S    
C56   C58   A    
O11   S2    D    
C49   H38   S    
C6    N1    S    
O14   S3    D    
C37   H2    S    
C49   H39   S    
C3    C58   A    
N3    Zn1   S    
C7    C13   A    
C8    C10   A    
C49   C50   S    
C20   O42   S    
C27   C28   A    
C14   H23   S    
C51   H43   S    
C38   H4    S    
