data_str_m3_o10_o29_f0_pcu.sym.155
_audit_creation_date              2012-12-10T16:59:14-0500
_audit_creation_method            fapswitch 2.2
_symmetry_space_group_name_H-M    P1
_symmetry_Int_Tables_number       1
_space_group_crystal_system       triclinic
_cell_length_a                    7.917148
_cell_length_b                    8.554189
_cell_length_c                    27.182734
_cell_angle_alpha                 93.089447
_cell_angle_beta                  85.790215
_cell_angle_gamma                 93.220054
_cell_volume                      1830.78762185

loop_
_atom_site_label
_atom_site_type_symbol
_atom_type_description
_atom_site_fract_x
_atom_site_fract_y
_atom_site_fract_z
_atom_type_partial_charge
C1    C     C_R   0.544740 0.793950 0.499114 0.956416
C2    C     C_R   0.491749 0.748775 0.129432 -0.117402
C3    C     C_R   0.512778 0.482639 0.648524 -0.094908
C4    C     C_R   0.492589 0.534613 0.352995 -0.084276
C5    C     C_R   0.570440 0.692852 0.026513 -0.030596
C6    C     C_R   0.407881 0.425032 0.976762 -0.022920
C7    C     C_R   0.373126 0.456546 0.028126 0.093828
C8    C     C_R   0.601386 0.662252 0.974646 0.089381
C9    C     C_R   0.449705 0.591809 0.052415 0.023147
C10   C     C_R   0.531424 0.522639 0.951186 0.019652
C11   C     C_R   0.657498 0.817019 0.054448 0.159939
C12   C     C_R   0.455342 0.206057 0.500624 0.960020
C13   C     C_R   0.324488 0.298897 0.949343 0.159349
C14   C     C_R   0.587272 0.862880 0.102011 0.126067
C15   C     C_R   0.408133 0.239524 0.905394 0.120984
C16   C     C_R   0.501914 0.498159 0.594536 0.852377
C17   C     C_R   0.498530 0.503361 0.405747 0.865124
C18   C     C_R   0.687465 0.773613 0.944278 -0.225639
C19   C     C_R   0.277896 0.346788 0.057092 -0.232797
C20   C     C_2   0.567895 0.957729 0.500537 -0.378694
C21   C     C_2   0.432633 0.042290 0.498684 -0.387175
C22   C     C_R   0.697334 0.571329 0.821101 0.506561
C23   C     C_R   0.573737 0.488033 0.900270 -0.085065
C24   C     C_R   0.309539 0.516231 0.182776 0.479556
C25   C     C_R   0.535148 0.328665 0.824892 0.503934
C26   C     C_R   0.487973 0.749786 0.181613 0.519502
C27   C     C_R   0.678473 0.384102 0.711132 -0.155146
C28   C     C_R   0.353227 0.678260 0.294391 -0.156871
C29   C     C_R   0.647880 0.397656 0.662125 -0.281227
C30   C     C_R   0.376782 0.644673 0.342393 -0.274154
C31   C     C_R   0.400693 0.550191 0.686338 0.110752
C32   C     C_R   0.593409 0.460494 0.313835 0.114942
C33   C     C_R   0.435592 0.539241 0.736763 0.168732
C34   C     C_R   0.417561 0.616659 0.104217 -0.079757
C35   C     C_R   0.569816 0.497111 0.264283 0.176682
C36   C     C_R   0.577226 0.457231 0.748246 0.279648
C37   C     C_R   0.445832 0.604218 0.255516 0.278630
C38   C     C_3   0.239997 0.624033 0.674215 -0.396209
C39   C     C_3   0.092675 0.501002 0.674414 -0.832343
C40   C     C_3   0.715390 0.337132 0.324509 -0.428565
C41   C     C_3   0.620186 0.181507 0.335976 -0.833649
C42   C     C_3   0.020782 0.371797 0.443385 -0.139118
C43   C     C_3   0.924488 0.215435 0.434227 -0.898788
C44   C     C_3   0.980062 0.637770 0.554563 -0.148789
C45   C     C_R   0.673762 0.597552 0.872260 0.000037
C46   C     C_3   0.065717 0.801093 0.557558 -0.879834
C47   C     C_3   0.322394 0.613274 0.778597 -0.449499
C48   C     C_3   0.367041 0.788254 0.786732 -0.776954
C49   C     C_3   0.673840 0.423296 0.220458 -0.444092
C50   C     C_3   0.843579 0.514096 0.211250 -0.796602
C51   C     C_3   0.617459 0.030241 0.123689 -0.344647
C52   C     C_3   0.617854 0.156100 0.085612 -0.927369
C53   C     C_3   0.373886 0.069611 0.887180 -0.343075
C54   C     C_3   0.334952 0.953377 0.928082 -0.943366
C55   C     C_3   0.842054 0.876861 0.042265 -0.396351
C56   C     C_R   0.316547 0.505201 0.131331 -0.004359
C57   C     C_3   0.962461 0.746036 0.029471 -0.890092
C58   C     C_3   0.132797 0.257387 0.955706 -0.398049
C59   C     C_3   0.026477 0.399756 0.965430 -0.888035
C60   C     C_R   0.728973 0.739944 0.894621 -0.180349
C61   C     C_R   0.244097 0.373410 0.107200 -0.182585
C62   C     C_R   0.512243 0.346177 0.877025 -0.127341
H1    H     H_    0.110214 0.414729 0.642706 0.263245
H2    H     H_    0.794297 0.379294 0.354729 0.228547
H3    H     H_    0.922412 0.145374 0.467440 0.253814
H4    H     H_    0.794553 0.231566 0.424195 0.302941
H5    H     H_    0.989878 0.148853 0.402878 0.223929
H6    H     H_    0.020767 0.444009 0.410647 0.164716
H7    H     H_    0.147439 0.337068 0.447797 0.239684
H8    H     H_    0.194658 0.798723 0.570285 0.278705
H9    H     H_    0.067501 0.853915 0.521137 0.254749
H10   H     H_    0.992506 0.876485 0.585001 0.220732
H11   H     H_    0.849584 0.660533 0.551783 0.242253
H12   H     H_    0.082735 0.436141 0.708855 0.255157
H13   H     H_    0.991377 0.578357 0.588908 0.173309
H14   H     H_    0.385565 0.848485 0.751465 0.267229
H15   H     H_    0.262262 0.842167 0.809727 0.254969
H16   H     H_    0.485086 0.806856 0.806225 0.274693
H17   H     H_    0.186573 0.594704 0.771533 0.241216
H18   H     H_    0.330943 0.557273 0.814046 0.204821
H19   H     H_    0.823049 0.636241 0.202156 0.272781
H20   H     H_    0.918648 0.517388 0.244219 0.277778
H21   H     H_    0.916425 0.457109 0.179418 0.268788
H22   H     H_    0.691785 0.297550 0.225271 0.229635
H23   H     H_    0.972470 0.560060 0.672308 0.258509
H24   H     H_    0.608623 0.421293 0.185879 0.206743
H25   H     H_    0.795294 0.830527 0.873166 0.186377
H26   H     H_    0.172607 0.282956 0.127507 0.189747
H27   H     H_    0.301513 0.704842 0.371695 0.177392
H28   H     H_    0.732276 0.340527 0.634459 0.181640
H29   H     H_    0.259502 0.760105 0.287198 0.156499
H30   H     H_    0.783484 0.318080 0.720389 0.158622
H31   H     H_    0.743381 0.170915 0.065103 0.252933
H32   H     H_    0.519720 0.125777 0.059065 0.267975
H33   H     H_    0.591545 0.270933 0.104749 0.267419
H34   H     H_    0.205470 0.721427 0.700761 0.224119
H35   H     H_    0.512038 0.057361 0.151598 0.248668
H36   H     H_    0.737698 0.041842 0.142536 0.226942
H37   H     H_    0.415099 0.982290 0.959511 0.266292
H38   H     H_    0.199391 0.951398 0.941495 0.256418
H39   H     H_    0.359657 0.832946 0.912983 0.274898
H40   H     H_    0.267708 0.062660 0.862557 0.230242
H41   H     H_    0.490214 0.029372 0.866020 0.245050
H42   H     H_    0.095948 0.793476 0.030028 0.252927
H43   H     H_    0.941245 0.653836 0.056858 0.269852
H44   H     H_    0.944321 0.695986 0.991876 0.280752
H45   H     H_    0.256318 0.682487 0.638992 0.212450
H46   H     H_    0.856275 0.965947 0.014166 0.184691
H47   H     H_    0.893699 0.939250 0.075199 0.218095
H48   H     H_    0.036839 0.445487 0.003882 0.277187
H49   H     H_    0.068612 0.491675 0.939176 0.269992
H50   H     H_    0.890830 0.365720 0.960781 0.255486
H51   H     H_    0.088553 0.200409 0.920908 0.219209
H52   H     H_    0.097613 0.170335 0.983752 0.188690
H53   H     H_    0.711577 0.892722 0.957115 0.155716
H54   H     H_    0.241234 0.231806 0.042765 0.152696
H55   H     H_    0.695270 0.008201 0.504455 0.177625
H56   H     H_    0.533069 0.194605 0.369668 0.239194
H57   H     H_    0.305529 0.991875 0.494612 0.177447
H58   H     H_    0.545677 0.138704 0.304412 0.283328
H59   H     H_    0.712229 0.092513 0.342157 0.257079
H60   H     H_    0.811489 0.314595 0.293794 0.231483
N1    N     N_R   0.615570 0.445970 0.798591 -0.334819
N2    N     N_R   0.405556 0.629847 0.206243 -0.334209
N3    N     N_2   0.950320 0.457960 0.486880 -0.029951
N4    N     N_2   0.049680 0.542040 0.513120 -0.030681
O1    O     O_R   0.389250 0.738570 0.503220 -0.608013
O2    O     O_2   0.221263 0.405710 0.209203 -0.592280
O3    O     O_2   0.577633 0.860624 0.207370 -0.601148
O4    O     O_2   0.463995 0.204389 0.799971 -0.594560
O5    O     O_R   0.610750 0.261430 0.496780 -0.605730
O6    O     O_R   0.678390 0.711630 0.494810 -0.642156
O7    O     O_R   0.321610 0.288370 0.505190 -0.643587
O8    O     O_R   0.355440 0.513440 0.575450 -0.605814
O9    O     O_R   0.644560 0.486560 0.424550 -0.614837
O10   O     O_R   0.644590 0.486500 0.567040 -0.654816
O11   O     O_R   0.355410 0.513500 0.432960 -0.655092
O12   O     O_2   0.790955 0.675617 0.793541 -0.583562
Zn1   Zn    Zn3+2 0.306940 0.517990 0.505620 0.924241
Zn2   Zn    Zn3+2 0.693060 0.482010 0.494380 0.924364

loop_
_geom_bond_atom_site_label_1
_geom_bond_atom_site_label_2
_ccdc_geom_bond_type
C51   H35   S    
C57   H43   S    
C45   C60   A    
C34   C56   A    
C23   C45   A    
C12   O5    A    
C27   C29   A    
C48   H14   S    
C54   H39   S    
C40   H60   S    
C47   H17   S    
O10   Zn2   S    
C1    O6    A    
C16   O8    A    
C59   H48   S    
C22   N1    A    
C53   C54   S    
O11   Zn1   S    
C44   N4    S    
O1    Zn1   S    
C15   C53   S    
C49   H22   S    
C35   C37   A    
C53   H41   S    
C5    C11   A    
C38   C39   S    
C11   C14   A    
C41   H59   S    
C24   N2    A    
C33   C36   A    
C52   H33   S    
C39   H12   S    
C48   H16   S    
C38   H45   S    
C3    C29   A    
C29   H28   S    
O5    Zn2   S    
C42   N3    S    
C23   C62   A    
C14   C51   S    
C28   C37   A    
C35   C49   S    
C58   H51   S    
C59   H49   S    
C31   C33   A    
C52   H32   S    
C41   H56   S    
C46   H10   S    
C2    C34   A    
C51   H36   S    
C57   H44   S    
C55   H47   S    
C42   H6    S    
C54   H38   S    
C26   N2    A    
C47   H18   S    
C30   H27   S    
C25   O4    S    
C20   H55   S    
C60   H25   S    
C44   C46   S    
C50   H21   S    
N3    Zn2   S    
O9    Zn2   S    
N4    Zn1   S    
C51   C52   S    
C32   C35   A    
C52   H31   S    
C36   N1    S    
O8    Zn1   S    
C13   C58   S    
C58   C59   S    
C12   C21   S    
C42   H7    S    
C8    C18   A    
C48   H15   S    
C44   H13   S    
C5    C9    A    
C61   H26   S    
C37   N2    S    
C47   C48   S    
C53   H40   S    
C43   H3    S    
C59   H50   S    
C27   H30   S    
C2    C26   A    
C3    C31   A    
C25   N1    A    
C46   H9    S    
C4    C32   A    
C26   O3    S    
C17   O9    A    
C18   C60   A    
C40   C41   S    
O7    Zn1   S    
C7    C19   A    
C12   O7    A    
C55   C57   S    
N3    N4    D    
C33   C47   S    
C54   H37   S    
C24   C56   A    
C42   C43   S    
C4    C17   S    
C16   O10   A    
C11   C55   S    
C50   H20   S    
C24   O2    S    
C7    C9    A    
C57   H42   S    
C1    C20   S    
C49   H24   S    
C8    C10   A    
C1    O1    A    
C18   H53   S    
C6    C10   A    
C5    C8    A    
C6    C7    A    
C10   C23   A    
O6    Zn2   S    
C39   H1    S    
C22   O12   S    
C40   H2    S    
C31   C38   S    
C55   H46   S    
C27   C36   A    
C13   C15   A    
C21   H57   S    
C6    C13   A    
C9    C34   A    
C19   H54   S    
C19   C61   A    
C43   H4    S    
C28   C30   A    
C15   C62   A    
C28   H29   S    
C25   C62   A    
C32   C40   S    
C41   H58   S    
C44   H11   S    
C2    C14   A    
C46   H8    S    
C22   C45   A    
C20   C21   D    
C43   H5    S    
C49   C50   S    
C38   H34   S    
C58   H52   S    
C39   H23   S    
C56   C61   A    
C17   O11   A    
C4    C30   A    
C3    C16   S    
C50   H19   S    
