data_str_m3_o22_o22_f0_pcu.sym.66
_audit_creation_date              2012-12-10T19:09:32-0500
_audit_creation_method            fapswitch 2.2
_symmetry_space_group_name_H-M    P1
_symmetry_Int_Tables_number       1
_space_group_crystal_system       monoclinic
_cell_length_a                    15.452004
_cell_length_b                    14.768392
_cell_length_c                    9.845097
_cell_angle_alpha                 89.462998
_cell_angle_beta                  90.0
_cell_angle_gamma                 90.0
_cell_volume                      2246.56478803

loop_
_atom_site_label
_atom_site_type_symbol
_atom_type_description
_atom_site_fract_x
_atom_site_fract_y
_atom_site_fract_z
_atom_type_partial_charge
C1    C     C_R   0.120427 0.378667 0.500440 0.840861
C2    C     C_R   0.878855 0.621103 0.500002 0.844630
C3    C     C_R   0.378855 0.878897 0.499998 0.844647
C4    C     C_R   0.378856 0.121104 0.500002 0.844640
C5    C     C_3   0.850231 0.212950 0.479324 -0.005083
C6    C     C_3   0.747561 0.326939 0.375290 0.013402
C7    C     C_3   0.850233 0.787048 0.520690 -0.005077
C8    C     C_3   0.747553 0.673053 0.624694 0.013391
C9    C     C_3   0.350230 0.712949 0.479325 -0.005086
C10   C     C_3   0.247560 0.826940 0.375291 0.013397
C11   C     C_3   0.350233 0.287050 0.520679 -0.005077
C12   C     C_R   0.120425 0.621334 0.499560 0.840859
C13   C     C_3   0.247559 0.173059 0.624704 0.013399
C14   C     C_3   0.277804 0.641227 0.495130 -0.406579
C15   C     C_3   0.180007 0.750818 0.370852 -0.424044
C16   C     C_3   0.277806 0.358774 0.504888 -0.406579
C17   C     C_3   0.180003 0.249179 0.629141 -0.424044
C18   C     C_3   0.777805 0.141227 0.495127 -0.406580
C19   C     C_3   0.680007 0.250817 0.370852 -0.424042
C20   C     C_3   0.777808 0.858774 0.504914 -0.406597
C21   C     C_3   0.679997 0.749171 0.629130 -0.424051
C22   C     C_3   0.758582 0.312794 0.634008 -0.386717
C23   C     C_R   0.620428 0.878668 0.500440 0.840859
C24   C     C_3   0.758591 0.687214 0.365982 -0.386724
C25   C     C_3   0.258581 0.812795 0.634009 -0.386719
C26   C     C_3   0.258585 0.187208 0.365988 -0.386714
C27   C     C_3   0.810491 0.310008 0.498719 0.166382
C28   C     C_3   0.810492 0.689992 0.501278 0.166393
C29   C     C_3   0.310491 0.810008 0.498720 0.166384
C30   C     C_3   0.310492 0.189993 0.501279 0.166383
C31   C     C_3   0.188782 0.689034 0.498411 0.126465
C32   C     C_3   0.188785 0.310968 0.501590 0.126458
C33   C     C_3   0.688783 0.189033 0.498410 0.126462
C34   C     C_R   0.620426 0.121334 0.499560 0.840859
C35   C     C_3   0.688786 0.810969 0.501590 0.126463
C36   C     C_3   0.182523 0.747649 0.628028 -0.424601
C37   C     C_3   0.182531 0.252360 0.371964 -0.424580
C38   C     C_3   0.682524 0.247648 0.628028 -0.424600
C39   C     C_3   0.682541 0.752371 0.371952 -0.424554
C40   C     C_3   0.043256 0.417722 0.082886 0.109172
C41   C     C_3   0.043793 0.418095 0.919895 0.096975
C42   C     C_3   0.043255 0.582279 0.917113 0.109170
C43   C     C_3   0.043793 0.581905 0.080105 0.096971
C44   C     C_3   0.543256 0.917722 0.082887 0.109175
C45   C     C_3   0.909349 0.500394 0.080349 -0.245998
C46   C     C_3   0.543794 0.918095 0.919895 0.096971
C47   C     C_3   0.543255 0.082279 0.917113 0.109172
C48   C     C_3   0.543793 0.081905 0.080105 0.096974
C49   C     C_3   0.927357 0.190210 0.571879 -0.984461
C50   C     C_3   0.702958 0.419770 0.374821 -0.978776
C51   C     C_3   0.927352 0.809797 0.428126 -0.984431
C52   C     C_3   0.702953 0.580224 0.625144 -0.978807
C53   C     C_3   0.427356 0.690209 0.571880 -0.984484
C54   C     C_3   0.202958 0.919770 0.374823 -0.978776
C55   C     C_3   0.427355 0.309793 0.428117 -0.984447
C56   C     C_3   0.909349 0.499605 0.919651 -0.245995
C57   C     C_3   0.202959 0.080228 0.625168 -0.978783
C58   C     C_3   0.007532 0.327246 0.144638 -0.832501
C59   C     C_3   0.009352 0.327643 0.859976 -0.833588
C60   C     C_3   0.007530 0.672754 0.855362 -0.832504
C61   C     C_3   0.009350 0.672357 0.140024 -0.833576
C62   C     C_3   0.507533 0.827246 0.144639 -0.832498
C63   C     C_3   0.509352 0.827643 0.859977 -0.833590
C64   C     C_3   0.507530 0.172754 0.855362 -0.832504
C65   C     C_3   0.509350 0.172357 0.140024 -0.833585
C66   C     C_3   0.409349 0.000394 0.080349 -0.245999
C67   C     C_3   0.409349 0.999605 0.919651 -0.245995
C68   C     C_R   0.878855 0.378897 0.499998 0.844645
H1    H     H_    0.875514 0.208804 0.373491 0.139833
H2    H     H_    0.190720 0.710394 0.277361 0.158223
H3    H     H_    0.440452 0.187732 0.887174 0.209699
H4    H     H_    0.549817 0.230027 0.884694 0.199289
H5    H     H_    0.505846 0.173165 0.249967 0.289260
H6    H     H_    0.553402 0.228936 0.112443 0.201792
H7    H     H_    0.443035 0.189368 0.106254 0.213181
H8    H     H_    0.281027 0.406854 0.591235 0.136684
H9    H     H_    0.190709 0.289598 0.722639 0.158225
H10   H     H_    0.781029 0.093138 0.408793 0.136681
H11   H     H_    0.690720 0.210394 0.277359 0.158223
H12   H     H_    0.781025 0.906840 0.591277 0.136689
H13   H     H_    0.690696 0.789583 0.722636 0.158228
H14   H     H_    0.286157 0.600580 0.590151 0.182588
H15   H     H_    0.113518 0.778642 0.363296 0.186948
H16   H     H_    0.286161 0.399434 0.409878 0.182577
H17   H     H_    0.785442 0.323707 0.279069 0.146915
H18   H     H_    0.113515 0.221352 0.636684 0.186952
H19   H     H_    0.786158 0.100578 0.590147 0.182586
H20   H     H_    0.613518 0.278642 0.363297 0.186949
H21   H     H_    0.786167 0.899449 0.409921 0.182570
H22   H     H_    0.613509 0.721344 0.636658 0.186954
H23   H     H_    0.800651 0.294255 0.721542 0.175565
H24   H     H_    0.733790 0.381438 0.655060 0.169874
H25   H     H_    0.800668 0.705749 0.278456 0.175571
H26   H     H_    0.733794 0.618574 0.344926 0.169874
H27   H     H_    0.300650 0.794255 0.721543 0.175566
H28   H     H_    0.875523 0.791181 0.626519 0.139829
H29   H     H_    0.233790 0.881439 0.655059 0.169873
H30   H     H_    0.300657 0.205743 0.278455 0.175565
H31   H     H_    0.233790 0.118566 0.344940 0.169872
H32   H     H_    0.183958 0.704921 0.721730 0.185627
H33   H     H_    0.120560 0.786180 0.627738 0.169691
H34   H     H_    0.183977 0.295094 0.278268 0.185624
H35   H     H_    0.120565 0.213833 0.372237 0.169682
H36   H     H_    0.683961 0.204920 0.721729 0.185627
H37   H     H_    0.620561 0.286179 0.627739 0.169688
H38   H     H_    0.683998 0.795112 0.278263 0.185619
H39   H     H_    0.785427 0.676282 0.720920 0.146924
H40   H     H_    0.620573 0.713848 0.372204 0.169679
H41   H     H_    0.112095 0.419978 0.116167 0.096918
H42   H     H_    0.112788 0.421140 0.887370 0.097927
H43   H     H_    0.112094 0.580024 0.883833 0.096919
H44   H     H_    0.112788 0.578861 0.112630 0.097928
H45   H     H_    0.612096 0.919978 0.116167 0.096915
H46   H     H_    0.612788 0.921140 0.887370 0.097928
H47   H     H_    0.612095 0.080024 0.883833 0.096918
H48   H     H_    0.612788 0.078861 0.112630 0.097927
H49   H     H_    0.871420 0.442163 0.119784 0.157418
H50   H     H_    0.375512 0.708803 0.373492 0.139837
H51   H     H_    0.872341 0.440296 0.883238 0.154550
H52   H     H_    0.871419 0.557836 0.880216 0.157414
H53   H     H_    0.872341 0.559702 0.116762 0.154551
H54   H     H_    0.371420 0.942162 0.119784 0.157417
H55   H     H_    0.372341 0.940296 0.883238 0.154550
H56   H     H_    0.371419 0.057836 0.880216 0.157416
H57   H     H_    0.372341 0.059702 0.116762 0.154551
H58   H     H_    0.950957 0.120689 0.550706 0.250132
H59   H     H_    0.981069 0.237537 0.549584 0.226773
H60   H     H_    0.909656 0.193886 0.680807 0.256705
H61   H     H_    0.285440 0.823708 0.279070 0.146917
H62   H     H_    0.667590 0.430188 0.277679 0.241454
H63   H     H_    0.655735 0.424759 0.459253 0.262125
H64   H     H_    0.751880 0.473797 0.383096 0.253312
H65   H     H_    0.950970 0.879305 0.449344 0.250121
H66   H     H_    0.981058 0.762447 0.450361 0.226774
H67   H     H_    0.909632 0.806164 0.319200 0.256702
H68   H     H_    0.667576 0.569801 0.722276 0.241464
H69   H     H_    0.655740 0.575235 0.540701 0.262128
H70   H     H_    0.751878 0.526199 0.616876 0.253310
H71   H     H_    0.450954 0.620688 0.550710 0.250137
H72   H     H_    0.375520 0.291191 0.626510 0.139827
H73   H     H_    0.481067 0.737535 0.549582 0.226778
H74   H     H_    0.409655 0.693887 0.680805 0.256710
H75   H     H_    0.167586 0.930187 0.277684 0.241455
H76   H     H_    0.155739 0.924762 0.459260 0.262122
H77   H     H_    0.251881 0.973796 0.383091 0.253310
H78   H     H_    0.450961 0.379310 0.449303 0.250128
H79   H     H_    0.481066 0.262459 0.450392 0.226772
H80   H     H_    0.409646 0.306130 0.319190 0.256704
H81   H     H_    0.167588 0.069808 0.722307 0.241456
H82   H     H_    0.155740 0.075236 0.540731 0.262121
H83   H     H_    0.285438 0.176292 0.720927 0.146917
H84   H     H_    0.251884 0.026203 0.616898 0.253312
H85   H     H_    0.005839 0.324074 0.255095 0.278676
H86   H     H_    0.940454 0.312267 0.112825 0.209697
H87   H     H_    0.049820 0.269973 0.115307 0.199289
H88   H     H_    0.005848 0.326835 0.750033 0.289263
H89   H     H_    0.053404 0.271064 0.887557 0.201792
H90   H     H_    0.943037 0.310631 0.893745 0.213179
H91   H     H_    0.005839 0.675926 0.744904 0.278677
H92   H     H_    0.940451 0.687732 0.887173 0.209698
H93   H     H_    0.049817 0.730028 0.884695 0.199289
H94   H     H_    0.281028 0.593137 0.408797 0.136683
H95   H     H_    0.005846 0.673165 0.249967 0.289256
H96   H     H_    0.053403 0.728936 0.112444 0.201790
H97   H     H_    0.943035 0.689369 0.106254 0.213182
H98   H     H_    0.505839 0.824074 0.255096 0.278677
H99   H     H_    0.440455 0.812266 0.112824 0.209697
H100  H     H_    0.549822 0.769974 0.115308 0.199290
H101  H     H_    0.505848 0.826836 0.750033 0.289266
H102  H     H_    0.553404 0.771064 0.887557 0.201793
H103  H     H_    0.443036 0.810632 0.893746 0.213179
H104  H     H_    0.505838 0.175926 0.744904 0.278676
N1    N     N_3   0.998760 0.500000 0.138610 -0.061899
N2    N     N_3   0.998760 0.500000 0.861390 -0.061898
N3    N     N_3   0.498760 0.000000 0.138610 -0.061899
N4    N     N_3   0.498760 0.000000 0.861390 -0.061898
O1    O     O_R   0.092530 0.407440 0.616040 -0.637282
O2    O     O_R   0.907330 0.407420 0.383960 -0.641835
O3    O     O_R   0.907330 0.592580 0.383960 -0.628386
O4    O     O_R   0.907330 0.592580 0.616040 -0.641835
O5    O     O_R   0.407330 0.907420 0.616040 -0.628381
O6    O     O_R   0.407330 0.907420 0.383960 -0.641837
O7    O     O_R   0.407330 0.092580 0.383960 -0.628383
O8    O     O_R   0.407330 0.092580 0.616040 -0.641836
O9    O     O_R   0.092530 0.407440 0.383960 -0.637356
O10   O     O_R   0.092530 0.592560 0.383960 -0.637286
O11   O     O_R   0.092530 0.592560 0.616040 -0.637356
O12   O     O_R   0.592530 0.907440 0.616040 -0.637282
O13   O     O_R   0.592530 0.907440 0.383960 -0.637356
O14   O     O_R   0.592530 0.092560 0.383960 -0.637284
O15   O     O_R   0.592530 0.092560 0.616040 -0.637356
O16   O     O_R   0.907330 0.407420 0.616040 -0.628380
Zn1   Zn    Zn3+2 0.999890 0.500000 0.654960 0.890056
Zn2   Zn    Zn3+2 0.999890 0.500000 0.345040 0.890054
Zn3   Zn    Zn3+2 0.499890 0.000000 0.654960 0.890055
Zn4   Zn    Zn3+2 0.499890 0.000000 0.345040 0.890054

loop_
_geom_bond_atom_site_label_1
_geom_bond_atom_site_label_2
_ccdc_geom_bond_type
C39   H38   S    
C62   H100  S    
C41   N2    S    
C64   H104  S    
C61   H96   S    
C7    H28   S    
C54   H76   S    
C10   C29   S    
C44   N3    S    
C14   C31   S    
C9    C14   S    
C67   H56   S    
C2    O3    A    
C47   H47   S    
C6    C19   S    
O2    Zn2   S    
C51   H65   S    
C6    H17   S    
O1    Zn1   S    
C11   C30   S    
C34   O15   A    
C24   H26   S    
C10   C15   S    
C40   N1    S    
C59   H90   S    
C63   H101  S    
C13   C57   S    
C68   O16   A    
C22   C38   S    
C57   H84   S    
C16   H16   S    
C24   C39   S    
C65   H5    S    
C53   H74   S    
C64   H3    S    
C3    C29   S    
C38   H36   S    
C27   C68   S    
C50   H62   S    
C5    C27   S    
C20   C35   S    
C1    O1    A    
C47   C48   S    
C45   C56   S    
C57   H81   S    
C52   H70   S    
C22   H23   S    
C66   H54   S    
C11   H72   S    
C48   C65   S    
C58   H86   S    
O9    Zn2   S    
C53   H73   S    
C47   N4    S    
O14   Zn4   S    
C26   H31   S    
C48   H48   S    
C48   N3    S    
C62   H99   S    
C4    O7    A    
C16   H8    S    
O11   Zn1   S    
C9    H50   S    
C56   H52   S    
C5    C49   S    
C2    O4    A    
O5    Zn3   S    
C3    O6    A    
C44   C46   S    
C8    C21   S    
C21   H22   S    
C25   C29   S    
C39   H40   S    
C49   H59   S    
C40   C58   S    
C46   H46   S    
C17   H18   S    
C15   H2    S    
C60   H92   S    
C13   C30   S    
C34   O14   A    
C66   C67   S    
C41   C59   S    
C19   H20   S    
C19   C33   S    
C42   C60   S    
C47   C64   S    
C37   H35   S    
C20   H12   S    
C63   H103  S    
C55   H78   S    
C15   H15   S    
C5    C18   S    
C37   H34   S    
C44   C62   S    
C12   O11   A    
C5    H1    S    
O12   Zn3   S    
C1    C32   S    
C4    O8    A    
C7    C28   S    
C56   N2    S    
C36   H33   S    
C14   H94   S    
C60   H91   S    
C35   C39   S    
C42   H43   S    
C49   H58   S    
C58   H85   S    
C45   N1    S    
C11   C16   S    
C55   H79   S    
C6    C27   S    
C67   N4    S    
C18   H10   S    
C12   O10   A    
C57   H82   S    
C17   H9    S    
C60   H93   S    
C36   H32   S    
C32   C37   S    
C6    C50   S    
C19   H11   S    
C3    O5    A    
C13   H83   S    
C50   H64   S    
C26   H30   S    
C54   H77   S    
C23   O12   A    
C26   C30   S    
C25   H29   S    
C40   C41   S    
C62   H98   S    
C21   H13   S    
C44   H45   S    
C25   H27   S    
C23   C35   S    
C22   C27   S    
C12   C31   S    
C42   N2    S    
C52   H68   S    
C56   H51   S    
C46   N4    S    
C52   H69   S    
O6    Zn4   S    
C43   H44   S    
C14   H14   S    
O7    Zn4   S    
C8    H39   S    
N3    Zn4   S    
C23   O13   A    
C11   C55   S    
C43   C61   S    
C45   H49   S    
C49   H60   S    
C8    C52   S    
C53   H71   S    
C67   H55   S    
O10   Zn2   S    
C24   C28   S    
C63   H102  S    
C61   H95   S    
C59   H88   S    
C26   C37   S    
C15   C31   S    
C40   H41   S    
C21   C35   S    
C1    O9    A    
C16   C32   S    
O8    Zn3   S    
C20   H21   S    
C18   H19   S    
C65   H7    S    
C66   H57   S    
C13   C17   S    
C46   C63   S    
C41   H42   S    
C45   H53   S    
O16   Zn1   S    
C38   H37   S    
C10   H61   S    
C7    C51   S    
C24   H25   S    
C9    C29   S    
C59   H89   S    
O13   Zn4   S    
C55   H80   S    
C43   N1    S    
C66   N3    S    
C51   H67   S    
C50   H63   S    
C8    C28   S    
C68   O2    A    
C51   H66   S    
C33   C34   S    
C54   H75   S    
C61   H97   S    
C64   H4    S    
N4    Zn3   S    
C10   C54   S    
C18   C33   S    
O15   Zn3   S    
C58   H87   S    
C65   H6    S    
C25   C36   S    
C9    C53   S    
N2    Zn1   S    
C7    C20   S    
C42   C43   S    
N1    Zn2   S    
C17   C32   S    
C22   H24   S    
C31   C36   S    
C33   C38   S    
C2    C28   S    
C4    C30   S    
O4    Zn1   S    
O3    Zn2   S    
