data_str_m2_o5_o17_f0_pcu.sym.41
_audit_creation_date              2013-03-05T16:34:53-0500
_audit_creation_method            fapswitch 2.2
_symmetry_space_group_name_H-M    P1
_symmetry_Int_Tables_number       1
_space_group_crystal_system       triclinic
_cell_length_a                    15.077714
_cell_length_b                    9.084286
_cell_length_c                    7.793224
_cell_angle_alpha                 90.099327
_cell_angle_beta                  89.706512
_cell_angle_gamma                 90.06649
_cell_volume                      1067.42365021

loop_
_atom_site_label
_atom_site_type_symbol
_atom_site_description
_atom_site_fract_x
_atom_site_fract_y
_atom_site_fract_z
_atom_type_partial_charge
O1    O     O_R   0.500000 0.288390 0.642760 -0.569949
O2    O     O_R   0.500000 0.711610 0.357240 -0.573972
O3    O     O_R   0.500000 0.711610 0.642760 -0.579829
O4    O     O_R   0.500000 0.288390 0.357240 -0.581027
C1    C     C_R   0.499948 0.220068 0.499912 0.846223
C2    C     C_R   0.500021 0.779933 0.500088 0.846477
O5    O     O_R   0.370260 0.500000 0.642800 -0.559390
O6    O     O_R   0.629740 0.500000 0.357200 -0.560539
O7    O     O_R   0.629740 0.500000 0.642800 -0.581486
O8    O     O_R   0.370260 0.500000 0.357200 -0.581272
C3    C     C_R   0.328586 0.501448 0.500658 0.854525
C4    C     C_R   0.671317 0.499654 0.499623 0.862665
Cu1   Cu    Cu3+1 0.500000 0.500000 0.669080 1.054947
Cu2   Cu    Cu3+1 0.500000 0.500000 0.330920 1.053429
N1    N     N_1   0.500000 0.500000 0.076820 -0.033344
N2    N     N_1   0.500000 0.500000 0.923180 -0.033301
C5    C     C_R   0.812988 0.616125 0.428497 0.373068
C6    C     C_R   0.187544 0.393633 0.592415 0.370202
C7    C     C_R   0.813108 0.378305 0.575237 0.324015
C8    C     C_R   0.185568 0.625313 0.433274 0.308791
C9    C     C_R   0.767642 0.496853 0.499844 -0.228707
C10   C     C_R   0.232120 0.505865 0.504601 -0.216766
C11   C     C_R   0.906255 0.385173 0.590566 -0.033353
C12   C     C_R   0.092750 0.632703 0.454648 -0.032635
C13   C     C_R   0.905904 0.627065 0.446843 -0.067656
C14   C     C_R   0.093902 0.388570 0.591755 -0.061275
C15   C     C_R   0.952840 0.507553 0.520809 -0.142196
C16   C     C_R   0.046473 0.509909 0.523503 -0.140004
C17   C     C_R   0.954374 0.269163 0.668186 0.340959
C18   C     C_R   0.044948 0.761077 0.409279 0.342016
C19   C     C_R   0.951803 0.757472 0.401857 0.382705
C20   C     C_R   0.047258 0.265030 0.655938 0.386032
C21   C     C_1   0.499979 0.065398 0.499878 -0.122791
C22   C     C_1   0.500000 0.934603 0.500119 -0.121698
O9    O     O_3   0.912790 0.159701 0.760841 -0.667834
H1    H     H_    0.873197 0.209335 0.844868 0.364485
O10   O     O_3   0.087104 0.893690 0.380210 -0.677705
H2    H     H_    0.132195 0.906439 0.471235 0.376611
O11   O     O_3   0.903873 0.883520 0.364884 -0.668089
H3    H     H_    0.943602 0.963992 0.326943 0.379354
O12   O     O_3   0.093597 0.140712 0.705519 -0.693892
H4    H     H_    0.052485 0.057627 0.726891 0.375893
O13   O     O_3   0.764268 0.719598 0.340340 -0.662804
H5    H     H_    0.794981 0.736217 0.229197 0.359702
O14   O     O_3   0.237724 0.289366 0.675939 -0.664881
H6    H     H_    0.215520 0.285643 0.795890 0.364818
O15   O     O_3   0.768897 0.251030 0.624038 -0.672746
H7    H     H_    0.709508 0.246068 0.570832 0.318546
O16   O     O_3   0.228177 0.733485 0.338478 -0.676844
H8    H     H_    0.291375 0.739814 0.370638 0.320523

loop_
_geom_bond_atom_site_label_1
_geom_bond_atom_site_label_2
_geom_bond_distance
_ccdc_geom_bond_type
C13   C19   1.415028 A    
O15   H7    0.989663 S    
C7    C11   1.411411 A    
C20   O12   1.385271 S    
C5    O13   1.379922 S    
C14   C20   1.414503 A    
C8    O16   1.385756 S    
C11   C15   1.421700 A    
C13   C15   1.421241 A    
O12   H4    0.989933 S    
C17   O9    1.378306 S    
C3    C10   1.455242 S    
C14   C16   1.420249 A    
O9    H1    0.992004 S    
O3    Cu1   1.933592 S    
O6    C4    1.277537 A    
O3    C2    1.274317 A    
C5    C13   1.412333 A    
C21   C22   1.188191 T    
Cu1   Cu2   2.635357 S    
O5    C3    1.276440 A    
O2    C2    1.273634 A    
O1    C1    1.273635 A    
C11   C17   1.418246 A    
C7    C9    1.408177 A    
O10   H2    0.991631 S    
C8    C10   1.409593 A    
C17   C20   1.403776 A    
C12   C18   1.417912 A    
C1    C21   1.405062 S    
O13   H5    0.991795 S    
O4    Cu2   1.933593 S    
C18   C19   1.406238 A    
O2    Cu2   1.932885 S    
O7    C4    1.277051 A    
C7    O15   1.386702 S    
O14   H6    0.991943 S    
O1    Cu1   1.932885 S    
O8    C3    1.279721 A    
N1    N2    1.197352 T    
C6    O14   1.379190 S    
C12   C16   1.419707 A    
O5    Cu1   1.967919 S    
O16   H8    0.988123 S    
O8    Cu2   1.965833 S    
Cu1   N2    1.980257 S    
O11   H3    0.989230 S    
O7    Cu1   1.965831 S    
Cu2   N1    1.980257 S    
O6    Cu2   1.967918 S    
C6    C10   1.398451 A    
C4    C9    1.452623 S    
C8    C12   1.410180 A    
C5    C9    1.395376 A    
C2    C22   1.405065 S    
C18   O10   1.379964 S    
C19   O11   1.386232 S    
O4    C1    1.274308 A    
C15   C16   1.412171 A    
C6    C14   1.412641 A    
