data_str_m12_o9_o24_f0_bcu.sym.46
_audit_creation_date              2013-03-05T15:58:18-0500
_audit_creation_method            fapswitch 2.2
_symmetry_space_group_name_H-M    P1
_symmetry_Int_Tables_number       1
_space_group_crystal_system       triclinic
_cell_length_a                    14.76908
_cell_length_b                    14.946895
_cell_length_c                    15.115311
_cell_angle_alpha                 110.1109
_cell_angle_beta                  108.550456
_cell_angle_gamma                 108.751224
_cell_volume                      2599.43734775

loop_
_atom_site_label
_atom_site_type_symbol
_atom_site_description
_atom_site_fract_x
_atom_site_fract_y
_atom_site_fract_z
_atom_type_partial_charge
C1    C     C_R   0.902615 0.195407 0.992537 0.339234
C2    C     C_R   0.033006 0.757131 0.942679 0.342282
N1    N     N_R   0.947560 0.293820 0.002910 -0.055842
N2    N     N_R   0.052440 0.706180 0.997090 -0.054940
C3    C     C_R   0.295640 0.803800 0.204385 0.323545
C4    C     C_R   0.684978 0.230281 0.775490 0.340904
N3    N     N_R   0.208960 0.706170 0.152110 -0.053934
N4    N     N_R   0.791040 0.293830 0.847890 -0.057324
C5    C     C_R   0.222629 0.406770 0.978446 -0.117070
C6    C     C_R   0.786650 0.592533 0.091487 -0.119829
H1    H     H_    0.203854 0.322457 0.943797 0.127067
H2    H     H_    0.814608 0.676170 0.147705 0.100043
N5    N     N_R   0.154330 0.443160 0.946140 -0.044107
N6    N     N_R   0.845670 0.556840 0.053860 -0.045808
C7    C     C_R   0.053117 0.590309 0.313271 -0.129947
C8    C     C_R   0.010656 0.409694 0.705009 -0.135426
H3    H     H_    0.095850 0.673704 0.377647 0.100083
H4    H     H_    0.986106 0.325839 0.652677 0.094642
N7    N     N_R   0.002190 0.556820 0.208880 -0.040573
N8    N     N_R   0.997810 0.443180 0.791120 -0.038081
C9    C     C_R   0.312616 0.588727 0.071827 -0.144135
C10   C     C_R   0.698805 0.411680 0.005658 -0.051339
H5    H     H_    0.377869 0.671527 0.124167 0.148928
H6    H     H_    0.646581 0.330895 0.986535 0.101497
N9    N     N_R   0.210550 0.556810 0.002910 -0.049674
N10   N     N_R   0.789450 0.443190 0.997090 -0.045655
C11   C     C_R   0.972830 0.407662 0.220031 -0.131693
C12   C     C_R   0.099348 0.589784 0.793664 -0.135724
H7    H     H_    0.948017 0.324279 0.200182 0.139335
H8    H     H_    0.162320 0.670424 0.826941 0.125410
N11   N     N_R   0.945970 0.443180 0.152110 -0.047642
N12   N     N_R   0.054030 0.556820 0.847890 -0.039902
C13   C     C_R   0.207712 0.801866 0.299649 -0.188177
C14   C     C_R   0.781158 0.243808 0.687169 -0.189652
H9    H     H_    0.180749 0.827580 0.357858 0.120328
H10   H     H_    0.805231 0.236448 0.625943 0.121506
N13   N     N_R   0.151530 0.706170 0.208880 -0.051115
N14   N     N_R   0.848470 0.293830 0.791120 -0.055519
C15   C     C_R   0.997604 0.195424 0.904321 -0.214667
C16   C     C_R   0.928744 0.745784 0.022896 -0.192082
H11   H     H_    0.018758 0.167161 0.841852 0.134186
H12   H     H_    0.872443 0.753008 0.051989 0.142039
N15   N     N_R   0.004980 0.293810 0.946140 -0.053257
N16   N     N_R   0.995020 0.706190 0.053860 -0.054202
C17   C     C_R   0.936016 0.130968 0.933475 0.019908
C18   C     C_R   0.946437 0.774380 0.948543 -0.001892
C19   C     C_R   0.297910 0.864162 0.297729 0.018599
C20   C     C_R   0.677986 0.200941 0.674822 0.018361
C21   C     C_R   0.321661 0.496436 0.058306 0.119326
C22   C     C_R   0.695149 0.502997 0.062255 0.085652
C23   C     C_R   0.033148 0.496880 0.320925 0.053589
C24   C     C_R   0.072181 0.499901 0.703157 0.055590
H13   H     H_    0.364682 0.123252 0.911245 0.128000
H14   H     H_    0.485879 0.702528 0.978845 0.118591
C25   C     C_R   0.932665 0.859318 0.834366 -0.230453
C26   C     C_R   0.826115 0.951991 0.914976 -0.258612
C27   C     C_R   0.193763 0.033894 0.794663 -0.040679
C28   C     C_R   0.647377 0.832400 0.052379 -0.122184
H15   H     H_    0.207702 0.010066 0.726116 0.116244
H16   H     H_    0.640534 0.882212 0.118596 0.118576
Ni1   Ni    Ni4+2 0.869690 0.369690 0.000000 0.210774
Ni2   Ni    Ni4+2 0.130310 0.630310 0.000000 0.209322
Ni3   Ni    Ni4+2 0.001390 0.369680 0.869810 0.212924
Ni4   Ni    Ni4+2 0.998610 0.630320 0.130190 0.211151
C29   C     C_R   0.087254 0.996574 0.779253 -0.215485
C30   C     C_R   0.740305 0.872730 0.042111 -0.178987
H17   H     H_    0.332684 0.173241 0.068154 0.124931
H18   H     H_    0.504012 0.579643 0.832391 0.151748
H19   H     H_    0.563544 0.119908 0.079527 0.097406
H20   H     H_    0.525203 0.953292 0.903704 0.107848
C31   C     C_R   0.682385 0.289671 0.183850 -0.143156
C32   C     C_R   0.456730 0.782871 0.794277 -0.091398
H21   H     H_    0.631254 0.316031 0.143294 0.111860
H22   H     H_    0.535056 0.789291 0.805801 0.130821
C33   C     C_R   0.786233 0.365987 0.271993 -0.123373
C34   C     C_R   0.361460 0.682204 0.724308 -0.155880
H23   H     H_    0.814313 0.451931 0.300004 0.114717
H24   H     H_    0.367175 0.611076 0.681739 0.122659
C35   C     C_R   0.854129 0.331020 0.322301 0.122437
C36   C     C_R   0.258903 0.675182 0.703148 0.111047
C37   C     C_R   0.814465 0.218998 0.285443 -0.189702
C38   C     C_R   0.254059 0.771237 0.751255 -0.177425
H25   H     H_    0.864782 0.190206 0.323601 0.109547
H26   H     H_    0.176090 0.769749 0.728371 0.113901
C39   C     C_R   0.709840 0.143527 0.198672 -0.101707
C40   C     C_R   0.349680 0.869947 0.827034 -0.100597
H27   H     H_    0.679865 0.057764 0.170701 0.105533
H28   H     H_    0.345178 0.942430 0.866561 0.115712
C41   C     C_R   0.644125 0.178661 0.147425 -0.073213
C42   C     C_R   0.451137 0.876018 0.848075 -0.101913
C43   C     C_R   0.983382 0.412555 0.511424 -0.234066
C44   C     C_R   0.145198 0.570451 0.510101 -0.226255
H29   H     H_    0.916898 0.353035 0.510424 0.129118
H30   H     H_    0.207514 0.631318 0.507781 0.141206
C45   C     C_R   0.077323 0.496524 0.608169 0.071697
C46   C     C_R   0.048405 0.490630 0.416185 0.061764
C47   C     C_R   0.159902 0.577616 0.607885 0.016863
C48   C     C_R   0.965091 0.410939 0.416061 0.015815
H31   H     H_    0.019415 0.940579 0.698919 0.109237
H32   H     H_    0.803805 0.956185 0.099141 0.115960
H33   H     H_    0.387796 0.318303 0.035006 0.166002
H34   H     H_    0.641441 0.683932 0.127547 0.172230
H35   H     H_    0.145998 0.114555 0.041751 0.125569
H36   H     H_    0.667518 0.650378 0.812271 0.132255
C49   C     C_R   0.068965 0.026345 0.868112 0.129883
C50   C     C_R   0.746987 0.808792 0.953494 0.095302
C51   C     C_R   0.264369 0.126506 0.987441 -0.188019
C52   C     C_R   0.570925 0.660772 0.891878 -0.084706
H37   H     H_    0.029088 0.089660 0.368509 0.107068
H38   H     H_    0.884902 0.900598 0.536459 0.090950
C53   C     C_R   0.140213 0.065542 0.309951 0.378506
C54   C     C_R   0.752421 0.896394 0.570946 0.384844
C55   C     C_R   0.234705 0.054638 0.333088 -0.176402
C56   C     C_R   0.678121 0.936126 0.568090 -0.138436
H39   H     H_    0.264467 0.042553 0.275303 0.130642
H40   H     H_    0.617919 0.907214 0.592145 0.123443
C57   C     C_R   0.291745 0.060871 0.431179 0.054807
C58   C     C_R   0.676164 0.007149 0.527283 0.085835
C59   C     C_R   0.253346 0.078239 0.506112 -0.126308
C60   C     C_R   0.749181 0.038156 0.489024 -0.146054
H41   H     H_    0.296148 0.083194 0.582109 0.153467
H42   H     H_    0.744716 0.088101 0.451829 0.110442
C61   C     C_R   0.158502 0.087668 0.482668 -0.157108
C62   C     C_R   0.826864 0.002999 0.496624 -0.142935
H43   H     H_    0.128902 0.100238 0.540455 0.135683
H44   H     H_    0.883411 0.027698 0.467592 0.110171
C63   C     C_R   0.101986 0.081332 0.385021 -0.135934
C64   C     C_R   0.828134 0.931698 0.536705 -0.061976
C65   C     C_R   0.488449 0.131219 0.549674 -0.217361
C66   C     C_R   0.488228 0.949970 0.412887 -0.207738
H45   H     H_    0.490160 0.202273 0.604306 0.173695
H46   H     H_    0.486682 0.876330 0.363224 0.176066
C67   C     C_R   0.582904 0.120550 0.573864 0.060709
C68   C     C_R   0.393666 0.959223 0.388305 0.063696
C69   C     C_R   0.583482 0.029863 0.504296 0.017799
C70   C     C_R   0.391927 0.050020 0.455903 0.031539
C71   C     C_R   0.282190 0.097509 0.898848 -0.046897
C72   C     C_R   0.560714 0.728891 0.974431 -0.103932
C73   C     C_R   0.825959 0.862358 0.924015 0.032536
C74   C     C_R   0.961139 0.965769 0.856527 0.021819
H47   H     H_    0.963506 0.816341 0.790194 0.152206
H48   H     H_    0.765669 0.971550 0.925194 0.158381
C75   C     C_R   0.158515 0.094240 0.972236 -0.141355
C76   C     C_R   0.664156 0.700571 0.881313 -0.149564
C77   C     C_R   0.893294 0.824068 0.895360 0.071987
C78   C     C_R   0.906324 0.015290 0.899207 0.079048
C79   C     C_3   0.488991 0.427805 0.983539 0.466775
C80   C     C_3   0.537815 0.572116 0.173680 0.461881
C81   C     C_3   0.466057 0.522587 0.004286 -0.284785
C82   C     C_3   0.562954 0.476531 0.153739 -0.318088
H49   H     H_    0.418205 0.530554 0.937049 0.146583
H50   H     H_    0.605414 0.462757 0.218666 0.157639
C83   C     C_3   0.423883 0.496012 0.077899 0.002611
C84   C     C_3   0.603961 0.503407 0.079095 -0.027439
C85   C     C_3   0.445696 0.398924 0.054908 -0.291218
C86   C     C_3   0.581810 0.600632 0.102283 -0.263896
C87   C     C_3   0.804978 0.159288 0.008999 -1.110530
H51   H     H_    0.730433 0.098547 0.930597 0.252074
H52   H     H_    0.818240 0.127865 0.065992 0.258479
H53   H     H_    0.789333 0.227826 0.042235 0.264748
C88   C     C_3   0.121030 0.822700 0.926839 -1.075638
H54   H     H_    0.098047 0.789289 0.840832 0.241448
H55   H     H_    0.139506 0.908553 0.963912 0.273886
H56   H     H_    0.197654 0.822906 0.968679 0.259013
C89   C     C_3   0.357762 0.848510 0.154315 -1.085970
H57   H     H_    0.351910 0.921478 0.156813 0.261212
H58   H     H_    0.444959 0.871755 0.198036 0.260027
H59   H     H_    0.323613 0.786882 0.069247 0.250642
C90   C     C_3   0.596646 0.174848 0.796478 -1.035525
H60   H     H_    0.541959 0.211219 0.791380 0.303516
H61   H     H_    0.547808 0.086802 0.735690 0.249448
H62   H     H_    0.631795 0.180885 0.875950 0.242891
C91   C     C_3   0.082546 0.062485 0.206497 -1.059036
H63   H     H_    0.007718 0.068931 0.197878 0.248115
H64   H     H_    0.137923 0.131663 0.204573 0.254125
H65   H     H_    0.059212 0.985155 0.137485 0.264054
C92   C     C_3   0.744248 0.810637 0.602580 -0.986217
H66   H     H_    0.811995 0.791779 0.607747 0.237025
H67   H     H_    0.745694 0.838236 0.681312 0.247018
H68   H     H_    0.665829 0.734954 0.542027 0.297930
N17   N     N_R   0.460906 0.351474 0.875431 0.214785
O1    O     O_R   0.385373 0.250888 0.827178 -0.473494
O2    O     O_R   0.501038 0.387049 0.821774 -0.444155
N18   N     N_R   0.559275 0.650643 0.277353 0.221778
O3    O     O_R   0.515622 0.617412 0.330057 -0.428161
O4    O     O_R   0.613330 0.754316 0.312553 -0.450576

loop_
_geom_bond_atom_site_label_1
_geom_bond_atom_site_label_2
_geom_bond_distance
_ccdc_geom_bond_type
C52   C72   1.400436 A    
C87   H51   1.108192 S    
C25   H47   1.073576 S    
C36   C47   1.477647 S    
C11   H7    1.075591 S    
C90   H60   1.106946 S    
N11   Ni1   1.892506 S    
C35   C48   1.490155 S    
C66   H46   1.086405 S    
C66   C69   1.364808 A    
C32   C34   1.400002 A    
N7    N11   1.395881 A    
C88   H56   1.105284 S    
C9    C21   1.380045 A    
C88   H54   1.103839 S    
N15   Ni3   1.876016 S    
C15   H11   1.079775 S    
C66   C68   1.391753 A    
N17   O1    1.298735 A    
N16   Ni4   1.876016 S    
C16   C18   1.399812 A    
C3    C19   1.371463 A    
N1    N15   1.385104 A    
C89   H57   1.110303 S    
C4    C20   1.389371 A    
H13   C71   1.082250 S    
C21   C83   1.445665 S    
C79   C81   1.513506 S    
C81   C86   1.547867 S    
C34   H24   1.083156 S    
C62   H44   1.082924 S    
C81   H49   1.107626 S    
C40   H28   1.077768 S    
C25   C77   1.394228 A    
C18   C77   1.482458 S    
H33   C85   1.094707 S    
C28   H16   1.080116 S    
N2    Ni2   1.857742 S    
C44   C46   1.389161 A    
N18   O3    1.300012 A    
C24   C45   1.446298 S    
C65   H45   1.084823 S    
C30   H32   1.082892 S    
C79   C84   1.526371 S    
C81   C83   1.539383 S    
C5    N5    1.331834 A    
C37   H25   1.083384 S    
C7    N7    1.328798 A    
C28   C30   1.392501 A    
C60   H42   1.083700 S    
C92   H67   1.107893 S    
C46   C48   1.409813 A    
H36   C76   1.083021 S    
C3    C89   1.502186 S    
C83   C85   1.534736 S    
C79   C85   1.529911 S    
C84   C86   1.539490 S    
C8    N8    1.323189 A    
C23   C46   1.425602 S    
C10   C22   1.368043 A    
C26   H48   1.063360 S    
C28   C72   1.390627 A    
N1    Ni1   1.857743 S    
C87   H52   1.109555 S    
C14   N14   1.317766 A    
C90   H61   1.110363 S    
N5    N9    1.396004 A    
H20   C42   1.082710 S    
N4    N14   1.385227 A    
C30   C50   1.407726 A    
H19   C41   1.082582 S    
C2    C88   1.499402 S    
C29   C49   1.404316 A    
C88   H55   1.103745 S    
C11   C23   1.367828 A    
C44   C47   1.383895 A    
C58   C60   1.404257 A    
C59   H41   1.083511 S    
C39   H27   1.077650 S    
C11   N11   1.320706 A    
C17   C78   1.484001 S    
C34   C36   1.405001 A    
C20   C67   1.426616 S    
C12   N12   1.333164 A    
C5    C21   1.377096 A    
C29   H31   1.080128 S    
C36   C38   1.405842 A    
C40   C42   1.394345 A    
N17   O2    1.300624 A    
C74   C78   1.417264 A    
C31   H21   1.078942 S    
C26   C73   1.392000 A    
C39   C41   1.395298 A    
C15   C17   1.390443 A    
C15   N15   1.337143 A    
N2    N16   1.385105 A    
C91   H63   1.110441 S    
C2    C18   1.406167 A    
C25   C74   1.390813 A    
C1    N1    1.332802 A    
C51   C71   1.396003 A    
C2    N2    1.326571 A    
N3    Ni2   1.892712 S    
C68   C70   1.404285 A    
C82   H50   1.108655 S    
C43   H29   1.084214 S    
C65   C70   1.390400 A    
C32   C42   1.394479 A    
C61   C63   1.397615 A    
C7    C23   1.385107 A    
N5    Ni3   1.874821 S    
N7    Ni4   1.876260 S    
C80   N18   1.453858 S    
C92   H68   1.109028 S    
N6    Ni4   1.874818 S    
C44   H30   1.086335 S    
N3    N13   1.385226 A    
C27   C71   1.397479 A    
C1    C87   1.500981 S    
C53   C55   1.404043 A    
C8    H4    1.082437 S    
N6    N10   1.396003 A    
C33   H23   1.083128 S    
C56   C58   1.402459 A    
C91   H64   1.109518 S    
C6    H2    1.081541 S    
C31   C41   1.395202 A    
C55   C57   1.405881 A    
C54   C56   1.401838 A    
C4    N4    1.338438 A    
H17   C51   1.082572 S    
C32   H22   1.080126 S    
C87   H53   1.107864 S    
C38   H26   1.082109 S    
C82   C85   1.564304 S    
C9    H5    1.077525 S    
C19   C68   1.425373 S    
C53   C63   1.403976 A    
C13   C19   1.374101 A    
C90   H62   1.104168 S    
C65   C67   1.401346 A    
C27   H15   1.082527 S    
C14   C20   1.369791 A    
C80   C83   1.519280 S    
C51   C75   1.392811 A    
C6    C22   1.364991 A    
H34   C86   1.107126 S    
C52   C76   1.397832 A    
N13   Ni4   1.875655 S    
C3    N3    1.324791 A    
N14   Ni3   1.875652 S    
N8    N12   1.395880 A    
C91   H65   1.108566 S    
C10   N10   1.333307 A    
C7    H3    1.080874 S    
C9    N9    1.334844 A    
C73   C77   1.404873 A    
C53   C91   1.500378 S    
N10   Ni1   1.857506 S    
C8    C24   1.377987 A    
C80   C82   1.544668 S    
H35   C75   1.082000 S    
C49   C75   1.403710 A    
C56   H40   1.084548 S    
C45   C47   1.418837 A    
C50   C76   1.402979 A    
C59   C61   1.397488 A    
C89   H59   1.109237 S    
H18   C52   1.081626 S    
N4    Ni1   1.892714 S    
C35   C37   1.406173 A    
N18   O4    1.299648 A    
C62   C64   1.397418 A    
N8    Ni3   1.876261 S    
C57   C59   1.404656 A    
N12   Ni2   1.892507 S    
C12   H8    1.065582 S    
C1    C17   1.400853 A    
C38   C40   1.397217 A    
C49   C74   1.474099 S    
C31   C33   1.399459 A    
C12   C24   1.370305 A    
C79   N17   1.458211 S    
C50   C73   1.474985 S    
H14   C72   1.079950 S    
C22   C84   1.449468 S    
C5    H1    1.080922 S    
C16   H12   1.074316 S    
C13   H9    1.081313 S    
C14   H10   1.076783 S    
H37   C63   1.083273 S    
C10   H6    1.075101 S    
N9    Ni2   1.857508 S    
C43   C48   1.369453 A    
C26   C78   1.403372 A    
C13   N13   1.334113 A    
C54   C64   1.404785 A    
C61   H43   1.082732 S    
C43   C45   1.402137 A    
C6    N6    1.331785 A    
C16   N16   1.341200 A    
C89   H58   1.108526 S    
C92   H66   1.110591 S    
C82   C84   1.546346 S    
C67   C69   1.405746 A    
C80   C86   1.533931 S    
C55   H39   1.084232 S    
C57   C70   1.483001 S    
C33   C35   1.407842 A    
C37   C39   1.397423 A    
C58   C69   1.478831 S    
C60   C62   1.396745 A    
H38   C64   1.081850 S    
C54   C92   1.498320 S    
C27   C29   1.397585 A    
C4    C90   1.496062 S    
