data_str_m4_o7_o7_f0_acs.sym.189
_audit_creation_date              2013-03-05T15:55:35-0500
_audit_creation_method            fapswitch 2.2
_symmetry_space_group_name_H-M    P1
_symmetry_Int_Tables_number       1
_space_group_crystal_system       triclinic
_cell_length_a                    14.031555
_cell_length_b                    14.032562
_cell_length_c                    31.491667
_cell_angle_alpha                 90.167799
_cell_angle_beta                  89.956066
_cell_angle_gamma                 120.093209
_cell_volume                      5364.85981146

loop_
_atom_site_label
_atom_site_type_symbol
_atom_site_description
_atom_site_fract_x
_atom_site_fract_y
_atom_site_fract_z
_atom_type_partial_charge
O1    O     O_R   0.480350 0.140770 0.796330 -0.533119
O2    O     O_R   0.660420 0.519650 0.703670 -0.558941
O3    O     O_R   0.859230 0.339580 0.796330 -0.533825
O4    O     O_R   0.480350 0.140770 0.703670 -0.559456
O5    O     O_R   0.660420 0.519650 0.796330 -0.544970
O6    O     O_R   0.859230 0.339580 0.703670 -0.558289
O7    O     O_R   0.140770 0.480350 0.296330 -0.555978
O8    O     O_R   0.519650 0.660420 0.203670 -0.544607
O9    O     O_R   0.339580 0.859230 0.296330 -0.545299
O10   O     O_R   0.140770 0.480350 0.203670 -0.533028
O11   O     O_R   0.519650 0.660420 0.296330 -0.555735
O12   O     O_R   0.339580 0.859230 0.203670 -0.533204
O13   O     O_R   0.514930 0.348530 0.793250 -0.499731
O14   O     O_R   0.833600 0.485070 0.706750 -0.513172
O15   O     O_R   0.651470 0.166400 0.793250 -0.502325
O16   O     O_R   0.514930 0.348530 0.706750 -0.514647
O17   O     O_R   0.833600 0.485070 0.793250 -0.507109
O18   O     O_R   0.651470 0.166400 0.706750 -0.514609
O19   O     O_R   0.348530 0.514930 0.293250 -0.512606
O20   O     O_R   0.485070 0.833600 0.206750 -0.507482
O21   O     O_R   0.166400 0.651470 0.293250 -0.499636
O22   O     O_R   0.348530 0.514930 0.206750 -0.499643
O23   O     O_R   0.485070 0.833600 0.293250 -0.511829
O24   O     O_R   0.166400 0.651470 0.206750 -0.501357
C1    C     C_R   0.565139 0.445476 0.809753 0.795490
C2    C     C_R   0.877667 0.432538 0.689503 0.836059
C3    C     C_R   0.554278 0.119910 0.809787 0.801329
C4    C     C_R   0.567226 0.444530 0.689373 0.832374
C5    C     C_R   0.879755 0.433999 0.810046 0.819524
C6    C     C_R   0.555314 0.122614 0.689352 0.826694
C7    C     C_R   0.444582 0.566598 0.310585 0.803004
C8    C     C_R   0.433837 0.879525 0.189913 0.815535
C9    C     C_R   0.121269 0.555469 0.310359 0.783390
C10   C     C_R   0.445187 0.565199 0.190114 0.792792
C11   C     C_R   0.433220 0.877991 0.310591 0.813648
C12   C     C_R   0.119869 0.554184 0.190189 0.793892
C13   C     C_1   0.009062 0.544359 0.018961 -0.022741
C14   C     C_1   0.560121 0.967609 0.483005 -0.032585
C15   C     C_1   0.471958 0.474930 0.018615 -0.024470
C16   C     C_1   0.039174 0.580454 0.483926 -0.027088
C17   C     C_1   0.542935 0.004119 0.018883 -0.027056
C18   C     C_1   0.407456 0.448137 0.483880 -0.028513
C19   C     C_1   0.565604 0.979092 0.521009 -0.032763
C20   C     C_1   0.006971 0.543034 0.980869 -0.026961
C21   C     C_1   0.412995 0.442439 0.521858 -0.031704
C22   C     C_1   0.544660 0.006692 0.980777 -0.022963
C23   C     C_1   0.031366 0.577175 0.521971 -0.031690
C24   C     C_1   0.472872 0.474080 0.980643 -0.024377
Cr1   Cr    Cr6+3 0.504240 0.249200 0.750000 0.955166
Cr2   Cr    Cr6+3 0.744960 0.495760 0.750000 0.949148
Cr3   Cr    Cr6+3 0.750800 0.255040 0.750000 0.959846
Cr4   Cr    Cr6+3 0.249200 0.504240 0.250000 0.954879
Cr5   Cr    Cr6+3 0.495760 0.744960 0.250000 0.949590
Cr6   Cr    Cr6+3 0.255040 0.750800 0.250000 0.980114
O25   O     O_3   0.666667 0.333333 0.750000 -0.335520
O26   O     O_3   0.333333 0.666667 0.250000 -0.334906
C25   C     C_R   0.944940 0.476862 0.850060 -0.183762
C26   C     C_R   0.537774 0.063967 0.648122 -0.152887
C27   C     C_R   0.518479 0.464889 0.849198 -0.183721
C28   C     C_R   0.938461 0.472707 0.648777 -0.150985
C29   C     C_R   0.533533 0.053402 0.849120 -0.187017
C30   C     C_R   0.525693 0.462367 0.648404 -0.149843
C31   C     C_R   0.474279 0.934285 0.352389 -0.192203
C32   C     C_R   0.053503 0.533336 0.150738 -0.187395
C33   C     C_R   0.458424 0.525434 0.352547 -0.187504
C34   C     C_R   0.476285 0.943880 0.149775 -0.184479
C35   C     C_R   0.062695 0.541539 0.351580 -0.189665
C36   C     C_R   0.463735 0.518993 0.150325 -0.183663
C37   C     C_R   0.971090 0.581800 0.866049 0.235958
C38   C     C_R   0.587914 0.999378 0.640450 0.260164
C39   C     C_R   0.426871 0.374541 0.869350 0.263954
C40   C     C_R   0.002658 0.587270 0.640574 0.253335
C41   C     C_R   0.618131 0.036396 0.865708 0.279524
C42   C     C_R   0.410727 0.412404 0.640901 0.256736
C43   C     C_R   0.585390 0.972754 0.363940 0.274462
C44   C     C_R   0.037460 0.618284 0.133938 0.281971
C45   C     C_R   0.380698 0.416561 0.365231 0.262309
C46   C     C_R   0.581494 0.970499 0.134050 0.236477
C47   C     C_R   0.048182 0.629011 0.366987 0.305019
C48   C     C_R   0.372711 0.428421 0.129820 0.262201
C49   C     C_R   0.997827 0.606712 0.909110 -0.198142
C50   C     C_R   0.594782 0.967031 0.598640 -0.212374
C51   C     C_R   0.410210 0.379839 0.912774 -0.214090
C52   C     C_R   0.038875 0.624268 0.598908 -0.218277
C53   C     C_R   0.620906 0.019164 0.909396 -0.221089
C54   C     C_R   0.371403 0.408439 0.599354 -0.214374
C55   C     C_R   0.615158 0.984100 0.407132 -0.191215
C56   C     C_R   0.020933 0.620934 0.090201 -0.221405
C57   C     C_R   0.363178 0.390088 0.408659 -0.190806
C58   C     C_R   0.606364 0.996267 0.090960 -0.198296
C59   C     C_R   0.040450 0.641750 0.410761 -0.207814
C60   C     C_R   0.377648 0.412365 0.086315 -0.214115
C61   C     C_R   0.000222 0.529055 0.935764 0.029622
C62   C     C_R   0.555455 0.001749 0.564817 0.025237
C63   C     C_R   0.478470 0.474955 0.935493 0.033665
C64   C     C_R   0.009610 0.547933 0.565908 0.029203
C65   C     C_R   0.536932 0.010398 0.935555 0.034574
C66   C     C_R   0.445557 0.450847 0.565581 0.026131
C67   C     C_R   0.535191 0.957872 0.438362 0.022115
C68   C     C_R   0.011954 0.536574 0.064166 0.034379
C69   C     C_R   0.422484 0.470734 0.439111 0.022731
C70   C     C_R   0.528361 0.997196 0.063979 0.029521
C71   C     C_R   0.041686 0.566301 0.438882 0.025666
C72   C     C_R   0.472915 0.480244 0.063780 0.033745
C73   C     C_R   0.991307 0.433058 0.919005 -0.165682
C74   C     C_R   0.497810 0.056621 0.572732 -0.164592
C75   C     C_R   0.555962 0.569877 0.914716 -0.160124
C76   C     C_R   0.956376 0.436113 0.574639 -0.166030
C77   C     C_R   0.443650 0.006061 0.918013 -0.164712
C78   C     C_R   0.558153 0.507739 0.573402 -0.166750
C79   C     C_R   0.429958 0.935448 0.426835 -0.157072
C80   C     C_R   0.006480 0.442974 0.081829 -0.164990
C81   C     C_R   0.509434 0.572798 0.426549 -0.158567
C82   C     C_R   0.431875 0.987650 0.080432 -0.165306
C83   C     C_R   0.036386 0.470281 0.423455 -0.157198
C84   C     C_R   0.568202 0.556859 0.084766 -0.160043
C85   C     C_R   0.968042 0.407199 0.875717 0.261868
C86   C     C_R   0.483475 0.084235 0.614198 0.245274
C87   C     C_R   0.574852 0.567724 0.870910 0.250630
C88   C     C_R   0.923743 0.396385 0.615958 0.244747
C89   C     C_R   0.438235 0.023149 0.874276 0.264188
C90   C     C_R   0.600303 0.518328 0.614610 0.244922
C91   C     C_R   0.399804 0.930490 0.383921 0.257277
C92   C     C_R   0.022690 0.437633 0.125660 0.264257
C93   C     C_R   0.533360 0.599228 0.383287 0.263502
C94   C     C_R   0.406107 0.965522 0.123751 0.261671
C95   C     C_R   0.041227 0.453717 0.379490 0.263140
C96   C     C_R   0.566445 0.575210 0.128658 0.251070
N1    N     N_2   0.973882 0.663134 0.838439 -0.514005
H1    H     H_    0.052729 0.727016 0.832950 0.246240
C97   C     C_3   0.898573 0.701380 0.849072 -0.450180
H2    H     H_    0.930178 0.758923 0.876528 0.150057
H3    H     H_    0.816357 0.630451 0.856911 0.246348
H4    H     H_    0.890014 0.745507 0.821456 0.199746
N2    N     N_2   0.620675 0.957771 0.675245 -0.528029
H5    H     H_    0.577350 0.872887 0.676428 0.248490
C98   C     C_3   0.737882 0.001152 0.679565 -0.532789
H6    H     H_    0.769645 0.974279 0.652493 0.168927
H7    H     H_    0.754302 0.969541 0.709284 0.180487
H8    H     H_    0.782051 0.092355 0.681478 0.237488
N3    N     N_2   0.353905 0.276361 0.846807 -0.464227
H9    H     H_    0.314665 0.206986 0.865506 0.268725
C99   C     C_3   0.278040 0.287172 0.818874 -0.514700
H10   H     H_    0.221086 0.304171 0.837679 0.175960
H11   H     H_    0.228830 0.209279 0.800870 0.186230
H12   H     H_    0.323322 0.354739 0.795700 0.198007
N4    N     N_2   0.040532 0.663843 0.674892 -0.519427
H13   H     H_    0.125340 0.708331 0.676703 0.249486
C100  C     C_3   0.993302 0.734553 0.677472 -0.525043
H14   H     H_    0.018941 0.790976 0.649791 0.166481
H15   H     H_    0.022692 0.785000 0.706879 0.185926
H16   H     H_    0.902242 0.684722 0.678967 0.235640
N5    N     N_2   0.701947 0.039134 0.839129 -0.470522
H17   H     H_    0.768328 0.044458 0.855302 0.252006
C101  C     C_3   0.662591 0.955723 0.806103 -0.532393
H18   H     H_    0.613833 0.872314 0.820074 0.184269
H19   H     H_    0.733830 0.960829 0.788696 0.181488
H20   H     H_    0.610153 0.967737 0.782904 0.205938
N6    N     N_2   0.335956 0.375947 0.675691 -0.525567
H21   H     H_    0.291960 0.416651 0.677485 0.248623
C102  C     C_3   0.264855 0.258006 0.678987 -0.531632
H22   H     H_    0.206683 0.226014 0.651761 0.169337
H23   H     H_    0.216369 0.238521 0.708797 0.181120
H24   H     H_    0.314267 0.216410 0.680111 0.236563
N7    N     N_2   0.668093 0.013586 0.331905 -0.519673
H25   H     H_    0.715413 0.098347 0.332410 0.246577
C103  C     C_3   0.734554 0.961831 0.328950 -0.496549
H26   H     H_    0.787412 0.980954 0.357513 0.166216
H27   H     H_    0.788739 0.993854 0.300657 0.175709
H28   H     H_    0.681200 0.871655 0.325043 0.257132
N8    N     N_2   0.040453 0.702534 0.160383 -0.465415
H29   H     H_    0.046331 0.768970 0.144147 0.253075
C104  C     C_3   0.956557 0.663684 0.193069 -0.543610
H30   H     H_    0.873247 0.617063 0.178712 0.185349
H31   H     H_    0.963313 0.735074 0.211009 0.185274
H32   H     H_    0.966486 0.609105 0.215798 0.190799
N9    N     N_2   0.330154 0.331867 0.334078 -0.524586
H33   H     H_    0.360683 0.278602 0.334539 0.244795
C105  C     C_3   0.211248 0.274119 0.332829 -0.486086
H34   H     H_    0.176155 0.224678 0.362077 0.170716
H35   H     H_    0.181909 0.217633 0.305045 0.172291
H36   H     H_    0.182005 0.333604 0.329235 0.267788
N10   N     N_2   0.663226 0.975028 0.161984 -0.514768
H37   H     H_    0.726521 0.054308 0.167367 0.245845
C106  C     C_3   0.702640 0.900368 0.151871 -0.451180
H38   H     H_    0.760223 0.931731 0.124506 0.150258
H39   H     H_    0.632271 0.817624 0.144131 0.247980
H40   H     H_    0.747047 0.893110 0.179707 0.198589
N11   N     N_2   0.042161 0.704909 0.338687 -0.467309
H41   H     H_    0.059287 0.778524 0.352452 0.262190
C107  C     C_3   0.942625 0.658010 0.313445 -0.568974
H42   H     H_    0.869617 0.630776 0.334336 0.187399
H43   H     H_    0.933200 0.586795 0.294580 0.184684
H44   H     H_    0.946709 0.721117 0.291177 0.190252
N12   N     N_2   0.274174 0.355958 0.152094 -0.464114
H45   H     H_    0.204641 0.318546 0.133309 0.270026
C108  C     C_3   0.283411 0.277929 0.179222 -0.510024
H46   H     H_    0.298696 0.220679 0.159780 0.174713
H47   H     H_    0.205487 0.229267 0.197150 0.189065
H48   H     H_    0.351511 0.321310 0.202464 0.193327
H49   H     H_    0.017008 0.689594 0.076421 0.112178
H50   H     H_    0.699887 0.013746 0.416266 0.121094
H51   H     H_    0.305910 0.348748 0.069843 0.115839
H52   H     H_    0.033615 0.710460 0.422820 0.113842
H53   H     H_    0.684761 0.012046 0.078300 0.124141
H54   H     H_    0.304053 0.307207 0.418603 0.122865
H55   H     H_    0.632703 0.917455 0.592601 0.127135
H56   H     H_    0.013005 0.684748 0.922029 0.124045
H57   H     H_    0.283731 0.370159 0.593445 0.127864
H58   H     H_    0.689335 0.014464 0.923041 0.112287
H59   H     H_    0.086858 0.711640 0.592282 0.127690
H60   H     H_    0.345870 0.308486 0.929051 0.115494
N13   N     N_2   0.009041 0.338929 0.144923 -0.481643
H61   H     H_    0.974952 0.324566 0.174895 0.262494
C109  C     C_3   0.967613 0.238840 0.120035 -0.600318
H62   H     H_    0.962049 0.171710 0.140387 0.195909
H63   H     H_    0.024862 0.250784 0.093573 0.195296
H64   H     H_    0.884021 0.213291 0.107624 0.196670
N14   N     N_2   0.298187 0.924934 0.372171 -0.479007
H65   H     H_    0.303287 0.965230 0.344224 0.272617
C110  C     C_3   0.237804 0.948158 0.404027 -0.600869
H66   H     H_    0.166417 0.948679 0.389089 0.182390
H67   H     H_    0.291438 0.030527 0.418513 0.194670
H68   H     H_    0.205310 0.883448 0.428809 0.205384
N15   N     N_2   0.665086 0.649080 0.151275 -0.505977
H69   H     H_    0.670897 0.622716 0.181201 0.259152
C111  C     C_3   0.769255 0.707100 0.128964 -0.612173
H70   H     H_    0.834571 0.763804 0.151259 0.199319
H71   H     H_    0.764418 0.757929 0.103035 0.200949
H72   H     H_    0.792236 0.647769 0.115869 0.207256
N16   N     N_2   0.023266 0.350773 0.362835 -0.505543
H73   H     H_    0.984649 0.330357 0.333650 0.261011
C112  C     C_3   0.985044 0.256466 0.390637 -0.605601
H74   H     H_    0.972049 0.183690 0.371913 0.191461
H75   H     H_    0.905437 0.236834 0.405537 0.199328
H76   H     H_    0.047963 0.272394 0.415264 0.207255
N17   N     N_2   0.312182 0.965777 0.141682 -0.470533
H77   H     H_    0.329181 0.009954 0.169624 0.261462
C113  C     C_3   0.235855 0.978440 0.114619 -0.578201
H78   H     H_    0.166711 0.971682 0.134079 0.188686
H79   H     H_    0.200911 0.912193 0.090224 0.201314
H80   H     H_    0.277610 0.060878 0.099388 0.186745
N18   N     N_2   0.632710 0.695860 0.370241 -0.498224
H81   H     H_    0.666131 0.684616 0.342815 0.260490
C114  C     C_3   0.716578 0.759758 0.401598 -0.594885
H82   H     H_    0.790887 0.825679 0.385611 0.185607
H83   H     H_    0.741380 0.706624 0.418857 0.194957
H84   H     H_    0.686145 0.799617 0.424084 0.213430
N19   N     N_2   0.413449 0.129364 0.622410 -0.495095
H85   H     H_    0.354750 0.086001 0.645187 0.261421
C115  C     C_3   0.368426 0.160293 0.587146 -0.563111
H86   H     H_    0.318085 0.194712 0.599367 0.203531
H87   H     H_    0.313077 0.086839 0.567711 0.178255
H88   H     H_    0.435884 0.224011 0.567440 0.217525
N20   N     N_2   0.968407 0.313579 0.857457 -0.470811
H89   H     H_    0.012607 0.330900 0.829567 0.260427
C116  C     C_3   0.980321 0.236458 0.884245 -0.576197
H90   H     H_    0.972696 0.167196 0.864552 0.188518
H91   H     H_    0.914205 0.201838 0.908603 0.201559
H92   H     H_    0.062857 0.277398 0.899519 0.186358
N21   N     N_2   0.715936 0.586201 0.622680 -0.495552
H93   H     H_    0.732928 0.646379 0.645077 0.260421
C117  C     C_3   0.792057 0.627435 0.587284 -0.563183
H94   H     H_    0.877301 0.674400 0.599334 0.204992
H95   H     H_    0.777909 0.685203 0.567885 0.177437
H96   H     H_    0.784209 0.558024 0.567589 0.217193
N22   N     N_2   0.339786 0.010852 0.855170 -0.480471
H97   H     H_    0.324146 0.975923 0.825282 0.263444
C118  C     C_3   0.240538 0.971993 0.880255 -0.599120
H98   H     H_    0.173740 0.967908 0.860038 0.195232
H99   H     H_    0.254536 0.030077 0.906711 0.195616
H100  H     H_    0.213315 0.888150 0.892688 0.196073
N23   N     N_2   0.879007 0.281665 0.625071 -0.492475
H101  H     H_    0.922414 0.268036 0.648338 0.261843
C119  C     C_3   0.848709 0.203732 0.590334 -0.564003
H102  H     H_    0.812038 0.119370 0.603050 0.203030
H103  H     H_    0.922824 0.219513 0.571957 0.177088
H104  H     H_    0.787044 0.207808 0.569472 0.217787
N24   N     N_2   0.649319 0.666061 0.848423 -0.505807
H105  H     H_    0.623642 0.671447 0.818292 0.260765
C120  C     C_3   0.706454 0.770565 0.870701 -0.611807
H106  H     H_    0.763286 0.835731 0.848504 0.198825
H107  H     H_    0.757063 0.766450 0.896929 0.200723
H108  H     H_    0.646552 0.793263 0.883367 0.208017
H109  H     H_    0.991464 0.375713 0.060816 0.126091
H110  H     H_    0.372839 0.924702 0.451973 0.129721
H111  H     H_    0.642392 0.603118 0.066214 0.127641
H112  H     H_    0.027964 0.408849 0.446178 0.126723
H113  H     H_    0.376785 0.996336 0.058832 0.126595
H114  H     H_    0.559839 0.630165 0.451077 0.129103
H115  H     H_    0.462999 0.076258 0.545799 0.127964
H116  H     H_    0.001096 0.378275 0.940355 0.126635
H117  H     H_    0.612592 0.544461 0.546554 0.128131
H118  H     H_    0.376657 0.991222 0.939071 0.126140
H119  H     H_    0.940909 0.380322 0.548361 0.127348
H120  H     H_    0.602493 0.644045 0.933366 0.127666

loop_
_geom_bond_atom_site_label_1
_geom_bond_atom_site_label_2
_geom_bond_distance
_ccdc_geom_bond_type
C36   C48   1.425539 A    
C99   H12   1.111076 S    
N8    H29   1.031015 S    
N20   C116  1.448356 S    
C114  H83   1.111446 S    
O16   C4    1.290378 A    
N7    H25   1.031389 S    
C66   C78   1.388778 A    
C24   C63   1.423724 S    
C33   C93   1.420866 A    
C117  H96   1.111085 S    
C69   C81   1.395178 A    
C76   C88   1.400325 A    
C12   C32   1.490864 S    
C113  H78   1.110398 S    
C54   H57   1.083330 S    
N10   H37   1.031249 S    
C97   H4    1.109981 S    
O19   C7    1.288034 A    
C53   H58   1.084079 S    
C89   N22   1.435845 S    
C102  H22   1.110966 S    
C114  H84   1.110580 S    
C52   H59   1.083305 S    
C100  H14   1.110927 S    
N2    H5    1.031417 S    
C103  H27   1.110213 S    
C97   H3    1.109941 S    
N13   H61   1.031528 S    
C46   C58   1.403401 A    
C120  H108  1.110958 S    
N1    C97   1.443567 S    
N8    C104  1.449272 S    
C45   C57   1.407013 A    
N19   H85   1.030631 S    
O24   C12   1.290147 A    
C31   C43   1.417782 A    
C42   N6    1.423378 S    
C50   C62   1.396405 A    
C25   C85   1.427005 A    
N4    C100  1.445406 S    
O7    Cr4   2.010930 S    
C80   C92   1.407399 A    
C110  H68   1.109014 S    
C21   C66   1.436822 S    
N3    C99   1.447111 S    
C57   H54   1.083100 S    
C87   N24   1.433916 S    
N21   H93   1.030688 S    
C82   C94   1.406152 A    
C7    C33   1.494986 S    
C115  H87   1.111061 S    
O21   C9    1.286206 A    
C77   H118  1.081812 S    
C28   C40   1.418600 A    
C46   N10   1.421700 S    
N18   H81   1.031278 S    
N17   C113  1.448470 S    
C26   C86   1.422327 A    
C19   C62   1.437752 S    
C83   C95   1.410465 A    
C17   C70   1.431277 S    
C84   H111  1.081665 S    
C29   C89   1.423700 A    
C116  H90   1.110392 S    
C52   C64   1.396080 A    
N11   C107  1.446543 S    
C90   N21   1.433102 S    
C58   C70   1.391339 A    
C91   N14   1.437083 S    
C20   C61   1.430060 S    
O2    Cr2   2.013090 S    
C61   C73   1.391334 A    
C72   C84   1.391388 A    
N3    H9    1.031017 S    
O19   Cr4   1.900576 S    
N4    H13   1.031487 S    
C96   N15   1.433840 S    
N9    C105  1.444303 S    
N23   C119  1.449440 S    
N14   H65   1.030366 S    
C17   C22   1.200521 T    
N6    C102  1.445755 S    
O23   Cr5   1.897787 S    
O18   C6    1.290699 A    
O15   Cr3   1.900869 S    
O6    Cr3   2.011858 S    
N5    C101  1.449911 S    
C15   C72   1.423762 S    
C112  H74   1.110735 S    
C44   C56   1.400622 A    
C55   H50   1.083092 S    
C47   C59   1.400661 A    
C59   H52   1.083318 S    
O11   Cr5   2.014469 S    
C53   C65   1.391353 A    
C39   N3    1.425188 S    
C105  H36   1.105459 S    
O1    C3    1.283444 A    
O22   Cr4   1.899676 S    
C104  H31   1.110514 S    
C64   C76   1.386558 A    
O11   C7    1.287018 A    
N7    C103  1.443741 S    
N2    C98   1.445577 S    
C114  H82   1.109507 S    
O12   C8    1.280663 A    
C101  H20   1.108839 S    
O7    C9    1.291333 A    
N6    H21   1.031465 S    
C73   C85   1.405537 A    
N11   H41   1.030215 S    
C34   C46   1.418117 A    
C75   C87   1.407647 A    
C50   H55   1.083284 S    
C102  H23   1.110364 S    
C76   H119  1.082096 S    
O18   Cr3   1.897179 S    
N23   H101  1.030887 S    
C103  H28   1.107292 S    
C39   C51   1.395201 A    
C92   N13   1.435899 S    
N13   C109  1.449250 S    
O22   C10   1.285750 A    
C78   H117  1.081990 S    
Cr6   O26   1.975182 S    
N19   C115  1.449008 S    
O4    C6    1.281398 A    
C33   C45   1.419534 A    
O14   Cr2   1.899430 S    
C79   C91   1.407510 A    
C107  H42   1.111812 S    
C118  H98   1.110827 S    
C88   N23   1.434215 S    
C119  H104  1.110977 S    
C37   C49   1.402975 A    
O16   Cr1   1.903040 S    
C38   C50   1.410348 A    
C115  H86   1.104970 S    
C109  H64   1.111413 S    
C10   C36   1.490706 S    
C103  H26   1.109580 S    
N21   C117  1.449248 S    
O3    Cr3   2.008506 S    
C75   H120  1.081665 S    
C26   C38   1.418711 A    
C106  H40   1.109993 S    
C73   H116  1.082106 S    
C29   C41   1.422905 A    
C81   H114  1.082184 S    
C32   C92   1.423467 A    
C16   C23   1.201924 T    
C113  H79   1.110915 S    
C45   N9    1.423700 S    
C34   C94   1.426937 A    
C116  H91   1.110943 S    
C18   C21   1.204063 T    
C3    C29   1.491239 S    
C48   C60   1.395106 A    
C108  H48   1.111069 S    
C71   C83   1.397426 A    
C109  H62   1.110849 S    
C107  H43   1.110499 S    
C110  H66   1.110308 S    
C70   C82   1.391674 A    
C35   C95   1.419731 A    
N14   C110  1.450591 S    
C58   H53   1.083335 S    
C49   C61   1.391148 A    
O10   Cr4   2.011201 S    
C60   C72   1.386887 A    
O15   C3    1.290487 A    
C111  H70   1.110139 S    
C83   H112  1.081892 S    
C23   C64   1.432874 S    
C67   C79   1.394741 A    
O2    C4    1.280496 A    
O14   C2    1.294204 A    
C95   N16   1.433906 S    
N15   H69   1.031553 S    
C32   C44   1.422838 A    
C93   N18   1.434443 S    
C35   C47   1.424967 A    
C43   N7    1.423898 S    
O8    C10   1.287103 A    
C51   C63   1.387152 A    
C42   C54   1.410433 A    
C108  H47   1.110465 S    
C101  H19   1.110126 S    
C98   H7    1.109510 S    
C41   C53   1.401539 A    
C40   C52   1.409915 A    
C60   H51   1.084526 S    
C63   C75   1.391490 A    
C49   H56   1.083347 S    
O13   Cr1   1.897350 S    
O20   Cr5   1.903175 S    
C44   N8    1.427413 S    
C43   C55   1.408131 A    
C111  H71   1.110033 S    
C119  H102  1.103698 S    
C5    C25   1.493925 S    
C68   C80   1.394086 A    
O23   C11   1.291292 A    
C118  H99   1.110312 S    
C47   N11   1.425354 S    
C38   N2    1.423585 S    
C56   H49   1.084118 S    
O5    C1    1.286743 A    
O5    Cr2   2.010345 S    
C100  H16   1.108081 S    
C80   H109  1.081784 S    
C41   N5    1.427772 S    
N20   H89   1.031697 S    
C56   C68   1.390802 A    
C18   C69   1.438004 S    
C30   C90   1.422674 A    
C102  H24   1.108462 S    
N22   C118  1.449161 S    
C9    C35   1.495858 S    
C8    C34   1.494706 S    
N1    H1    1.031263 S    
O20   C8    1.296309 A    
Cr5   O26   1.972393 S    
C99   H11   1.110440 S    
C48   N12   1.424944 S    
C36   C96   1.423523 A    
C62   C74   1.390095 A    
C82   H113  1.082070 S    
C27   C87   1.423363 A    
C57   C69   1.394016 A    
C115  H88   1.110930 S    
C22   C65   1.431418 S    
C51   H60   1.084507 S    
C59   C71   1.389027 A    
C14   C67   1.438491 S    
O13   C1    1.285459 A    
C97   H2    1.110723 S    
O8    Cr5   2.009059 S    
C31   C91   1.422593 A    
N22   H97   1.031540 S    
C104  H32   1.108471 S    
O17   Cr2   1.901424 S    
C105  H34   1.110238 S    
C120  H107  1.110011 S    
C40   N4    1.423529 S    
C1    C27   1.490475 S    
C98   H6    1.110734 S    
O4    Cr1   2.008098 S    
Cr2   O25   1.972539 S    
O21   Cr6   1.901281 S    
C116  H92   1.111155 S    
C25   C37   1.417983 A    
C119  H103  1.111012 S    
C13   C20   1.199814 T    
C100  H15   1.110323 S    
C65   C77   1.393953 A    
C120  H106  1.110107 S    
N24   H105  1.031551 S    
C14   C19   1.204488 T    
C110  H67   1.111560 S    
C117  H95   1.110952 S    
C74   H115  1.082068 S    
C78   C90   1.402794 A    
C16   C71   1.434630 S    
C85   N20   1.434886 S    
C77   C89   1.407384 A    
C106  H38   1.110727 S    
O6    C2    1.277642 A    
C2    C28   1.486827 S    
C86   N19   1.433888 S    
C101  H18   1.109559 S    
C117  H94   1.103521 S    
C98   H8    1.108993 S    
C6    C26   1.488237 S    
O1    Cr1   2.014189 S    
N15   C111  1.449599 S    
C79   H110  1.081817 S    
C11   C31   1.492405 S    
C28   C88   1.424738 A    
C113  H80   1.111181 S    
Cr3   O25   1.975174 S    
N24   C120  1.449584 S    
Cr1   O25   1.972265 S    
C108  H46   1.111731 S    
C54   C66   1.396083 A    
C112  H76   1.110414 S    
O12   Cr6   2.012790 S    
C107  H44   1.109918 S    
C109  H63   1.110229 S    
C106  H39   1.109754 S    
N16   C112  1.449077 S    
C104  H30   1.109533 S    
N12   H45   1.030967 S    
C55   C67   1.395714 A    
Cr4   O26   1.972402 S    
O17   C5    1.296529 A    
C111  H72   1.110956 S    
C81   C93   1.408461 A    
N10   C106  1.443503 S    
C37   N1    1.421652 S    
N9    H33   1.031277 S    
C84   C96   1.407741 A    
C118  H100  1.111416 S    
C112  H75   1.111369 S    
N16   H73   1.031477 S    
O9    C11   1.284792 A    
C30   C42   1.419527 A    
O3    C5    1.280302 A    
O10   C12   1.283438 A    
O9    Cr6   2.007640 S    
N18   C114  1.449967 S    
N12   C108  1.446903 S    
N5    H17   1.031135 S    
N17   H77   1.031669 S    
C94   N17   1.435051 S    
O24   Cr6   1.896796 S    
C13   C68   1.430260 S    
C74   C86   1.403762 A    
C99   H10   1.111697 S    
C27   C39   1.425331 A    
C15   C24   1.195940 T    
C105  H35   1.110200 S    
C4    C30   1.488675 S    
