data_str_m9_o7_o18_f0_sra.sym.16
_audit_creation_date              2012-12-11T17:36:14-0500
_audit_creation_method            fapswitch 2.2
_symmetry_space_group_name_H-M    P1
_symmetry_Int_Tables_number       1
_space_group_crystal_system       triclinic
_cell_length_a                    25.870505
_cell_length_b                    6.901916
_cell_length_c                    21.624894
_cell_angle_alpha                 89.999274
_cell_angle_beta                  96.162604
_cell_angle_gamma                 89.99988
_cell_volume                      3838.94244174

loop_
_atom_site_label
_atom_site_type_symbol
_atom_type_description
_atom_site_fract_x
_atom_site_fract_y
_atom_site_fract_z
_atom_type_partial_charge
O1    O     O_R   0.208650 0.594520 0.175450 -0.533945
O2    O     O_R   0.791350 0.405480 0.824550 -0.531683
O3    O     O_R   0.291350 0.094520 0.324550 -0.533944
O4    O     O_R   0.708650 0.905480 0.675450 -0.531683
O5    O     O_R   0.192980 0.260780 0.300160 -0.541358
O6    O     O_R   0.807020 0.739220 0.699840 -0.542104
O7    O     O_R   0.307020 0.760780 0.199840 -0.541359
O8    O     O_R   0.692980 0.239220 0.800160 -0.542104
C1    C     C_R   0.178691 0.432880 0.318296 0.684521
C2    C     C_R   0.821442 0.567050 0.681935 0.682828
C3    C     C_R   0.321309 0.932881 0.181703 0.684523
C4    C     C_R   0.678558 0.067049 0.818065 0.682828
O9    O     O_R   0.202550 0.264660 0.174420 -0.537277
O10   O     O_R   0.797450 0.735340 0.825580 -0.538551
O11   O     O_R   0.297450 0.764660 0.325580 -0.537278
O12   O     O_R   0.702550 0.235340 0.674420 -0.538550
O13   O     O_R   0.300990 0.096480 0.197920 -0.538388
O14   O     O_R   0.699010 0.903520 0.802080 -0.537830
O15   O     O_R   0.199010 0.596480 0.302080 -0.538388
O16   O     O_R   0.800990 0.403520 0.697920 -0.537830
C5    C     C_R   0.191073 0.433558 0.150999 0.698215
C6    C     C_R   0.809070 0.566102 0.848871 0.696614
C7    C     C_R   0.308926 0.933556 0.349001 0.698216
C8    C     C_R   0.690929 0.066104 0.651129 0.696616
O17   O     O_3   0.282290 0.427760 0.257860 -0.364845
O18   O     O_3   0.717710 0.572240 0.742140 -0.361125
O19   O     O_3   0.217710 0.927760 0.242140 -0.364845
O20   O     O_3   0.782290 0.072240 0.757860 -0.361126
V1    V     V_3+5 0.244010 0.152080 0.248540 1.404550
V2    V     V_3+5 0.755990 0.847920 0.751460 1.397142
V3    V     V_3+5 0.255990 0.652080 0.251460 1.404549
V4    V     V_3+5 0.744010 0.347920 0.748540 1.397145
C9    C     C_R   0.657454 0.053294 0.591632 -0.074234
C10   C     C_R   0.342312 0.939951 0.408685 -0.068792
C11   C     C_R   0.842545 0.553282 0.908368 -0.074233
C12   C     C_R   0.157688 0.439962 0.091316 -0.068788
C13   C     C_R   0.649833 0.006508 0.480428 -0.142073
C14   C     C_R   0.351608 0.897772 0.520156 -0.138394
C15   C     C_R   0.850164 0.506430 0.019571 -0.142075
C16   C     C_R   0.148393 0.397845 0.979842 -0.138394
C17   C     C_R   0.680492 0.035344 0.536542 -0.154505
C18   C     C_R   0.320372 0.903132 0.463642 -0.157857
C19   C     C_R   0.819506 0.535285 0.963456 -0.154504
C20   C     C_R   0.179628 0.403190 0.036357 -0.157856
C21   C     C_R   0.603062 0.041575 0.590149 -0.199830
C22   C     C_R   0.396256 0.969424 0.410683 -0.207817
C23   C     C_R   0.896937 0.541587 0.909853 -0.199827
C24   C     C_R   0.103742 0.469406 0.089319 -0.207824
C25   C     C_R   0.571023 0.995841 0.534166 0.094631
C26   C     C_R   0.429719 0.945754 0.467025 0.088462
C27   C     C_R   0.928975 0.495828 0.965835 0.094628
C28   C     C_R   0.070280 0.445755 0.032976 0.088464
C29   C     C_R   0.595681 0.986033 0.478776 0.067876
C30   C     C_R   0.405776 0.918891 0.522319 0.072376
C31   C     C_R   0.904317 0.485978 0.021223 0.067876
C32   C     C_R   0.094224 0.418936 0.977681 0.072375
C33   C     C_R   0.515778 0.961357 0.530749 -0.100047
C34   C     C_R   0.485677 0.948908 0.470737 -0.114506
C35   C     C_R   0.984221 0.461359 0.969252 -0.100053
C36   C     C_R   0.014322 0.448891 0.029263 -0.114507
C37   C     C_R   0.513085 0.925837 0.417344 0.408153
C38   C     C_R   0.489729 0.925104 0.584498 0.402559
C39   C     C_R   0.986914 0.425784 0.082655 0.408156
C40   C     C_R   0.010271 0.425139 0.915501 0.402556
C41   C     C_R   0.566721 0.949924 0.421988 -0.261790
C42   C     C_R   0.435825 0.907508 0.579516 -0.267013
C43   C     C_R   0.933276 0.449849 0.078010 -0.261786
C44   C     C_R   0.064176 0.407567 0.920482 -0.267008
H1    H     H_    0.586096 0.936376 0.380130 0.138877
H2    H     H_    0.417366 0.881083 0.621453 0.141962
H3    H     H_    0.913901 0.436271 0.119868 0.138874
H4    H     H_    0.082635 0.381170 0.878544 0.141963
H5    H     H_    0.410633 0.013020 0.367879 0.157545
H6    H     H_    0.587286 0.072194 0.633124 0.161265
H7    H     H_    0.089365 0.512969 0.132125 0.157545
H8    H     H_    0.912714 0.572238 0.866881 0.161261
H9    H     H_    0.278880 0.879840 0.462798 0.103606
H10   H     H_    0.722367 0.043250 0.537039 0.103178
H11   H     H_    0.221122 0.379923 0.037199 0.103604
H12   H     H_    0.777630 0.543169 0.962958 0.103178
H13   H     H_    0.668723 0.995540 0.438181 0.111177
H14   H     H_    0.333411 0.872928 0.562330 0.113096
H15   H     H_    0.831273 0.495427 0.061816 0.111177
H16   H     H_    0.166590 0.373034 0.937667 0.113096
C45   C     C_R   0.427430 0.792737 0.079582 -0.132419
C46   C     C_R   0.577337 0.204720 0.926974 -0.128489
C47   C     C_R   0.072570 0.292736 0.420420 -0.132418
C48   C     C_R   0.922666 0.704724 0.573029 -0.128489
H17   H     H_    0.445444 0.661950 0.064364 0.104392
H18   H     H_    0.563546 0.334399 0.948164 0.104491
H19   H     H_    0.054557 0.161948 0.435640 0.104391
H20   H     H_    0.936459 0.834405 0.551841 0.104490
C49   C     C_R   0.388224 0.778203 0.119639 -0.167260
C50   C     C_R   0.616596 0.220172 0.887053 -0.173178
C51   C     C_R   0.111776 0.278202 0.380363 -0.167257
C52   C     C_R   0.883407 0.720176 0.612950 -0.173172
H21   H     H_    0.376915 0.635877 0.134358 0.116949
H22   H     H_    0.632374 0.361898 0.878686 0.113352
H23   H     H_    0.123086 0.135876 0.365645 0.116948
H24   H     H_    0.867631 0.861904 0.621318 0.113349
C53   C     C_R   0.363828 0.945617 0.140043 -0.053749
C54   C     C_R   0.635741 0.054033 0.859210 -0.052079
C55   C     C_R   0.136172 0.445615 0.359956 -0.053751
C56   C     C_R   0.864259 0.554035 0.640790 -0.052080
C57   C     C_R   0.380137 0.127532 0.119493 -0.167199
C58   C     C_R   0.614078 0.872653 0.872054 -0.174863
C59   C     C_R   0.119862 0.627530 0.380505 -0.167201
C60   C     C_R   0.885920 0.372653 0.627944 -0.174865
H25   H     H_    0.362521 0.259962 0.133983 0.120855
H26   H     H_    0.627430 0.741374 0.851421 0.123982
H27   H     H_    0.137478 0.759960 0.366013 0.120856
H28   H     H_    0.872565 0.241372 0.648574 0.123983
C61   C     C_R   0.419233 0.141569 0.079569 -0.136667
C62   C     C_R   0.574897 0.857679 0.911840 -0.138785
C63   C     C_R   0.080766 0.641567 0.420429 -0.136667
C64   C     C_R   0.925101 0.357679 0.588158 -0.138787
H29   H     H_    0.430747 0.283254 0.064397 0.104606
H30   H     H_    0.559171 0.716321 0.920991 0.106403
H31   H     H_    0.069252 0.783253 0.435599 0.104606
H32   H     H_    0.940824 0.216319 0.579004 0.106403
C65   C     C_R   0.443041 0.974549 0.059170 0.131339
C66   C     C_R   0.556424 0.023245 0.939814 0.131809
C67   C     C_R   0.056959 0.474548 0.440830 0.131338
C68   C     C_R   0.943576 0.523247 0.560186 0.131810
C69   C     C_1   0.483097 0.990783 0.017125 -0.060207
C70   C     C_1   0.516447 0.005964 0.981924 -0.061385
C71   C     C_1   0.016903 0.490783 0.482875 -0.060207
C72   C     C_1   0.983553 0.505966 0.518076 -0.061385
O21   O     O_3   0.489020 0.875686 0.359322 -0.583616
C73   C     C_3   0.476140 0.676175 0.357679 0.077782
H33   H     H_    0.440176 0.658995 0.325098 0.142800
H34   H     H_    0.467056 0.617252 0.403372 0.112775
C74   C     C_3   0.519569 0.557420 0.333211 -0.346898
H35   H     H_    0.529738 0.621095 0.288878 0.209422
H36   H     H_    0.554641 0.560820 0.367698 0.191224
C75   C     C_3   0.502758 0.347506 0.321951 -0.768799
H37   H     H_    0.490058 0.285056 0.365107 0.239972
H38   H     H_    0.535842 0.261150 0.308085 0.238984
H39   H     H_    0.470087 0.339159 0.284253 0.226985
O22   O     O_3   0.515980 0.894551 0.642703 -0.582328
C76   C     C_3   0.530652 0.697589 0.648106 0.058539
H40   H     H_    0.554207 0.654112 0.610098 0.128398
H41   H     H_    0.495502 0.603592 0.646535 0.129015
C77   C     C_3   0.563553 0.667528 0.710376 -0.298477
H42   H     H_    0.598286 0.763307 0.712919 0.196541
H43   H     H_    0.540395 0.707173 0.748925 0.200953
C78   C     C_3   0.581413 0.457615 0.718529 -0.790789
H44   H     H_    0.547410 0.358673 0.716613 0.230542
H45   H     H_    0.604623 0.440908 0.764374 0.229223
H46   H     H_    0.606025 0.417108 0.681539 0.231186
O23   O     O_3   0.010979 0.375620 0.140676 -0.583616
C79   C     C_3   0.023862 0.176111 0.142315 0.077779
H47   H     H_    0.059827 0.158930 0.174894 0.142803
H48   H     H_    0.032946 0.117204 0.096619 0.112773
C80   C     C_3   0.980436 0.057340 0.166783 -0.346899
H49   H     H_    0.970267 0.121004 0.211116 0.209423
H50   H     H_    0.945363 0.060737 0.132296 0.191223
C81   C     C_3   0.997252 0.847429 0.178041 -0.768794
H51   H     H_    0.009953 0.784991 0.134883 0.239967
H52   H     H_    0.964169 0.761060 0.191906 0.238993
H53   H     H_    0.029923 0.839083 0.215738 0.226981
O24   O     O_3   0.984020 0.394591 0.857296 -0.582327
C82   C     C_3   0.969348 0.197630 0.851894 0.058539
H54   H     H_    0.945794 0.154147 0.889901 0.128399
H55   H     H_    0.004498 0.103633 0.853463 0.129015
C83   C     C_3   0.936446 0.167575 0.789624 -0.298476
H56   H     H_    0.901713 0.263358 0.787082 0.196541
H57   H     H_    0.959603 0.207219 0.751075 0.200955
C84   C     C_3   0.918584 0.957665 0.781473 -0.790782
H58   H     H_    0.952586 0.858717 0.783394 0.230539
H59   H     H_    0.895377 0.940956 0.735625 0.229217
H60   H     H_    0.893968 0.917165 0.818460 0.231189

loop_
_geom_bond_atom_site_label_1
_geom_bond_atom_site_label_2
_ccdc_geom_bond_type
O17   V3    S    
C83   H57   S    
C48   C52   A    
O1    C5    A    
C47   H19   S    
O19   V1    S    
C9    C21   A    
C84   H58   S    
C16   H16   S    
O3    C7    A    
C82   H54   S    
C10   C18   A    
C78   H44   S    
C48   C68   A    
C11   C23   A    
C25   C33   A    
C33   C38   A    
C5    C12   S    
C42   H2    S    
O7    C3    A    
C6    C11   S    
C35   C40   A    
C26   C30   A    
C58   C62   A    
C36   C39   A    
C40   C44   A    
C57   C61   A    
C78   H45   S    
C23   H8    S    
C14   C18   A    
C75   H39   S    
C58   H26   S    
O4    C8    A    
C51   H23   S    
C44   H4    S    
C80   H50   S    
C50   H22   S    
O1    V3    S    
O13   V1    S    
C31   C43   A    
O2    V4    S    
O3    V1    S    
C46   C50   A    
C81   H53   S    
C65   C69   S    
C45   C49   A    
C1    O15   A    
C15   C31   A    
C48   H20   S    
C2    O16   A    
C16   C32   A    
C47   C51   A    
O2    C6    A    
C74   C75   S    
O23   C79   S    
C45   C65   A    
C10   C22   A    
C11   C19   A    
C16   C20   A    
C43   H3    S    
C37   O21   S    
C68   C72   S    
C13   C29   A    
C34   C37   A    
O11   C7    A    
C69   C70   T    
O15   V3    S    
C35   C36   A    
O12   C8    A    
C14   H14   S    
C80   C81   S    
C81   H52   S    
C84   H59   S    
C24   H7    S    
C13   H13   S    
O10   V2    S    
C77   C78   S    
C4    C54   S    
C51   C55   A    
O5    V1    S    
O17   V1    S    
C39   C43   A    
C53   C57   A    
O7    V3    S    
C38   C42   A    
O19   V3    S    
C26   C34   A    
O20   V4    S    
C82   C83   S    
C63   C67   A    
O22   C76   S    
C77   H43   S    
C46   H18   S    
C76   C77   S    
C49   C53   A    
C17   H10   S    
C45   H17   S    
O18   V4    S    
C77   H42   S    
C15   C19   A    
C19   H12   S    
C32   C44   A    
C64   H32   S    
C21   H6    S    
O8    V4    S    
C81   H51   S    
C66   C70   S    
C73   H34   S    
O5    C1    A    
C37   C41   A    
C67   C71   S    
C14   C30   A    
C79   C80   S    
C21   C25   A    
O8    C4    A    
C7    C10   S    
C59   C63   A    
C78   H46   S    
O9    C5    A    
C3    C53   S    
C39   O23   S    
C62   H30   S    
C18   H9    S    
C61   H29   S    
C40   O24   S    
O6    V2    S    
C79   H48   S    
O18   V2    S    
C63   H31   S    
C52   C56   A    
C83   H56   S    
C84   H60   S    
C12   C20   A    
C73   C74   S    
C27   C35   A    
C71   C72   T    
C49   H21   S    
C56   C60   A    
C29   C41   A    
C75   H38   S    
O24   C82   S    
O16   V4    S    
O9    V1    S    
C57   H25   S    
C3    O13   A    
C64   C68   A    
C82   H55   S    
C59   H27   S    
C20   H11   S    
C75   H37   S    
O6    C2    A    
C23   C27   A    
O11   V3    S    
C30   C42   A    
O12   V4    S    
C22   C26   A    
C8    C9    S    
C9    C17   A    
C60   C64   A    
C76   H41   S    
C73   H33   S    
O21   C73   S    
C15   H15   S    
O20   V2    S    
C76   H40   S    
C47   C67   A    
O10   C6    A    
C33   C34   A    
C74   H35   S    
C41   H1    S    
C52   H24   S    
C2    C56   S    
C1    C55   S    
C12   C24   A    
C27   C31   A    
C13   C17   A    
C46   C66   A    
C25   C29   A    
O14   V2    S    
C62   C66   A    
C60   H28   S    
C24   C28   A    
C61   C65   A    
C79   H47   S    
C50   C54   A    
C83   C84   S    
C28   C36   A    
C54   C58   A    
C4    O14   A    
C80   H49   S    
C74   H36   S    
C55   C59   A    
C38   O22   S    
C22   H5    S    
O4    V2    S    
C28   C32   A    
