data_str_m2_o10_o16_f0_pcu.sym.161
_audit_creation_date              2012-12-10T16:44:16-0500
_audit_creation_method            fapswitch 2.2
_symmetry_space_group_name_H-M    P1
_symmetry_Int_Tables_number       1
_space_group_crystal_system       triclinic
_cell_length_a                    7.447189
_cell_length_b                    8.687894
_cell_length_c                    13.365842
_cell_angle_alpha                 93.904157
_cell_angle_beta                  78.823356
_cell_angle_gamma                 102.956048
_cell_volume                      826.50205675

loop_
_atom_site_label
_atom_site_type_symbol
_atom_type_description
_atom_site_fract_x
_atom_site_fract_y
_atom_site_fract_z
_atom_type_partial_charge
C1    C     C_R   0.545659 0.800130 0.502105 0.887574
C2    C     C_R   0.430025 0.385896 0.964469 -0.076609
C3    C     C_R   0.488580 0.405126 0.857877 -0.087765
C4    C     C_R   0.565186 0.447151 0.028401 0.074003
C5    C     C_R   0.755414 0.507246 0.983444 0.076606
C6    C     C_R   0.811812 0.495847 0.878799 -0.325262
C7    C     C_R   0.683920 0.424478 0.818412 0.515809
C8    C     C_R   0.516808 0.460579 0.134839 -0.168346
C9    C     C_R   0.840855 0.570207 0.149254 -0.222745
C10   C     C_R   0.351219 0.399104 0.795567 -0.115150
C11   C     C_2   0.572452 0.967801 0.500856 -0.394255
C12   C     C_R   0.401114 0.464802 0.691219 0.813340
C13   C     C_2   0.428828 0.032053 0.496058 -0.369204
C14   C     C_R   0.454911 0.199824 0.496723 0.870062
C15   C     C_R   0.599154 0.511147 0.306140 0.795934
C16   C     C_R   0.890620 0.569135 0.043736 -0.167500
C17   C     C_R   0.654301 0.514426 0.195175 -0.082333
C18   C     C_R   0.167230 0.323131 0.833062 -0.302635
C19   C     C_R   0.115926 0.267230 0.931987 -0.225694
C20   C     C_R   0.244194 0.299261 0.000468 0.520884
Cu1   Cu    Cu3+1 0.321300 0.483160 0.488710 0.957418
Cu2   Cu    Cu3+1 0.678700 0.516840 0.511290 0.973789
H1    H     H_    0.947967 0.614459 0.194792 0.163743
H2    H     H_    0.289902 0.961058 0.492297 0.179100
H3    H     H_    0.011883 0.618625 0.579305 0.230359
H4    H     H_    0.988004 0.381165 0.420823 0.218503
H5    H     H_    0.958081 0.532166 0.844325 0.170737
H6    H     H_    0.036128 0.612391 0.009199 0.145763
H7    H     H_    0.372173 0.433631 0.172249 0.202723
H8    H     H_    0.064504 0.300109 0.783789 0.208766
H9    H     H_    0.975051 0.198193 0.953730 0.150406
H10   H     H_    0.711682 0.038739 0.503636 0.173027
N1    N     N_2   0.947230 0.542220 0.528320 -0.182266
N2    N     N_2   0.052770 0.457780 0.471680 -0.210235
O1    O     O_R   0.383920 0.714220 0.492660 -0.583361
O2    O     O_R   0.685730 0.742660 0.511730 -0.592715
O3    O     O_R   0.275440 0.478800 0.636790 -0.584418
O4    O     O_R   0.577250 0.507240 0.655860 -0.534257
O5    O     O_R   0.314270 0.257340 0.488270 -0.589174
O6    O     O_R   0.616080 0.285780 0.507340 -0.569326
O7    O     O_R   0.422750 0.492760 0.344140 -0.586928
O8    O     O_R   0.724560 0.521200 0.363210 -0.595915
O9    O     O_3   0.207362 0.223647 0.093479 -0.599341
C21   C     C_3   0.015858 0.188749 0.139071 -0.355088
H11   H     H_    0.004884 0.168828 0.221350 0.191936
H12   H     H_    0.941977 0.077817 0.105340 0.180883
H13   H     H_    0.946645 0.287752 0.133844 0.175097
O10   O     O_3   0.755088 0.355613 0.727079 -0.551354
C22   C     C_3   0.693168 0.189880 0.731598 -0.290135
H14   H     H_    0.545065 0.153202 0.721025 0.167730
H15   H     H_    0.710060 0.143137 0.804087 0.135984
H16   H     H_    0.780572 0.135481 0.668579 0.181833

loop_
_geom_bond_atom_site_label_1
_geom_bond_atom_site_label_2
_ccdc_geom_bond_type
C16   H6    S    
C2    C4    A    
O9    C21   S    
C6    C7    A    
Cu1   O1    S    
Cu2   O2    S    
C15   O8    A    
C8    C17   A    
Cu1   O5    S    
C21   H13   S    
C4    C8    A    
C22   H16   S    
Cu2   O6    S    
C7    O10   S    
C2    C3    A    
C19   H9    S    
C3    C10   A    
C13   C14   S    
C11   C13   D    
C15   O7    A    
C6    H5    S    
Cu2   O8    S    
C10   C12   S    
C10   C18   A    
C18   H8    S    
C8    H7    S    
C9    C17   A    
O10   C22   S    
C9    C16   A    
C21   H12   S    
C11   H10   S    
N1    N2    D    
C3    C7    A    
C12   O4    A    
C5    C6    A    
C13   H2    S    
Cu1   O7    S    
C14   O6    A    
Cu2   O4    S    
C20   O9    S    
Cu1   O3    S    
C21   H11   S    
C1    O1    A    
C22   H14   S    
C12   O3    A    
C15   C17   S    
Cu2   N1    S    
C18   C19   A    
C5    C16   A    
Cu1   N2    S    
C14   O5    A    
Cu1   Cu2   S    
C2    C20   A    
H4    N2    S    
C9    H1    S    
C19   C20   A    
C1    O2    A    
H3    N1    S    
C4    C5    A    
C22   H15   S    
C1    C11   S    
