data_str_m9_o2_o17_f0_sra.sym.241
_audit_creation_date              2013-03-05T16:02:02-0500
_audit_creation_method            fapswitch 2.2
_symmetry_space_group_name_H-M    P1
_symmetry_Int_Tables_number       1
_space_group_crystal_system       triclinic
_cell_length_a                    6.93519
_cell_length_b                    17.625929
_cell_length_c                    19.433771
_cell_angle_alpha                 108.40755
_cell_angle_beta                  89.293793
_cell_angle_gamma                 90.98991
_cell_volume                      2253.62513569

loop_
_atom_site_label
_atom_site_type_symbol
_atom_site_description
_atom_site_fract_x
_atom_site_fract_y
_atom_site_fract_z
_atom_type_partial_charge
O1    O     O_R   0.494330 0.415720 0.413720 -0.562819
O2    O     O_R   0.819330 0.430070 0.560210 -0.607426
O3    O     O_R   0.994320 0.584280 0.586280 -0.605462
C1    C     C_R   0.650388 0.417800 0.584194 1.029821
O4    O     O_R   0.823730 0.406300 0.412670 -0.582059
O5    O     O_R   0.998760 0.560340 0.437690 -0.568372
C2    C     C_R   0.653847 0.381197 0.386390 1.092443
O6    O     O_R   0.489890 0.439660 0.562310 -0.584602
O7    O     O_3   0.662340 0.550560 0.508380 -0.273114
V1    V     V_3+5 0.935370 0.490620 0.498450 1.236721
O8    O     O_R   0.328750 0.569930 0.439790 -0.565570
C3    C     C_R   0.161149 0.587252 0.420074 0.982912
O9    O     O_R   0.324340 0.593700 0.587330 -0.608471
C4    C     C_R   0.155457 0.616612 0.614968 0.916680
V2    V     V_3+5 0.435940 0.509380 0.501550 1.246997
O10   O     O_3   0.159100 0.449440 0.491620 -0.263123
H1    H     H_    0.322447 0.868920 0.570002 0.163184
C5    C     C_R   0.047358 0.592569 0.751079 -0.202311
C6    C     C_R   0.994121 0.578717 0.815488 -0.098106
C7    C     C_R   0.982025 0.642139 0.879651 -0.079999
C8    C     C_R   0.023034 0.719937 0.879948 -0.175794
C9    C     C_R   0.076352 0.736045 0.815358 0.118572
C10   C     C_R   0.088861 0.670942 0.749470 0.124884
C11   C     C_R   0.120257 0.815183 0.815925 -0.303424
C12   C     C_R   0.176655 0.828977 0.750336 0.119264
C13   C     C_R   0.188839 0.763883 0.684426 0.116560
C14   C     C_R   0.145223 0.684757 0.683909 -0.297316
C15   C     C_R   0.218338 0.907311 0.748692 -0.187577
C16   C     C_R   0.271149 0.921132 0.684216 -0.104194
C17   C     C_R   0.282520 0.857738 0.620004 -0.041811
C18   C     C_R   0.241465 0.779969 0.619755 -0.163043
H2    H     H_    0.056805 0.541052 0.702835 0.109266
H3    H     H_    0.963003 0.518350 0.815636 0.148146
H4    H     H_    0.941511 0.630980 0.929605 0.134419
H5    H     H_    0.013578 0.767055 0.931431 0.098874
H6    H     H_    0.209285 0.958820 0.796957 0.117762
H7    H     H_    0.302359 0.981479 0.684047 0.127222
H8    H     H_    0.250198 0.732850 0.568262 0.089998
C19   C     C_R   0.298481 0.637689 0.322534 -0.081740
C20   C     C_R   0.154534 0.640725 0.374355 -0.216230
C21   C     C_R   0.003903 0.695117 0.382454 -0.048373
C22   C     C_R   0.989547 0.743279 0.336675 -0.055923
C23   C     C_R   0.132687 0.736521 0.282358 0.035335
C24   C     C_R   0.288372 0.684091 0.276205 0.182556
C25   C     C_R   0.836663 0.797418 0.342840 0.501815
C26   C     C_R   0.827284 0.841412 0.294026 -0.221378
C27   C     C_R   0.973418 0.838311 0.242125 -0.126199
C28   C     C_R   0.123933 0.783365 0.235115 0.003311
C29   C     C_R   0.268017 0.775641 0.181389 0.195605
C30   C     C_R   0.421816 0.723592 0.176450 -0.196736
C31   C     C_R   0.432729 0.678713 0.223813 -0.177766
C32   C     C_R   0.974966 0.889122 0.197643 0.511553
C33   C     C_R   0.108756 0.874556 0.138797 -0.359724
C34   C     C_R   0.255942 0.819221 0.132701 -0.254854
H9    H     H_    0.421198 0.600321 0.318901 0.223979
H10   H     H_    0.900627 0.699256 0.425270 0.199432
H11   H     H_    0.701994 0.877532 0.296632 0.242855
H12   H     H_    0.362720 0.810223 0.089701 0.161489
H13   H     H_    0.534329 0.717743 0.135974 0.138795
H14   H     H_    0.553635 0.639171 0.219066 0.164797
C35   C     C_R   0.482866 0.195166 0.877588 -0.132480
C36   C     C_R   0.625091 0.137398 0.871635 -0.213193
C37   C     C_R   0.772282 0.128113 0.819716 -0.140481
C38   C     C_R   0.777884 0.175643 0.773843 0.230850
C39   C     C_R   0.630471 0.231637 0.778199 -0.004384
C40   C     C_R   0.481178 0.242205 0.830735 -0.068631
C41   C     C_R   0.929782 0.168380 0.723918 -0.168030
C42   C     C_R   0.936005 0.215593 0.678149 -0.181633
C43   C     C_R   0.788571 0.269871 0.680539 0.137678
C44   C     C_R   0.634637 0.277745 0.730394 0.052960
C45   C     C_R   0.485932 0.332022 0.732634 0.081610
C46   C     C_R   0.338872 0.342468 0.784668 -0.361999
C47   C     C_R   0.336561 0.299835 0.834852 0.562114
C48   C     C_R   0.793008 0.316486 0.633918 -0.154952
C49   C     C_R   0.642556 0.369334 0.634409 -0.109654
C50   C     C_R   0.488818 0.376459 0.683793 -0.174841
H15   H     H_    0.374965 0.202821 0.919549 0.209361
H16   H     H_    0.883063 0.084082 0.815241 0.128001
H17   H     H_    0.044830 0.126506 0.720645 0.127062
H18   H     H_    0.055727 0.209252 0.640471 0.158362
H19   H     H_    0.912718 0.310534 0.596254 0.174112
H20   H     H_    0.373981 0.417973 0.685360 0.120990
H21   H     H_    0.227942 0.385822 0.787235 0.185171
H22   H     H_    0.292167 0.144015 0.418622 0.186473
C51   C     C_R   0.789331 0.395979 0.247433 0.304099
C52   C     C_R   0.909721 0.398723 0.189885 -0.158325
C53   C     C_R   0.940038 0.330302 0.131703 -0.135886
C54   C     C_R   0.843295 0.259668 0.128779 -0.188374
C55   C     C_R   0.731733 0.253439 0.188452 0.099728
C56   C     C_R   0.722344 0.320827 0.252181 -0.011265
C57   C     C_R   0.620533 0.183856 0.184125 -0.269039
C58   C     C_R   0.520315 0.178178 0.246541 0.079367
C59   C     C_R   0.545667 0.238735 0.314983 -0.051603
C60   C     C_R   0.641316 0.312360 0.317393 -0.268662
C61   C     C_R   0.402442 0.110494 0.242854 -0.046449
C62   C     C_R   0.314730 0.101153 0.304023 -0.115691
C63   C     C_R   0.350203 0.156093 0.371080 -0.128491
C64   C     C_R   0.471409 0.222475 0.378098 0.329700
H23   H     H_    0.966326 0.455257 0.186899 0.173947
H24   H     H_    0.026674 0.333560 0.085995 0.192068
H25   H     H_    0.856670 0.211113 0.078709 0.141426
H26   H     H_    0.377166 0.062617 0.193236 0.177833
H27   H     H_    0.226694 0.048585 0.299858 0.192623
O11   O     O_R   0.775200 0.060470 0.937800 -0.598816
O12   O     O_R   0.441110 0.093720 0.087350 -0.609450
O13   O     O_R   0.266330 0.939630 0.062280 -0.595416
C65   C     C_R   0.610119 0.116684 0.114831 1.001130
O14   O     O_R   0.445750 0.069950 0.939820 -0.602807
O15   O     O_R   0.271000 0.915700 0.913700 -0.596132
C66   C     C_R   0.615620 0.085951 0.919026 0.933016
O16   O     O_R   0.770530 0.084400 0.086380 -0.550208
O17   O     O_3   0.602830 0.949510 0.991680 -0.265490
V3    V     V_3+5 0.329710 0.009370 0.001550 1.197342
O18   O     O_R   0.940990 0.906170 0.912570 -0.601387
C67   C     C_R   0.109929 0.883346 0.884915 0.926503
O19   O     O_R   0.936350 0.929940 0.060100 -0.551377
C68   C     C_R   0.103268 0.918075 0.084397 1.076520
V4    V     V_3+5 0.829160 0.990450 0.998310 1.225975
O20   O     O_3   0.105910 0.050480 0.008320 -0.274504
S1    S     S_3+6 0.664272 0.818407 0.414727 -0.056516
O21   O     O_2   0.763853 0.864865 0.483808 -0.288561
O22   O     O_2   0.502709 0.867430 0.400918 -0.281934
O23   O     O_3   0.571118 0.733856 0.424590 -0.570501
H28   H     H_    0.483904 0.751698 0.467226 0.357789
S2    S     S_3+6 0.832299 0.977099 0.221161 -0.079871
O24   O     O_2   0.643954 0.957120 0.181776 -0.318441
O25   O     O_2   0.794283 0.008372 0.301526 -0.305092
O26   O     O_3   0.948036 0.049649 0.197116 -0.576348
H29   H     H_    0.917353 0.100218 0.235604 0.364381
S3    S     S_3+6 0.159489 0.325392 0.904921 -0.070888
O27   O     O_2   0.258234 0.367161 0.975456 -0.299381
O28   O     O_2   0.012848 0.380244 0.890416 -0.306559
O29   O     O_3   0.045907 0.243092 0.911671 -0.582371
H30   H     H_    0.946739 0.263143 0.949954 0.367621
N1    N     N_R   0.698423 0.468464 0.289099 0.212347
O30   O     O_R   0.788792 0.536733 0.302053 -0.440363
O31   O     O_R   0.511632 0.467870 0.295625 -0.455367
N2    N     N_R   0.538806 0.264093 0.449363 0.202821
O32   O     O_R   0.420584 0.274325 0.503976 -0.430713
O33   O     O_R   0.723434 0.266486 0.461134 -0.440149

loop_
_geom_bond_atom_site_label_1
_geom_bond_atom_site_label_2
_geom_bond_distance
_ccdc_geom_bond_type
C42   H18   1.083768 S    
O11   C66   1.300106 A    
C53   C54   1.389513 A    
C49   C50   1.406021 A    
C59   C60   1.434892 A    
C21   C22   1.415658 A    
O2    C1    1.295464 A    
C61   C62   1.382962 A    
C1    O6    1.303171 A    
O26   H29   0.990335 S    
O18   C67   1.299077 A    
N1    O30   1.300235 A    
C51   C52   1.399985 A    
S1    O21   1.502939 D    
C12   C15   1.415909 A    
O12   C65   1.298238 A    
C13   C14   1.418925 A    
C16   C17   1.389966 A    
C64   N2    1.427297 S    
O16   V4    2.013211 S    
H22   C63   1.083063 S    
O12   V3    2.003503 S    
C15   C16   1.393521 A    
C47   S3    1.776426 S    
O5    C3    1.298125 A    
C17   C18   1.393697 A    
C33   C68   1.490515 S    
C29   C34   1.398385 A    
C63   C64   1.400798 A    
O19   C68   1.300367 A    
C5    C6    1.393259 A    
V4    O20   2.156431 S    
C1    C49   1.486144 S    
V3    O20   1.710257 S    
O8    V2    1.997643 S    
C35   C40   1.412079 A    
C19   H9    1.073132 S    
C6    C7    1.389920 A    
C35   H15   1.078005 S    
C42   C43   1.402654 A    
S2    O26   1.682420 S    
C44   C45   1.409748 A    
O1    V2    2.007279 S    
C10   C14   1.419775 A    
C4    C14   1.492331 S    
C55   C57   1.417679 A    
O7    V1    2.161060 S    
S1    O23   1.679036 S    
O15   V3    2.005027 S    
C7    H4    1.082607 S    
S2    O24   1.501516 D    
C13   C18   1.415386 A    
O9    C4    1.298926 A    
H1    C17   1.082689 S    
C35   C36   1.407314 A    
O17   V3    2.161030 S    
S1    O22   1.503802 D    
C56   C60   1.429395 A    
O11   V4    1.997352 S    
C48   C49   1.408616 A    
O13   V3    1.995465 S    
C5    C10   1.416118 A    
C38   C41   1.403037 A    
C57   C65   1.487590 S    
O23   H28   0.990412 S    
C41   H17   1.083903 S    
C11   C12   1.420195 A    
C6    H3    1.082923 S    
C50   H20   1.084478 S    
C57   C58   1.420520 A    
O4    C2    1.303380 A    
C52   C53   1.385203 A    
C12   C13   1.427143 A    
C33   C34   1.402033 A    
C40   C47   1.423393 A    
C58   C61   1.417883 A    
C41   C42   1.396723 A    
C22   C25   1.417312 A    
O14   V3    1.995606 S    
C3    C20   1.487018 S    
C27   C32   1.427526 A    
S3    O28   1.503877 D    
C23   C24   1.412658 A    
C21   H10   1.076778 S    
C36   C37   1.401047 A    
C27   C28   1.412168 A    
C36   C66   1.482807 S    
C32   S2    1.785135 S    
C62   C63   1.378119 A    
C34   H12   1.084873 S    
C30   C31   1.393677 A    
C43   C48   1.401956 A    
C7    C8    1.393861 A    
C52   H23   1.082988 S    
O18   V4    2.007329 S    
O3    C4    1.295043 A    
N2    O33   1.301100 A    
C51   N1    1.430853 S    
C24   C31   1.401842 A    
C20   C21   1.403726 A    
C39   C40   1.417605 A    
O6    V2    1.996899 S    
O9    V2    2.007509 S    
O13   C68   1.297788 A    
O29   H30   0.990523 S    
C9    C11   1.419237 A    
S3    O29   1.679320 S    
C5    H2    1.082012 S    
C22   C23   1.418718 A    
C30   H13   1.083826 S    
C48   H19   1.084227 S    
O2    V1    1.995670 S    
C19   C20   1.398826 A    
C32   C33   1.425250 A    
C25   S1    1.779226 S    
C53   H24   1.082220 S    
C23   C28   1.417817 A    
N1    O31   1.300251 A    
C2    C60   1.499797 S    
C26   C27   1.410434 A    
C28   C29   1.412938 A    
O1    C2    1.296489 A    
C65   O16   1.294276 A    
C54   H25   1.078176 S    
C46   C47   1.406457 A    
O5    V1    1.995654 S    
C51   C56   1.426132 A    
C61   H26   1.076025 S    
C19   C24   1.397505 A    
C8    H5    1.081912 S    
C18   H8    1.081759 S    
C38   C39   1.416465 A    
S3    O27   1.502785 D    
O7    V2    1.707240 S    
O4    V1    2.003656 S    
C26   H11   1.077287 S    
O3    V1    2.005031 S    
V1    O10   1.710246 S    
O17   V4    1.705351 S    
C45   C50   1.408289 A    
O14   C66   1.295952 A    
V2    O10   2.156357 S    
C58   C59   1.428984 A    
O19   V4    1.997580 S    
C43   C44   1.411509 A    
C46   H21   1.083313 S    
N2    O32   1.301522 A    
O15   C67   1.295329 A    
C37   C38   1.402785 A    
C25   C26   1.404738 A    
C45   C46   1.400031 A    
C54   C55   1.418056 A    
C15   H6    1.082000 S    
C11   C67   1.493130 S    
C29   C30   1.401505 A    
C62   H27   1.082655 S    
C16   H7    1.082820 S    
S2    O25   1.504573 D    
C9    C10   1.427092 A    
C31   H14   1.083982 S    
C55   C56   1.421459 A    
C8    C9    1.415249 A    
C59   C64   1.432870 A    
C39   C44   1.414129 A    
O8    C3    1.299306 A    
C37   H16   1.084651 S    
