data_str_m9_o7_o18_f0_sra.sym.59
_audit_creation_date              2012-12-11T17:36:20-0500
_audit_creation_method            fapswitch 2.2
_symmetry_space_group_name_H-M    P1
_symmetry_Int_Tables_number       1
_space_group_crystal_system       triclinic
_cell_length_a                    25.898195
_cell_length_b                    6.950798
_cell_length_c                    21.704347
_cell_angle_alpha                 90.000013
_cell_angle_beta                  96.221316
_cell_angle_gamma                 89.99886
_cell_volume                      3884.05743397

loop_
_atom_site_label
_atom_site_type_symbol
_atom_type_description
_atom_site_fract_x
_atom_site_fract_y
_atom_site_fract_z
_atom_type_partial_charge
O1    O     O_R   0.208650 0.594520 0.175450 -0.532435
O2    O     O_R   0.791350 0.405480 0.824550 -0.534107
O3    O     O_R   0.291350 0.094520 0.324550 -0.532431
O4    O     O_R   0.708650 0.905480 0.675450 -0.534114
O5    O     O_R   0.192980 0.260780 0.300160 -0.530725
O6    O     O_R   0.807020 0.739220 0.699840 -0.539616
O7    O     O_R   0.307020 0.760780 0.199840 -0.530727
O8    O     O_R   0.692980 0.239220 0.800160 -0.539620
C1    C     C_R   0.179135 0.430825 0.319084 0.693833
C2    C     C_R   0.822052 0.568673 0.682682 0.695216
C3    C     C_R   0.320866 0.930822 0.180916 0.693860
C4    C     C_R   0.677945 0.068675 0.817313 0.695226
O9    O     O_R   0.202550 0.264660 0.174420 -0.537382
O10   O     O_R   0.797450 0.735340 0.825580 -0.536470
O11   O     O_R   0.297450 0.764660 0.325580 -0.537383
O12   O     O_R   0.702550 0.235340 0.674420 -0.536464
O13   O     O_R   0.300990 0.096480 0.197920 -0.539634
O14   O     O_R   0.699010 0.903520 0.802080 -0.537707
O15   O     O_R   0.199010 0.596480 0.302080 -0.539632
O16   O     O_R   0.800990 0.403520 0.697920 -0.537704
C5    C     C_R   0.191090 0.433179 0.151221 0.688574
C6    C     C_R   0.808852 0.566816 0.848758 0.689053
C7    C     C_R   0.308909 0.933175 0.348780 0.688607
C8    C     C_R   0.691147 0.066820 0.651242 0.689037
O17   O     O_3   0.282290 0.427760 0.257860 -0.365912
O18   O     O_3   0.717710 0.572240 0.742140 -0.363550
O19   O     O_3   0.217710 0.927760 0.242140 -0.365902
O20   O     O_3   0.782290 0.072240 0.757860 -0.363537
V1    V     V_3+5 0.244010 0.152080 0.248540 1.397607
V2    V     V_3+5 0.755990 0.847920 0.751460 1.401291
V3    V     V_3+5 0.255990 0.652080 0.251460 1.397596
V4    V     V_3+5 0.744010 0.347920 0.748540 1.401303
C9    C     C_R   0.657358 0.062006 0.592099 -0.040751
C10   C     C_R   0.342600 0.937902 0.408103 -0.041384
C11   C     C_R   0.842641 0.561985 0.907900 -0.040743
C12   C     C_R   0.157400 0.437923 0.091899 -0.041349
C13   C     C_R   0.645717 0.131014 0.482359 -0.161968
C14   C     C_R   0.354462 0.865538 0.517671 -0.159502
C15   C     C_R   0.854268 0.630793 0.017655 -0.161960
C16   C     C_R   0.145551 0.365748 0.982316 -0.159494
C17   C     C_R   0.677680 0.119078 0.538020 -0.166644
C18   C     C_R   0.322613 0.875952 0.461903 -0.170712
C19   C     C_R   0.822309 0.618924 0.961988 -0.166649
C20   C     C_R   0.177397 0.376105 0.038088 -0.170734
C21   C     C_R   0.604232 0.017339 0.590257 -0.217664
C22   C     C_R   0.395466 0.987221 0.410332 -0.214411
C23   C     C_R   0.895771 0.517386 0.909739 -0.217658
C24   C     C_R   0.104529 0.487166 0.089675 -0.214399
C25   C     C_R   0.570393 0.031255 0.534013 0.088115
C26   C     C_R   0.429357 0.972596 0.466543 0.085963
C27   C     C_R   0.929605 0.531232 0.965988 0.088116
C28   C     C_R   0.070643 0.472602 0.033460 0.085962
C29   C     C_R   0.592512 0.089225 0.479910 0.139666
C30   C     C_R   0.407400 0.911817 0.520447 0.139642
C31   C     C_R   0.907477 0.589064 0.020100 0.139669
C32   C     C_R   0.092608 0.411960 0.979544 0.139645
C33   C     C_R   0.515582 0.992274 0.529540 0.058738
C34   C     C_R   0.484120 0.012635 0.471101 0.058099
C35   C     C_R   0.984420 0.492305 0.970458 0.058734
C36   C     C_R   0.015875 0.512583 0.028904 0.058098
C37   C     C_R   0.508554 0.070750 0.419128 -0.188396
C38   C     C_R   0.491189 0.933521 0.581477 -0.188398
C39   C     C_R   0.991433 0.570558 0.080887 -0.188389
C40   C     C_R   0.008821 0.433685 0.918512 -0.188387
C41   C     C_R   0.561492 0.107548 0.423598 -0.202643
C42   C     C_R   0.438367 0.894450 0.576838 -0.203027
C43   C     C_R   0.938492 0.607304 0.076419 -0.202641
C44   C     C_R   0.061647 0.394667 0.923148 -0.203022
H1    H     H_    0.578362 0.152019 0.382274 0.122094
H2    H     H_    0.421580 0.848374 0.618047 0.122131
H3    H     H_    0.921615 0.651666 0.117751 0.122085
H4    H     H_    0.078441 0.348696 0.881931 0.122121
H5    H     H_    0.408907 0.030989 0.367221 0.093547
H6    H     H_    0.590603 0.977521 0.633647 0.091247
H7    H     H_    0.091081 0.530841 0.132794 0.093531
H8    H     H_    0.909407 0.477664 0.866342 0.091234
H9    H     H_    0.282270 0.833761 0.460680 0.103700
H10   H     H_    0.718404 0.156267 0.539068 0.101843
H11   H     H_    0.217745 0.333981 0.039305 0.103701
H12   H     H_    0.781582 0.656054 0.960944 0.101837
H13   H     H_    0.662570 0.175961 0.441097 0.112262
H14   H     H_    0.337780 0.817559 0.558716 0.112366
H15   H     H_    0.837409 0.675634 0.058924 0.112258
H16   H     H_    0.162242 0.317876 0.941263 0.112360
H17   H     H_    0.487829 0.089349 0.373806 0.122160
H18   H     H_    0.511923 0.914783 0.626794 0.122660
H19   H     H_    0.012153 0.589081 0.126216 0.122154
H20   H     H_    0.988092 0.415016 0.873188 0.122653
C45   C     C_R   0.440127 0.796758 0.096012 0.140099
C46   C     C_R   0.552149 0.175172 0.895403 0.143984
C47   C     C_R   0.059879 0.296760 0.403987 0.140052
C48   C     C_R   0.947849 0.675144 0.604599 0.143971
C49   C     C_R   0.394063 0.771164 0.125874 0.093803
C50   C     C_R   0.594796 0.207851 0.859451 0.090430
C51   C     C_R   0.105944 0.271170 0.374130 0.093779
C52   C     C_R   0.905190 0.707863 0.640525 0.090370
C53   C     C_R   0.363380 0.934445 0.138157 -0.093584
C54   C     C_R   0.634223 0.061598 0.858011 -0.099692
C55   C     C_R   0.136623 0.434452 0.361845 -0.093566
C56   C     C_R   0.865773 0.561586 0.641983 -0.099693
C57   C     C_R   0.369327 0.097722 0.102438 -0.235093
C58   C     C_R   0.632200 0.900565 0.896918 -0.218407
C59   C     C_R   0.130673 0.597729 0.397564 -0.235081
C60   C     C_R   0.867809 0.400515 0.603093 -0.218386
H21   H     H_    0.340949 0.208604 0.102579 0.155894
H22   H     H_    0.661599 0.789404 0.897887 0.129973
H23   H     H_    0.159047 0.708618 0.397420 0.155888
H24   H     H_    0.838416 0.289337 0.602133 0.129957
C61   C     C_R   0.407932 0.110746 0.062199 -0.194830
C62   C     C_R   0.594074 0.882528 0.937164 -0.196479
C63   C     C_R   0.092069 0.610739 0.437807 -0.194835
C64   C     C_R   0.905940 0.382463 0.562853 -0.196546
H25   H     H_    0.409459 0.236349 0.032876 0.126121
H26   H     H_    0.595249 0.759895 0.968137 0.128261
H27   H     H_    0.090542 0.736336 0.467132 0.126124
H28   H     H_    0.904772 0.259810 0.531890 0.128240
C65   C     C_R   0.444656 0.964480 0.060257 0.103917
C66   C     C_R   0.554382 0.018022 0.937190 0.086286
C67   C     C_R   0.055349 0.464466 0.439749 0.103973
C68   C     C_R   0.945629 0.517970 0.562824 0.086396
C69   C     C_1   0.483920 0.981789 0.017471 -0.051304
C70   C     C_1   0.516244 0.995737 0.981284 -0.054159
C71   C     C_1   0.016089 0.481755 0.482540 -0.051323
C72   C     C_1   0.983766 0.495695 0.518730 -0.054173
C73   C     C_3   0.483878 0.648457 0.101730 -0.389005
C74   C     C_3   0.533779 0.730903 0.135911 -0.751977
H29   H     H_    0.549727 0.849464 0.109560 0.231662
H30   H     H_    0.526224 0.785215 0.182249 0.224401
H31   H     H_    0.563667 0.615986 0.142446 0.215019
H32   H     H_    0.474815 0.521092 0.129174 0.180183
H33   H     H_    0.491271 0.597112 0.054992 0.180734
C75   C     C_3   0.502414 0.296227 0.887948 -0.368315
C76   C     C_3   0.457378 0.183463 0.853711 -0.747716
H34   H     H_    0.467136 0.140877 0.807020 0.224119
H35   H     H_    0.448349 0.052347 0.879593 0.231273
H36   H     H_    0.422074 0.275159 0.848077 0.212582
H37   H     H_    0.492098 0.341455 0.934175 0.172905
H38   H     H_    0.504997 0.430550 0.861635 0.185664
C77   C     C_3   0.016130 0.148460 0.398247 -0.389027
C78   C     C_3   0.966219 0.230970 0.364109 -0.751749
H39   H     H_    0.950233 0.349314 0.390545 0.231592
H40   H     H_    0.973776 0.285656 0.317806 0.224379
H41   H     H_    0.936355 0.115966 0.357496 0.214993
H42   H     H_    0.025194 0.021190 0.370757 0.180174
H43   H     H_    0.008753 0.096972 0.444975 0.180723
C79   C     C_3   0.997580 0.796219 0.612069 -0.368367
C80   C     C_3   0.042627 0.683428 0.646276 -0.747748
H44   H     H_    0.032835 0.640398 0.692916 0.224146
H45   H     H_    0.051732 0.552578 0.620303 0.231273
H46   H     H_    0.077898 0.775288 0.652032 0.212577
H47   H     H_    0.007885 0.841565 0.565848 0.172915
H48   H     H_    0.994990 0.930461 0.638425 0.185738
C81   C     C_3   0.370403 0.572856 0.127461 -0.341949
C82   C     C_3   0.318696 0.561680 0.084750 -0.692838
H49   H     H_    0.298783 0.702173 0.076982 0.215467
H50   H     H_    0.325673 0.504928 0.038510 0.194258
H51   H     H_    0.291263 0.465389 0.105595 0.198044
H52   H     H_    0.395970 0.464917 0.110048 0.160070
H53   H     H_    0.366096 0.527655 0.175623 0.194019
C83   C     C_3   0.598185 0.397571 0.824644 -0.341567
C84   C     C_3   0.578143 0.377409 0.756160 -0.695815
H54   H     H_    0.600242 0.265769 0.733537 0.211893
H55   H     H_    0.536408 0.337203 0.751141 0.214445
H56   H     H_    0.582479 0.516693 0.732192 0.208398
H57   H     H_    0.577507 0.516048 0.845258 0.156935
H58   H     H_    0.637763 0.458313 0.830772 0.195069
C85   C     C_3   0.129612 0.072868 0.372563 -0.341994
C86   C     C_3   0.181316 0.061737 0.415282 -0.692843
H59   H     H_    0.201247 0.202198 0.422992 0.215476
H60   H     H_    0.174327 0.005204 0.461540 0.194324
H61   H     H_    0.208739 0.965307 0.394484 0.197959
H62   H     H_    0.104043 0.964948 0.389984 0.160074
H63   H     H_    0.133926 0.027626 0.324406 0.194043
C87   C     C_3   0.901770 0.897686 0.675265 -0.341594
C88   C     C_3   0.921826 0.877786 0.743755 -0.695794
H64   H     H_    0.899745 0.766194 0.766424 0.211952
H65   H     H_    0.963566 0.837646 0.748780 0.214440
H66   H     H_    0.917475 0.017148 0.767672 0.208399
H67   H     H_    0.922427 0.016119 0.654597 0.156938
H68   H     H_    0.862182 0.958341 0.669123 0.195056

loop_
_geom_bond_atom_site_label_1
_geom_bond_atom_site_label_2
_ccdc_geom_bond_type
O17   V3    S    
C55   C59   A    
C25   C29   A    
O1    C5    A    
C74   H29   S    
C87   H68   S    
O19   V1    S    
C9    C21   A    
C16   H16   S    
O3    C7    A    
C80   H44   S    
C10   C18   A    
C78   H41   S    
C56   C60   A    
O15   V3    S    
C62   C66   A    
C84   H54   S    
C61   C65   A    
C71   C72   T    
C88   H65   S    
C5    C12   S    
C45   C73   S    
C47   C67   A    
O7    C3    A    
C6    C11   S    
C38   H18   S    
C35   C40   A    
C26   C30   A    
C52   C87   S    
C36   C39   A    
C46   C66   A    
O2    V4    S    
O9    V1    S    
C80   H45   S    
C78   H40   S    
C23   H8    S    
C14   C18   A    
O4    C8    A    
C51   C55   A    
C43   H3    S    
C50   C54   A    
C57   C61   A    
C60   H24   S    
O1    V3    S    
O13   V1    S    
C59   C63   A    
C66   C70   S    
C81   H52   S    
O3    V1    S    
C65   C69   S    
C87   C88   S    
C28   C36   A    
C68   C72   S    
C73   H32   S    
C1    O15   A    
C86   H61   S    
C15   C31   A    
C2    O16   A    
C75   C76   S    
C16   C32   A    
O2    C6    A    
C76   H36   S    
C74   H30   S    
C58   H22   S    
C10   C22   A    
C83   H58   S    
C11   C19   A    
C62   H26   S    
C16   C20   A    
C82   H50   S    
C44   H4    S    
C85   H63   S    
C13   C29   A    
O11   C7    A    
C34   C37   A    
C86   H60   S    
C11   C23   A    
C35   C36   A    
O12   C8    A    
C14   H14   S    
C57   H21   S    
C24   H7    S    
C13   H13   S    
O10   V2    S    
C84   H55   S    
C46   C50   A    
C88   H66   S    
O5    V1    S    
C48   C52   A    
O17   V1    S    
C39   C43   A    
O7    V3    S    
C38   C42   A    
C48   C79   S    
O8    V4    S    
C33   C38   A    
C80   H46   S    
C78   H39   S    
C82   H51   S    
C85   C86   S    
C60   C64   A    
O18   V4    S    
C15   C19   A    
C74   H31   S    
C19   H12   S    
C54   C58   A    
O19   V3    S    
C45   C49   A    
C51   C85   S    
C21   H6    S    
C26   C34   A    
C81   H53   S    
O5    C1    A    
C17   H10   S    
C63   H27   S    
C77   H42   S    
C73   H33   S    
C49   C53   A    
C31   C43   A    
C88   H64   S    
C14   C30   A    
O20   V4    S    
O8    C4    A    
C7    C10   S    
C21   C25   A    
C69   C70   T    
O9    C5    A    
C83   H57   S    
C2    C56   S    
C82   H49   S    
C37   H17   S    
C79   H48   S    
C63   C67   A    
C86   H59   S    
O6    V2    S    
C45   C65   A    
O18   V2    S    
C67   C71   S    
C76   H34   S    
C47   C77   S    
C12   C20   A    
C27   C35   A    
C40   C44   A    
C64   H28   S    
C84   H56   S    
C29   C41   A    
C64   C68   A    
C79   C80   S    
O16   V4    S    
C77   H43   S    
C50   C83   S    
C39   H19   S    
C4    C54   S    
C20   H11   S    
C3    O13   A    
O6    C2    A    
C25   C33   A    
C23   C27   A    
C77   C78   S    
O11   V3    S    
C85   H62   S    
C30   C42   A    
C61   H25   S    
O12   V4    S    
C22   C26   A    
C8    C9    S    
C3    C53   S    
C9    C17   A    
C83   C84   S    
O10   C6    A    
C49   C81   S    
C48   C68   A    
C15   H15   S    
C32   C44   A    
C33   C34   A    
C73   C74   S    
C41   H1    S    
C52   C56   A    
O20   V2    S    
C46   C75   S    
C12   C24   A    
C27   C31   A    
C13   C17   A    
O4    V2    S    
C58   C62   A    
O14   V2    S    
C47   C51   A    
C79   H47   S    
C37   C41   A    
C24   C28   A    
C42   H2    S    
C18   H9    S    
C1    C55   S    
C4    O14   A    
C76   H35   S    
C59   H23   S    
C75   H37   S    
C81   C82   S    
C75   H38   S    
C87   H67   S    
C40   H20   S    
C22   H5    S    
C53   C57   A    
C28   C32   A    
