data_str_m3_o41_o41_f0_fof.sym.82
_audit_creation_date              2012-12-10T16:39:39-0500
_audit_creation_method            fapswitch 2.2
_symmetry_space_group_name_H-M    P1
_symmetry_Int_Tables_number       1
_space_group_crystal_system       triclinic
_cell_length_a                    16.898673
_cell_length_b                    16.905187
_cell_length_c                    16.78978
_cell_angle_alpha                 66.099499
_cell_angle_beta                  65.781018
_cell_angle_gamma                 65.718965
_cell_volume                      3822.61003402

loop_
_atom_site_label
_atom_site_type_symbol
_atom_type_description
_atom_site_fract_x
_atom_site_fract_y
_atom_site_fract_z
_atom_type_partial_charge
C1    C     C_R   0.325512 0.944892 0.460751 0.058143
C2    C     C_R   0.321274 0.452602 0.970677 0.066119
C3    C     C_R   0.523802 0.397969 0.045036 0.033967
C4    C     C_R   0.078847 0.435423 0.567198 0.031272
C5    C     C_R   0.068821 0.519462 0.388085 0.033840
C6    C     C_R   0.077514 0.668498 0.534479 0.057883
C7    C     C_R   0.029334 0.300411 0.434125 0.059555
C8    C     C_R   0.463061 0.956132 0.465176 -0.052174
C9    C     C_R   0.551515 0.990969 0.552924 -0.052022
C10   C     C_R   0.058425 0.432221 0.432723 -0.049486
C11   C     C_R   0.079159 0.526207 0.525935 -0.053172
C12   C     C_R   0.444052 0.446784 0.017956 -0.050761
C13   C     C_R   0.532576 0.535476 0.051545 -0.052792
C14   C     C_R   0.983339 0.174958 0.430721 0.942435
C15   C     C_R   0.690325 0.992735 0.564075 0.051245
C16   C     C_R   0.037828 0.820593 0.562117 0.895447
C17   C     C_R   0.179262 0.436508 0.966211 0.886691
C18   C     C_R   0.820515 0.562228 0.037875 0.927933
C19   C     C_R   0.438194 0.961751 0.179423 0.890278
C20   C     C_R   0.562486 0.036037 0.820649 0.928384
C21   C     C_R   0.562864 0.821090 0.035923 0.911360
C22   C     C_R   0.430651 0.175441 0.981665 0.922398
C23   C     C_R   0.038050 0.561970 0.820708 0.912240
C24   C     C_R   0.983668 0.430666 0.174742 0.923279
C25   C     C_R   0.824399 0.018804 0.569442 0.943645
C26   C     C_R   0.030987 0.432256 0.300106 0.056073
C27   C     C_R   0.179085 0.964761 0.436795 0.901143
C28   C     C_R   0.417099 0.943851 0.419032 0.066135
C29   C     C_R   0.595626 0.008800 0.596738 0.068359
C30   C     C_R   0.038562 0.388684 0.389422 0.065204
C31   C     C_R   0.079406 0.576444 0.575912 0.072703
C32   C     C_R   0.400796 0.402929 0.998929 0.063920
C33   C     C_R   0.579742 0.581987 0.061440 0.069026
C34   C     C_R   0.277291 0.943629 0.408356 -0.106222
C35   C     C_R   0.731296 0.019044 0.605376 -0.109501
C36   C     C_R   0.998267 0.391928 0.263386 -0.096803
C37   C     C_R   0.079012 0.535072 0.667970 0.055212
C38   C     C_R   0.063928 0.590652 0.721199 -0.120161
C39   C     C_R   0.394444 0.268172 0.983731 -0.100344
C40   C     C_R   0.591226 0.722707 0.058562 -0.113586
C41   C     C_R   0.594146 0.047796 0.722982 -0.122035
C42   C     C_R   0.409370 0.938314 0.279048 -0.112090
C43   C     C_R   0.720962 0.591159 0.061438 -0.122135
C44   C     C_R   0.275846 0.404491 0.958293 -0.104448
C45   C     C_R   0.063122 0.721398 0.590477 -0.111676
C46   C     C_R   0.997448 0.263552 0.392739 -0.106717
C47   C     C_R   0.450444 0.054921 0.706430 -0.241128
C48   C     C_R   0.435260 0.308814 0.011184 0.052395
C49   C     C_R   0.557870 0.915135 0.298625 -0.252826
C50   C     C_R   0.090658 0.703142 0.438981 -0.259779
C51   C     C_R   0.054626 0.253237 0.516433 -0.246247
C52   C     C_R   0.701578 0.442346 0.084830 -0.245787
C53   C     C_R   0.288892 0.547284 0.959268 -0.252771
C54   C     C_R   0.285820 0.949552 0.552357 -0.250588
C55   C     C_R   0.739767 0.950879 0.492195 -0.244234
C56   C     C_R   0.508399 0.259708 0.050652 -0.242928
C57   C     C_R   0.445440 0.711874 0.062092 -0.242907
C58   C     C_R   0.058291 0.512789 0.251665 -0.245879
C59   C     C_R   0.538032 0.673360 0.061479 0.057650
C60   C     C_R   0.093643 0.439994 0.702791 -0.250040
C61   C     C_R   0.320723 0.936757 0.320849 -0.312918
C62   C     C_R   0.682578 0.047617 0.682095 -0.308584
C63   C     C_R   0.979153 0.311568 0.311549 -0.329577
C64   C     C_R   0.060804 0.680574 0.680658 -0.302890
C65   C     C_R   0.317578 0.316703 0.956464 -0.321144
C66   C     C_R   0.679288 0.680045 0.062471 -0.306626
C67   C     C_R   0.695684 0.940580 0.443979 0.103599
C68   C     C_R   0.325511 0.976888 0.590838 0.105977
C69   C     C_R   0.090125 0.391081 0.654561 0.112156
C70   C     C_R   0.545713 0.038867 0.675702 0.064588
C71   C     C_R   0.071883 0.558530 0.296099 0.099940
C72   C     C_R   0.404712 0.671159 0.038386 0.108972
C73   C     C_R   0.556009 0.303884 0.061487 0.101422
C74   C     C_R   0.604777 0.921298 0.347443 0.109407
C75   C     C_R   0.408023 0.030282 0.667745 0.112389
C76   C     C_R   0.326472 0.588678 0.986320 0.108118
C77   C     C_R   0.652430 0.395155 0.079945 0.109302
C78   C     C_R   0.069997 0.297567 0.561116 0.101488
C79   C     C_R   0.088588 0.654000 0.389931 0.110373
C80   C     C_R   0.744886 0.910002 0.365883 -0.202106
C81   C     C_R   0.462205 0.932512 0.330743 0.059851
C82   C     C_R   0.276433 0.002642 0.671554 -0.211798
C83   C     C_R   0.096332 0.298642 0.692783 -0.202306
C84   C     C_R   0.087960 0.643351 0.249957 -0.197559
C85   C     C_R   0.321778 0.718808 0.017970 -0.199129
C86   C     C_R   0.635337 0.255298 0.088998 -0.199972
C87   C     C_R   0.699620 0.902330 0.316892 -0.209863
C88   C     C_R   0.316437 0.032517 0.707814 -0.198722
C89   C     C_R   0.284717 0.678956 0.988765 -0.213292
C90   C     C_R   0.684129 0.300738 0.096314 -0.201859
C91   C     C_R   0.086536 0.252210 0.646363 -0.195555
C92   C     C_R   0.669022 0.537758 0.069032 0.060839
C93   C     C_R   0.095529 0.691008 0.296677 -0.208786
C94   C     C_R   0.556095 0.947090 0.428365 0.032408
C95   C     C_R   0.458312 0.000476 0.589264 0.029822
C96   C     C_R   0.068378 0.388598 0.520610 0.033797
C97   C     C_R   0.078418 0.566752 0.434804 0.033082
C98   C     C_R   0.406260 0.539067 0.012542 0.034146
C99   C     C_R   0.570157 0.443064 0.057875 0.032426
C100  C     C_R   0.601041 0.960453 0.474554 0.033515
C101  C     C_R   0.415434 0.978656 0.547943 0.034723
C102  C     C_R   0.448126 0.582007 0.033679 0.032246
H1    H     H_    0.282174 0.938672 0.281615 0.193345
H2    H     H_    0.089655 0.181400 0.678209 0.132023
H3    H     H_    0.746519 0.262010 0.114872 0.139008
H4    H     H_    0.222244 0.717920 0.970392 0.130627
H5    H     H_    0.206328 0.002459 0.704898 0.126520
H6    H     H_    0.818206 0.894173 0.341401 0.139597
H7    H     H_    0.661051 0.182369 0.102420 0.139888
H8    H     H_    0.287540 0.788030 0.021028 0.131661
H9    H     H_    0.092072 0.674031 0.178369 0.135395
H10   H     H_    0.106609 0.262758 0.759463 0.132233
H11   H     H_    0.407751 0.086837 0.760227 0.168692
H12   H     H_    0.716069 0.062820 0.714870 0.193700
H13   H     H_    0.597323 0.893424 0.237728 0.169792
H14   H     H_    0.104068 0.767457 0.400757 0.174240
H15   H     H_    0.064908 0.181792 0.547874 0.186782
H16   H     H_    0.763297 0.403104 0.104107 0.171557
H17   H     H_    0.235597 0.591188 0.927817 0.175306
H18   H     H_    0.224952 0.931304 0.597126 0.180514
H19   H     H_    0.812612 0.923225 0.473179 0.182613
H20   H     H_    0.529210 0.186974 0.075913 0.184518
H21   H     H_    0.402384 0.773135 0.080949 0.176174
H22   H     H_    0.071471 0.541836 0.179171 0.188788
H23   H     H_    0.951893 0.284056 0.283552 0.190983
H24   H     H_    0.108768 0.402191 0.766834 0.170565
H25   H     H_    0.049113 0.721692 0.722203 0.196807
H26   H     H_    0.285800 0.283636 0.939673 0.189558
H27   H     H_    0.718843 0.719224 0.058161 0.194512
H28   H     H_    0.276744 0.054340 0.768825 0.130907
H29   H     H_    0.738811 0.881100 0.255507 0.138100
H30   H     H_    0.105119 0.757463 0.260250 0.132680
O1    O     O_R   0.982940 0.138950 0.510160 -0.646299
O2    O     O_R   0.982940 0.510160 0.138950 -0.650987
O3    O     O_R   0.861050 0.017060 0.489840 -0.640142
O4    O     O_R   0.138950 0.982940 0.510160 -0.658870
O5    O     O_R   0.867700 0.025880 0.612340 -0.621903
O6    O     O_R   0.132300 0.974120 0.387660 -0.637666
O7    O     O_R   0.025880 0.612340 0.867700 -0.629525
O8    O     O_R   0.974120 0.387660 0.132300 -0.634607
O9    O     O_R   0.612340 0.867700 0.025880 -0.631003
O10   O     O_R   0.387660 0.132300 0.974120 -0.635366
O11   O     O_R   0.387660 0.974120 0.132300 -0.634473
O12   O     O_R   0.017060 0.861050 0.489840 -0.651492
O13   O     O_R   0.612340 0.025880 0.867700 -0.615197
O14   O     O_R   0.132300 0.387660 0.974120 -0.633480
O15   O     O_R   0.867700 0.612340 0.025880 -0.618699
O16   O     O_R   0.974120 0.132300 0.387660 -0.620677
O17   O     O_R   0.025880 0.867700 0.612340 -0.634696
O18   O     O_R   0.138950 0.510160 0.982940 -0.655779
O19   O     O_R   0.861050 0.489840 0.017060 -0.628411
O20   O     O_R   0.510160 0.982940 0.138950 -0.647756
O21   O     O_R   0.489840 0.017060 0.861050 -0.632965
O22   O     O_R   0.489840 0.861050 0.017060 -0.639412
O23   O     O_R   0.510160 0.138950 0.982940 -0.644650
O24   O     O_R   0.017060 0.489840 0.861050 -0.630231
Zn1   Zn    Zn3+2 0.004880 0.004880 0.583590 0.917790
Zn2   Zn    Zn3+2 0.995120 0.995120 0.416410 0.922838
Zn3   Zn    Zn3+2 0.004880 0.583590 0.004880 0.917403
Zn4   Zn    Zn3+2 0.995120 0.416410 0.995120 0.932874
Zn5   Zn    Zn3+2 0.583590 0.004880 0.004880 0.929014
Zn6   Zn    Zn3+2 0.416410 0.995120 0.995120 0.922683

loop_
_geom_bond_atom_site_label_1
_geom_bond_atom_site_label_2
_ccdc_geom_bond_type
C55   H19   S    
O9    Zn5   S    
C6    C45   A    
C54   H18   S    
C32   C48   A    
C74   C94   A    
C17   O18   A    
C79   C93   A    
C88   H28   S    
C91   H2    S    
O15   Zn3   S    
C50   C79   A    
C20   C41   S    
C75   C95   A    
C14   C46   S    
O23   Zn5   S    
C21   C40   S    
C24   C36   S    
C72   C102  A    
C27   O4    A    
C23   O7    A    
C61   H1    S    
C62   H12   S    
C80   C87   A    
C47   H11   S    
C58   C71   A    
C57   C59   A    
O14   Zn4   S    
C87   H29   S    
C14   O16   A    
C2    C32   A    
C49   C81   A    
O6    Zn2   S    
C3    C12   A    
C4    C96   A    
C78   C96   A    
C89   H4    S    
C1    C28   A    
C21   O22   A    
C77   C99   A    
C16   O17   A    
C10   C96   A    
C74   C87   A    
C35   C62   A    
C93   H30   S    
C8    C101  A    
C9    C95   A    
O11   Zn6   S    
C12   C98   A    
O20   Zn5   S    
C19   C42   S    
C9    C29   A    
C76   C89   A    
C66   H27   S    
O2    Zn3   S    
C11   C31   A    
C33   C59   A    
C40   C59   A    
C40   C66   A    
C23   O24   A    
C12   C32   A    
C39   C65   A    
C44   C65   A    
C42   C81   A    
C41   C62   A    
C3    C73   A    
C15   C35   A    
C4    C69   A    
C79   C97   A    
C1    C34   A    
C15   C29   A    
C38   C64   A    
C22   O23   A    
C27   C34   S    
C83   H10   S    
C77   C90   A    
C84   H9    S    
O18   Zn3   S    
C27   O6    A    
C7    C46   A    
O24   Zn4   S    
C86   H7    S    
C8    C94   A    
C68   C101  A    
C85   H8    S    
C20   O21   A    
C33   C92   A    
C2    C44   A    
C85   C89   A    
C52   C77   A    
C98   C102  A    
C34   C61   A    
C24   O8    A    
C31   C37   A    
C15   C55   A    
C13   C99   A    
C25   O5    A    
C1    C54   A    
C65   H26   S    
C47   C70   A    
C13   C33   A    
C37   C38   A    
C69   C83   A    
C57   H21   S    
C10   C30   A    
C94   C100  A    
C64   H25   S    
C22   O10   A    
C50   H14   S    
C19   O20   A    
O16   Zn2   S    
C82   H5    S    
C6    C50   A    
C4    C11   A    
C26   C58   A    
C42   C61   A    
C63   H23   S    
C67   C100  A    
C25   C35   S    
O4    Zn1   S    
C26   C36   A    
C49   H13   S    
C5    C97   A    
C18   O15   A    
C9    C100  A    
C86   C90   A    
C8    C28   A    
C52   C92   A    
C53   C76   A    
O12   Zn2   S    
C18   O19   A    
C36   C63   A    
C71   C84   A    
C7    C51   A    
C24   O2    A    
C48   C56   A    
C19   O11   A    
C56   C73   A    
C16   O12   A    
C28   C81   A    
C49   C74   A    
O22   Zn6   S    
C67   C80   A    
C90   H3    S    
C47   C75   A    
C2    C53   A    
C16   C45   S    
O10   Zn6   S    
C55   C67   A    
C53   H17   S    
C26   C30   A    
C14   O1    A    
C78   C91   A    
C23   C38   S    
C83   C91   A    
C80   H6    S    
C45   C64   A    
C58   H22   S    
C43   C92   A    
O5    Zn1   S    
O21   Zn6   S    
C11   C97   A    
C68   C82   A    
O19   Zn4   S    
C60   H24   S    
C17   O14   A    
C17   C44   S    
C21   O9    A    
C5    C10   A    
C5    C71   A    
C18   C43   S    
O8    Zn4   S    
C72   C85   A    
C46   C63   A    
O13   Zn5   S    
C60   C69   A    
C43   C66   A    
C82   C88   A    
C22   C39   S    
C51   H15   S    
C6    C31   A    
C29   C70   A    
O1    Zn1   S    
C84   C93   A    
C57   C72   A    
C25   O3    A    
C73   C86   A    
C51   C78   A    
C37   C60   A    
O7    Zn3   S    
C3    C99   A    
C75   C88   A    
C54   C68   A    
C7    C30   A    
O3    Zn2   S    
C20   O13   A    
C41   C70   A    
O17   Zn1   S    
C13   C102  A    
C76   C98   A    
C95   C101  A    
C56   H20   S    
C39   C48   A    
C52   H16   S    
