data_str_m2_o14_o23_f0_pcu.sym.90
_audit_creation_date              2012-12-10T17:22:13-0500
_audit_creation_method            fapswitch 2.2
_symmetry_space_group_name_H-M    P1
_symmetry_Int_Tables_number       1
_space_group_crystal_system       triclinic
_cell_length_a                    15.900829
_cell_length_b                    10.778622
_cell_length_c                    9.712465
_cell_angle_alpha                 90.1161
_cell_angle_beta                  93.122114
_cell_angle_gamma                 96.861632
_cell_volume                      1650.17307574

loop_
_atom_site_label
_atom_site_type_symbol
_atom_type_description
_atom_site_fract_x
_atom_site_fract_y
_atom_site_fract_z
_atom_type_partial_charge
C1    C     C_R   0.488890 0.261950 0.498331 0.879535
C2    C     C_R   0.396220 0.053119 0.844554 -0.121737
C3    C     C_R   0.444107 0.955183 0.874106 -0.135651
C4    C     C_R   0.340278 0.495599 0.496585 0.836871
C5    C     C_R   0.478554 0.894410 0.766824 -0.053736
C6    C     C_R   0.471391 0.939219 0.629913 -0.016777
C7    C     C_R   0.446707 0.059824 0.614947 -0.104629
C8    C     C_R   0.467131 0.125420 0.494447 -0.263719
C9    C     C_R   0.465863 0.056246 0.372082 0.597194
C10   C     C_R   0.459481 0.927124 0.379395 0.595606
C11   C     C_R   0.479184 0.869867 0.505443 -0.305248
C12   C     C_3   0.955892 0.415058 0.637979 0.237471
C13   C     C_R   0.642710 0.627869 0.150974 0.296395
C14   C     C_R   0.718959 0.630354 0.087021 0.477728
C15   C     C_R   0.715586 0.660541 0.947337 0.169176
C16   C     C_R   0.493923 0.737015 0.501308 0.960895
C17   C     C_R   0.638505 0.631861 0.871054 0.472620
C18   C     C_R   0.567863 0.563705 0.931280 -0.036588
C19   C     C_R   0.568421 0.563939 0.080050 -0.088901
C20   C     C_R   0.434629 0.438861 0.064513 0.498052
C21   C     C_R   0.436433 0.439669 0.918670 -0.075542
C22   C     C_R   0.659407 0.495909 0.503039 0.861359
C23   C     C_3   0.914680 0.462403 0.499552 -0.295558
C24   C     C_3   0.053347 0.418094 0.628495 -0.601651
C25   C     C_3   0.033982 0.371619 0.375888 0.347953
C26   C     C_3   0.935168 0.366537 0.386383 -0.013042
C27   C     C_1   0.748103 0.480865 0.508671 -0.009301
C28   C     C_3   0.081010 0.464184 0.485541 -0.207621
C29   C     C_3   0.957654 0.594551 0.462848 0.439020
C30   C     C_3   0.055087 0.597320 0.461571 1.064761
C31   C     C_1   0.822566 0.468476 0.507293 0.245803
C32   C     C_1   0.173660 0.470604 0.483289 0.179339
C33   C     C_1   0.249827 0.482030 0.488016 0.008596
C34   C     C_R   0.392785 0.101827 0.711298 0.421345
Cu1   Cu    Cu3+1 0.499990 0.499990 0.640660 1.055706
Cu2   Cu    Cu3+1 0.500010 0.500010 0.359340 1.155881
F1    F     F_    0.465815 0.111192 0.246481 -0.588925
F2    F     F_    0.426716 0.858838 0.267420 -0.576509
F3    F     F_    0.791202 0.664142 0.165661 -0.554497
F4    F     F_    0.631292 0.689789 0.749326 -0.595638
F5    F     F_    0.060169 0.403549 0.245655 -0.587628
F6    F     F_    0.094066 0.678223 0.563662 -0.560494
F7    F     F_    0.082145 0.642603 0.335784 -0.604571
F8    F     F_    0.936508 0.685001 0.551621 -0.498167
H1    H     H_    0.929111 0.315773 0.651058 0.143633
H2    H     H_    0.912481 0.271300 0.423359 0.135475
H3    H     H_    0.033686 0.636073 0.862186 0.378677
H4    H     H_    0.208512 0.274845 0.720800 0.379882
H5    H     H_    0.219298 0.424214 0.175590 0.419691
H6    H     H_    0.712199 0.963792 0.197784 0.394686
H7    H     H_    0.902346 0.711381 0.996220 0.407132
H8    H     H_    0.962759 0.528537 0.144973 0.409307
H9    H     H_    0.089172 0.478629 0.710105 0.274397
H10   H     H_    0.932712 0.620704 0.359703 0.171392
H11   H     H_    0.356830 0.083581 0.922185 0.238505
H12   H     H_    0.447321 0.918315 0.977561 0.252736
H13   H     H_    0.509199 0.814207 0.795673 0.221242
H14   H     H_    0.070835 0.322292 0.646450 0.201589
H15   H     H_    0.384761 0.392393 0.856814 0.226006
H16   H     H_    0.052311 0.276589 0.396450 0.161407
N1    N     N_R   0.500800 0.501210 0.147910 -0.209366
N2    N     N_R   0.500820 0.501290 0.852040 -0.194117
O1    O     O_R   0.499990 0.319640 0.618810 -0.601269
O2    O     O_2   0.972248 0.416330 0.910826 -0.210071
O3    O     O_3   0.980751 0.637408 0.803835 -0.385797
O4    O     O_2   0.296919 0.188344 0.500766 -0.276927
O5    O     O_2   0.226979 0.044688 0.663878 -0.194715
O6    O     O_3   0.269965 0.273113 0.741470 -0.541688
O7    O     O_2   0.293717 0.274811 0.019017 -0.266193
O8    O     O_2   0.353118 0.288115 0.253413 -0.201295
O9    O     O_3   0.274819 0.471896 0.158246 -0.484976
O10   O     O_2   0.560592 0.827816 0.170997 -0.272481
O11   O     O_2   0.653485 0.780980 0.373503 -0.263244
O12   O     O_R   0.500000 0.319660 0.381240 -0.510359
O13   O     O_3   0.721206 0.880953 0.160843 -0.422509
O14   O     O_2   0.815685 0.727381 0.739404 -0.118328
O15   O     O_2   0.758700 0.892316 0.862491 -0.167701
O16   O     O_3   0.883265 0.794632 0.983007 -0.360588
O17   O     O_2   0.902885 0.269776 0.130374 -0.117494
O18   O     O_2   0.784790 0.348770 0.237167 -0.272410
O19   O     O_3   0.900379 0.509609 0.141189 -0.429879
O20   O     O_R   0.379430 0.499990 0.618840 -0.586045
O21   O     O_R   0.379440 0.500020 0.381260 -0.514993
O22   O     O_R   0.500000 0.680340 0.618760 -0.552165
O23   O     O_R   0.500010 0.680360 0.381190 -0.478218
O24   O     O_R   0.620560 0.499980 0.618740 -0.523258
O25   O     O_R   0.620570 0.500010 0.381160 -0.580301
O26   O     O_2   0.840880 0.482924 0.811785 -0.245701
S1    S     S_3+6 0.934640 0.488579 0.795710 0.101880
S2    S     S_3+6 0.295204 0.152463 0.649864 0.026865
S3    S     S_3+6 0.338673 0.362744 0.126508 0.083158
S4    S     S_3+6 0.641692 0.780748 0.219068 0.075533
S5    S     S_3+6 0.794607 0.770102 0.879254 0.242349
S6    S     S_3+6 0.878699 0.372045 0.220213 0.131367

loop_
_geom_bond_atom_site_label_1
_geom_bond_atom_site_label_2
_ccdc_geom_bond_type
C26   S6    S    
C1    C8    S    
Cu1   Cu2   S    
C7    C8    A    
O4    S2    D    
C25   C28   S    
O3    S1    S    
C12   C23   S    
C1    O12   A    
C23   C29   S    
C21   H15   S    
C2    H11   S    
C5    C6    A    
O10   S4    D    
Cu1   O24   S    
C29   H10   S    
O16   S5    S    
C16   O22   A    
C18   C19   A    
C3    H12   S    
C23   C26   S    
C20   N1    A    
C14   F3    S    
O8    S3    D    
C8    C9    A    
O6    S2    S    
C25   H16   S    
C9    C10   A    
O26   S1    D    
C2    C34   A    
C13   C14   A    
O2    S1    D    
C1    O1    A    
Cu1   O20   S    
Cu2   O25   S    
C20   S3    S    
C13   C19   A    
C27   C31   T    
C12   S1    S    
C28   C32   S    
O17   S6    D    
C25   F5    S    
C6    C11   A    
C18   N2    A    
C24   H9    S    
O5    S2    D    
C17   F4    S    
C23   C31   S    
C34   S2    S    
C29   C30   S    
O14   S5    D    
C11   C16   S    
C9    F1    S    
C17   C18   A    
O9    S3    S    
C22   O25   A    
H4    O6    S    
C21   N2    A    
Cu2   O12   S    
O13   S4    S    
C22   C27   S    
C13   S4    S    
C16   O23   A    
C7    C34   A    
C30   F7    S    
O18   S6    D    
Cu2   N1    S    
C15   C17   A    
C4    C33   S    
C24   C28   S    
O11   S4    D    
C12   H1    S    
C3    C5    A    
C15   S5    S    
Cu1   O22   S    
C6    C7    A    
Cu2   O23   S    
C12   C24   S    
C5    H13   S    
C10   F2    S    
C32   C33   T    
C28   C30   S    
C2    C3    A    
C25   C26   S    
H7    O16   S    
C29   F8    S    
H6    O13   S    
O19   S6    S    
C4    O21   A    
C19   N1    A    
O15   S5    D    
Cu1   N2    S    
C22   O24   A    
H8    O19   S    
C10   C11   A    
C26   H2    S    
C4    O20   A    
C20   C21   A    
C24   H14   S    
H5    O9    S    
C14   C15   A    
C30   F6    S    
Cu1   O1    S    
Cu2   O21   S    
O7    S3    D    
H3    O3    S    
