data_str_m3_o14_o18_f0_pcu.sym.145
_audit_creation_date              2012-12-10T17:44:30-0500
_audit_creation_method            fapswitch 2.2
_symmetry_space_group_name_H-M    P1
_symmetry_Int_Tables_number       1
_space_group_crystal_system       triclinic
_cell_length_a                    10.051737
_cell_length_b                    10.612532
_cell_length_c                    15.217774
_cell_angle_alpha                 92.345442
_cell_angle_beta                  66.50668
_cell_angle_gamma                 89.462854
_cell_volume                      1486.94994086

loop_
_atom_site_label
_atom_site_type_symbol
_atom_type_description
_atom_site_fract_x
_atom_site_fract_y
_atom_site_fract_z
_atom_type_partial_charge
C1    C     C_R   0.505123 0.737950 0.488664 0.896800
C2    C     C_R   0.386965 0.428904 0.923140 0.124662
C3    C     C_R   0.255415 0.493057 0.982768 0.120076
C4    C     C_R   0.481034 0.382612 0.964780 -0.014896
C5    C     C_R   0.455241 0.427038 0.058758 0.028094
C6    C     C_R   0.314773 0.474071 0.119107 -0.180811
C7    C     C_R   0.214813 0.504126 0.081434 -0.198127
C8    C     C_R   0.601566 0.298608 0.915525 0.093403
C9    C     C_R   0.718305 0.293952 0.946114 0.308104
C10   C     C_R   0.697997 0.350640 0.037224 -0.020119
C11   C     C_R   0.568353 0.421286 0.090750 0.034072
C12   C     C_R   0.407680 0.500744 0.677355 0.850094
C13   C     C_R   0.798900 0.334094 0.079933 -0.097297
C14   C     C_R   0.773045 0.389113 0.170904 -0.231869
C15   C     C_R   0.555594 0.489178 0.174605 -0.170440
C16   C     C_R   0.280903 0.883304 0.447899 -0.187260
C17   C     C_R   0.151029 0.946614 0.467416 0.444204
C18   C     C_R   0.118726 0.060028 0.522403 -0.236853
C19   C     C_R   0.224104 0.115021 0.548477 -0.136974
C20   C     C_R   0.365674 0.059728 0.514317 0.045518
C21   C     C_R   0.382977 0.935153 0.478919 -0.008236
C22   C     C_R   0.509408 0.869099 0.467233 -0.260772
C23   C     C_R   0.495861 0.259689 0.507054 0.906622
C24   C     C_R   0.636939 0.932600 0.439723 0.456695
C25   C     C_R   0.626947 0.054792 0.478546 0.062319
C26   C     C_R   0.492495 0.123029 0.509472 -0.244895
C27   C     C_R   0.785488 0.671594 0.622850 -0.088410
C28   C     C_R   0.819562 0.760618 0.679479 -0.144845
C29   C     C_R   0.959221 0.764867 0.675378 -0.162397
C30   C     C_R   0.064863 0.677387 0.617018 -0.207481
C31   C     C_R   0.035231 0.586126 0.558548 0.202475
C32   C     C_R   0.890895 0.584678 0.559935 0.236196
C33   C     C_R   0.964724 0.418987 0.442350 -0.103264
C34   C     C_R   0.592493 0.495533 0.322864 0.882394
C35   C     C_R   0.106498 0.418240 0.442991 -0.090378
C36   C     C_R   0.348236 0.495697 0.782835 -0.097217
C37   C     C_R   0.649271 0.466045 0.219028 -0.037429
C38   C     C_R   0.172374 0.556158 0.943037 -0.192084
C39   C     C_R   0.221900 0.564398 0.844241 0.178148
C40   C     C_R   0.429124 0.428554 0.823214 -0.250841
H1    H     H_    0.110974 0.546838 0.128497 0.177954
H2    H     H_    0.891805 0.270547 0.048121 0.229022
H3    H     H_    0.306824 0.797723 0.402558 0.199823
H4    H     H_    0.016711 0.109666 0.540099 0.180791
H5    H     H_    0.194297 0.201476 0.592705 0.218151
H6    H     H_    0.941990 0.352990 0.394431 0.138709
H7    H     H_    0.676304 0.676153 0.629073 0.186771
H8    H     H_    0.737437 0.828011 0.725750 0.150486
H9    H     H_    0.467356 0.556869 0.209976 0.152503
H10   H     H_    0.984760 0.836061 0.718471 0.184608
H11   H     H_    0.168254 0.681380 0.620389 0.209281
H12   H     H_    0.187888 0.350931 0.396117 0.155888
H13   H     H_    0.845144 0.365959 0.205467 0.162082
H14   H     H_    0.075091 0.609465 0.989030 0.177773
H15   H     H_    0.531611 0.385542 0.775307 0.194300
H16   H     H_    0.280290 0.489299 0.195752 0.158341
N1    N     N_R   0.856800 0.501200 0.500850 -0.116206
N2    N     N_R   0.142390 0.501280 0.500880 -0.120265
O1    O     O_R   0.385310 0.683220 0.500000 -0.646510
O2    O     O_R   0.614640 0.683250 0.500010 -0.587786
O3    O     O_R   0.319840 0.499980 0.632240 -0.613755
O4    O     O_R   0.549160 0.500000 0.632250 -0.644146
O5    O     O_R   0.385360 0.316750 0.499990 -0.620221
O6    O     O_R   0.614690 0.316780 0.500000 -0.614838
O7    O     O_R   0.450840 0.500000 0.367750 -0.615180
O8    O     O_R   0.680160 0.500020 0.367760 -0.581895
Zn1   Zn    Zn3+2 0.346880 0.499980 0.499990 0.939134
Zn2   Zn    Zn3+2 0.653120 0.500020 0.500010 0.972203
S1    S     S_3+6 0.752008 0.902607 0.317273 0.093168
O9    O     O_2   0.661612 0.866930 0.262078 -0.340140
O10   O     O_2   0.854655 0.793896 0.306751 -0.168481
O11   O     O_3   0.845155 0.031296 0.269722 -0.490782
H17   H     H_    0.771043 0.093417 0.269585 0.333642
S2    S     S_3+6 0.039420 0.889494 0.413189 0.038765
O12   O     O_2   0.889060 0.876113 0.487667 -0.292360
O13   O     O_2   0.038226 0.984155 0.342967 -0.254312
O14   O     O_3   0.100598 0.748357 0.355517 -0.546039
H18   H     H_    0.174059 0.767777 0.291560 0.362420
N3    N     N_2   0.747996 0.101882 0.494256 -0.224706
H19   H     H_    0.816850 0.157174 0.442119 0.265789
C41   C     C_3   0.724286 0.136162 0.592998 -0.668523
H20   H     H_    0.773114 0.228593 0.596922 0.232651
H21   H     H_    0.775300 0.063295 0.620617 0.248661
H22   H     H_    0.607127 0.143168 0.641169 0.224655
S3    S     S_3+6 0.891524 0.228607 0.866448 -0.019154
O15   O     O_2   0.898634 0.090879 0.883957 -0.270417
O16   O     O_2   0.915275 0.242878 0.763352 -0.362717
O17   O     O_3   0.027750 0.301455 0.883123 -0.552302
H23   H     H_    0.012768 0.391129 0.873228 0.349809
N4    N     N_2   0.151916 0.654655 0.810442 -0.310432
H24   H     H_    0.106887 0.616501 0.766114 0.238627
C42   C     C_3   0.230993 0.769686 0.780942 -0.743226
H25   H     H_    0.157915 0.844864 0.775722 0.259409
H26   H     H_    0.323007 0.753979 0.710137 0.206307
H27   H     H_    0.273099 0.803735 0.834801 0.256234
N5    N     N_2   0.593971 0.207213 0.845614 -0.315171
H28   H     H_    0.687622 0.157471 0.804328 0.294794
C43   C     C_3   0.473426 0.122655 0.880595 -0.739957
H29   H     H_    0.367869 0.175430 0.908565 0.276120
H30   H     H_    0.481531 0.065930 0.938143 0.255622
H31   H     H_    0.476057 0.057415 0.820910 0.228048

loop_
_geom_bond_atom_site_label_1
_geom_bond_atom_site_label_2
_ccdc_geom_bond_type
O8    Zn2   S    
C30   H11   S    
C16   C21   A    
C34   C37   S    
C19   C20   A    
C8    N5    S    
C4    C8    A    
C34   O8    A    
C41   H20   S    
O14   H18   S    
S2    O13   D    
C35   N2    A    
O6    Zn2   S    
C31   N2    A    
C28   C29   A    
C5    C11   A    
C3    C7    A    
C1    O1    A    
C30   C31   A    
C18   C19   A    
C23   C26   S    
S1    O10   D    
C15   C37   A    
O1    Zn1   S    
C11   C15   A    
C3    C38   A    
C8    C9    A    
O7    Zn1   S    
S2    O14   S    
N5    C43   S    
C12   C36   S    
C9    C10   A    
C39   N4    S    
C9    S3    S    
C23   O5    A    
C1    C22   S    
C21   C22   A    
C33   H6    S    
C32   N1    A    
C34   O7    A    
C13   H2    S    
C41   H21   S    
C24   S1    S    
C29   H10   S    
S3    O16   D    
C38   C39   A    
O5    Zn1   S    
S2    O12   D    
C36   C40   A    
C24   C25   A    
C1    O2    A    
N3    C41   S    
C16   C17   A    
C25   C26   A    
S3    O15   D    
C42   H27   S    
S1    O11   S    
C2    C4    A    
C29   C30   A    
C18   H4    S    
C12   O4    A    
O3    Zn1   S    
N4    C42   S    
C31   C32   A    
C38   H14   S    
C40   H15   S    
N5    H28   S    
C42   H26   S    
C17   C18   A    
C20   C21   A    
C16   H3    S    
C23   O6    A    
C43   H30   S    
C17   S2    S    
C22   C24   A    
N1    Zn2   S    
C35   H12   S    
C41   H22   S    
S3    O17   S    
C27   H7    S    
C28   H8    S    
C33   N1    A    
C27   C32   A    
C25   N3    S    
C36   C39   A    
C6    H16   S    
O11   H17   S    
C10   C13   A    
C19   H5    S    
C6    C7    A    
C43   H31   S    
O4    Zn2   S    
C2    C3    A    
C14   C37   A    
C12   O3    A    
N4    H24   S    
C5    C6    A    
C20   C26   A    
C42   H25   S    
C33   C35   A    
C15   H9    S    
S1    O9    D    
C7    H1    S    
C10   C11   A    
N3    H19   S    
C2    C40   A    
N2    Zn1   S    
C4    C5    A    
C14   H13   S    
O17   H23   S    
O2    Zn2   S    
C43   H29   S    
C27   C28   A    
C13   C14   A    
