data_str_m12_o9_o13_f0_bcu.sym.94
_audit_creation_date              2012-12-11T17:43:43-0500
_audit_creation_method            fapswitch 2.2
_symmetry_space_group_name_H-M    P1
_symmetry_Int_Tables_number       1
_space_group_crystal_system       triclinic
_cell_length_a                    15.20895
_cell_length_b                    15.234012
_cell_length_c                    16.979375
_cell_angle_alpha                 108.248189
_cell_angle_beta                  105.944824
_cell_angle_gamma                 109.800674
_cell_volume                      3180.10598011

loop_
_atom_site_label
_atom_site_type_symbol
_atom_type_description
_atom_site_fract_x
_atom_site_fract_y
_atom_site_fract_z
_atom_type_partial_charge
C1    C     C_R   0.088201 0.276028 0.032396 -0.133756
C2    C     C_R   0.084854 0.068283 0.952956 -0.243104
C3    C     C_R   0.003366 0.893254 0.937222 0.057136
C4    C     C_R   0.995315 0.076540 0.947948 0.061677
C5    C     C_R   0.092672 0.979888 0.952974 0.044335
C6    C     C_R   0.905846 0.989018 0.929483 0.035126
C7    C     C_R   0.720061 0.942115 0.852699 -0.173179
C8    C     C_R   0.277737 0.072415 0.063238 -0.174654
C9    C     C_R   0.634338 0.005474 0.939881 -0.149430
C10   C     C_R   0.402868 0.025234 0.027031 -0.150200
C11   C     C_R   0.522595 0.684347 0.320394 -0.113799
C12   C     C_R   0.915751 0.711373 0.922827 -0.131775
C13   C     C_R   0.416382 0.323224 0.656851 -0.122959
C14   C     C_R   0.514467 0.654407 0.230931 -0.132814
C15   C     C_R   0.440523 0.347308 0.749128 -0.120956
C16   C     C_R   0.935156 0.506781 0.741864 -0.123677
C17   C     C_R   0.062664 0.541907 0.264889 -0.119449
C18   C     C_R   0.517116 0.561644 0.184178 0.119582
C19   C     C_R   0.486523 0.451662 0.814698 0.115031
C20   C     C_R   0.530297 0.500822 0.229605 -0.178753
C21   C     C_R   0.510172 0.531472 0.787241 -0.183347
C22   C     C_R   0.539137 0.531519 0.319318 -0.112462
C23   C     C_R   0.025883 0.560400 0.736972 0.064495
C24   C     C_R   0.488325 0.507197 0.695405 -0.096530
C25   C     C_R   0.534871 0.622950 0.364530 -0.089924
C26   C     C_R   0.440528 0.403067 0.630084 -0.109324
C27   C     C_R   0.573838 0.496568 0.064431 -0.234636
C28   C     C_R   0.427372 0.506469 0.931881 -0.236444
C29   C     C_R   0.568567 0.470729 0.975804 0.067714
C30   C     C_R   0.430768 0.529581 0.019297 0.062943
C31   C     C_R   0.496014 0.477014 0.909074 0.008743
C32   C     C_R   0.505994 0.528166 0.088037 0.016970
C33   C     C_R   0.632381 0.950132 0.856029 -0.174367
C34   C     C_R   0.971899 0.532084 0.273508 0.072081
C35   C     C_R   0.379523 0.090254 0.086578 -0.152233
C36   C     C_R   0.964038 0.576744 0.359654 0.131238
C37   C     C_R   0.033823 0.593102 0.666165 0.132487
C38   C     C_R   0.137982 0.658077 0.593231 -0.241888
C39   C     C_R   0.862064 0.560789 0.446421 -0.228680
C40   C     C_R   0.719788 0.217961 0.825495 -0.159650
C41   C     C_R   0.242180 0.797599 0.185896 -0.140054
C42   C     C_R   0.129496 0.632662 0.662810 -0.194631
C43   C     C_R   0.867718 0.548721 0.363440 -0.164449
C44   C     C_R   0.945789 0.579887 0.598805 -0.284075
C45   C     C_R   0.664900 0.221983 0.748158 0.087984
C46   C     C_R   0.054456 0.633573 0.441070 -0.284342
C47   C     C_R   0.951993 0.595155 0.523576 0.190087
C48   C     C_R   0.049113 0.634343 0.521104 0.196712
C49   C     C_R   0.558852 0.148471 0.681249 0.112229
C50   C     C_R   0.324562 0.900149 0.357722 0.108968
C51   C     C_R   0.419238 0.088501 0.440624 0.130876
C52   C     C_R   0.424742 0.969600 0.604917 0.139059
C53   C     C_R   0.363102 0.997701 0.358371 -0.240220
C54   C     C_R   0.506935 0.054999 0.683683 -0.249972
C55   C     C_R   0.332877 0.892617 0.438656 -0.292569
C56   C     C_R   0.275448 0.804961 0.272847 0.077953
C57   C     C_R   0.518043 0.163441 0.605463 -0.306369
C58   C     C_R   0.396535 0.980012 0.522640 0.109069
C59   C     C_R   0.441781 0.079066 0.523562 0.093873
C60   C     C_R   0.722780 0.050440 0.021885 0.213291
C61   C     C_R   0.324072 0.939863 0.944252 0.217493
C62   C     C_R   0.811312 0.043196 0.018337 -0.195493
C63   C     C_R   0.221404 0.923179 0.919965 -0.225922
C64   C     C_R   0.291802 0.579179 0.987877 -0.163941
C65   C     C_R   0.703126 0.414148 0.004017 -0.164053
C66   C     C_R   0.810939 0.991540 0.933584 0.089170
C67   C     C_R   0.343539 0.536176 0.029233 0.058334
C68   C     C_R   0.197951 0.989570 0.979382 0.096444
C69   C     C_R   0.727828 0.312032 0.748056 -0.126512
C70   C     C_R   0.246202 0.704294 0.264442 -0.143951
C71   C     C_R   0.286876 0.484146 0.065742 -0.116356
C72   C     C_R   0.712838 0.514488 0.931438 -0.117322
C73   C     C_R   0.107673 0.592733 0.818900 -0.153138
C74   C     C_R   0.891123 0.465573 0.187324 -0.148853
C75   C     C_R   0.916619 0.196336 0.947825 -0.124516
C76   C     C_R   0.086849 0.797537 0.003719 -0.140473
C77   C     C_R   0.001015 0.179282 0.971446 0.056667
C78   C     C_R   0.652354 0.458208 0.962689 0.069014
C79   C     C_R   0.003522 0.804494 0.953359 0.065113
C80   C     C_3   0.462791 0.191085 0.435403 -0.453624
C81   C     C_3   0.568509 0.217763 0.432947 -0.205553
C82   C     C_3   0.612445 0.320569 0.427268 -0.981835
C83   C     C_3   0.383933 0.865938 0.608455 -0.445187
C84   C     C_3   0.444224 0.807490 0.581832 -0.236738
C85   C     C_3   0.404209 0.702028 0.583394 -0.969800
C86   C     C_3   0.721472 0.104009 0.112470 -0.461154
C87   C     C_3   0.708654 0.201670 0.121137 -0.256111
C88   C     C_3   0.706483 0.255497 0.212512 -0.924913
C89   C     C_R   0.909879 0.897554 0.918963 -0.238298
C90   C     C_3   0.349684 0.867331 0.882190 -0.475049
C91   C     C_3   0.406353 0.821466 0.933319 -0.238868
C92   C     C_3   0.421601 0.737794 0.869436 -0.943076
H1    H     H_    0.166628 0.290796 0.066572 0.093658
H2    H     H_    0.419560 0.284777 0.768822 0.113794
H3    H     H_    0.532253 0.428898 0.195213 0.108559
H4    H     H_    0.544699 0.612296 0.836937 0.120490
H5    H     H_    0.548807 0.484111 0.353652 0.108335
H6    H     H_    0.506494 0.568972 0.674631 0.110930
H7    H     H_    0.634863 0.498032 0.117003 0.127509
H8    H     H_    0.367276 0.505751 0.878973 0.143327
H9    H     H_    0.129661 0.663481 0.440782 0.111489
H10   H     H_    0.871152 0.549745 0.600262 0.119604
H11   H     H_    0.796622 0.510893 0.302173 0.115854
H12   H     H_    0.839191 0.683319 0.871594 0.088154
H13   H     H_    0.197080 0.638432 0.710683 0.125321
H14   H     H_    0.212088 0.684747 0.590882 0.146157
H15   H     H_    0.786995 0.532572 0.447634 0.135560
H16   H     H_    0.856882 0.481057 0.695495 0.089921
H17   H     H_    0.138709 0.579219 0.318940 0.087579
H18   H     H_    0.562927 0.913935 0.793630 0.127926
H19   H     H_    0.440543 0.155002 0.150737 0.124428
H20   H     H_    0.554503 0.238251 0.607115 0.141150
H21   H     H_    0.295479 0.816875 0.435476 0.131996
H22   H     H_    0.535888 0.044598 0.743948 0.119787
H23   H     H_    0.718320 0.900412 0.787132 0.120906
H24   H     H_    0.353610 0.004115 0.295257 0.122235
H25   H     H_    0.566923 0.013298 0.941210 0.107531
H26   H     H_    0.482394 0.040896 0.046373 0.110563
H27   H     H_    0.880971 0.079075 0.080855 0.116694
H28   H     H_    0.160110 0.859351 0.855312 0.125581
H29   H     H_    0.689819 0.166798 0.854025 0.103168
H30   H     H_    0.254760 0.859716 0.166029 0.094561
H31   H     H_    0.316524 0.627685 0.955931 0.113220
H32   H     H_    0.673447 0.359193 0.029523 0.094011
H33   H     H_    0.707519 0.348105 0.705368 0.089548
H34   H     H_    0.261097 0.124403 0.109996 0.117061
H35   H     H_    0.271678 0.682262 0.317532 0.089429
H36   H     H_    0.307788 0.446425 0.106683 0.103272
H37   H     H_    0.696626 0.557307 0.894313 0.101643
H38   H     H_    0.187208 0.648369 0.843598 0.105082
H39   H     H_    0.810167 0.440368 0.169513 0.101895
H40   H     H_    0.838504 0.141849 0.898494 0.125588
H41   H     H_    0.167539 0.850559 0.031819 0.113806
H42   H     H_    0.841027 0.834024 0.908660 0.129529
H43   H     H_    0.152285 0.134556 0.964262 0.134129
H44   H     H_    0.559923 0.315329 0.363870 0.260858
H45   H     H_    0.541184 0.646295 0.433800 0.101485
H46   H     H_    0.622848 0.385633 0.487968 0.259900
H47   H     H_    0.688739 0.337577 0.425623 0.260672
H48   H     H_    0.623930 0.224102 0.495414 0.195083
H49   H     H_    0.560551 0.154527 0.372202 0.194258
H50   H     H_    0.408761 0.185333 0.372342 0.188538
H51   H     H_    0.467781 0.255179 0.492882 0.181653
H52   H     H_    0.405013 0.711628 0.651244 0.266990
H53   H     H_    0.324497 0.648834 0.528766 0.261468
H54   H     H_    0.454417 0.666022 0.570406 0.247349
H55   H     H_    0.438560 0.794432 0.512089 0.194530
H56   H     H_    0.421009 0.384417 0.558626 0.100525
H57   H     H_    0.527249 0.855509 0.630588 0.194774
H58   H     H_    0.391966 0.879190 0.678904 0.182181
H59   H     H_    0.300035 0.818517 0.563905 0.180200
H60   H     H_    0.644891 0.199966 0.221339 0.261143
H61   H     H_    0.782349 0.286383 0.270211 0.271708
H62   H     H_    0.689839 0.321368 0.213981 0.236703
H63   H     H_    0.773807 0.256384 0.115482 0.206439
H64   H     H_    0.635793 0.181011 0.064883 0.184165
H65   H     H_    0.656824 0.048188 0.118132 0.180366
H66   H     H_    0.794334 0.126925 0.170207 0.195528
H67   H     H_    0.519475 0.755261 0.355552 0.108746
H68   H     H_    0.346580 0.667693 0.821131 0.249717
H69   H     H_    0.460280 0.768103 0.830090 0.272045
H70   H     H_    0.470704 0.714270 0.910870 0.250832
H71   H     H_    0.483593 0.883746 0.987368 0.193471
H72   H     H_    0.361948 0.788039 0.967787 0.185121
H73   H     H_    0.277834 0.803233 0.822814 0.196136
H74   H     H_    0.397301 0.910031 0.854479 0.179826
H75   H     H_    0.377148 0.242563 0.605793 0.123405
H76   H     H_    0.505843 0.703417 0.198075 0.110387
N1    N     N_R   0.055660 0.348550 0.045620 -0.041513
N2    N     N_R   0.185200 0.638170 0.176300 -0.036314
N3    N     N_R   0.201680 0.494570 0.045620 -0.039847
N4    N     N_R   0.798320 0.505430 0.954380 -0.039557
N5    N     N_R   0.068420 0.560530 0.871650 -0.036748
N6    N     N_R   0.931580 0.439470 0.128350 -0.045493
N7    N     N_R   0.948070 0.295860 0.997670 -0.046139
N8    N     N_R   0.051930 0.704140 0.002330 -0.040264
N9    N     N_R   0.944340 0.651450 0.954380 -0.039409
N10   N     N_R   0.960830 0.507850 0.823700 -0.039658
N11   N     N_R   0.039170 0.492150 0.176300 -0.041173
N12   N     N_R   0.811290 0.303410 0.871650 -0.039964
N13   N     N_R   0.188710 0.696590 0.128350 -0.040030
N14   N     N_R   0.205200 0.552990 0.997670 -0.037183
N15   N     N_R   0.794800 0.447010 0.002330 -0.036086
N16   N     N_R   0.814800 0.361830 0.823700 -0.039205
Ni1   Ni    Ni4+2 0.119340 0.493420 0.109960 0.218088
Ni2   Ni    Ni4+2 0.880660 0.506580 0.890040 0.211322
Ni3   Ni    Ni4+2 0.872590 0.372590 0.000000 0.205456
Ni4   Ni    Ni4+2 0.127410 0.627410 0.000000 0.210051

loop_
_geom_bond_atom_site_label_1
_geom_bond_atom_site_label_2
_ccdc_geom_bond_type
C92   H69   S    
C70   H35   S    
C81   H48   S    
C87   C88   S    
N5    Ni4   S    
C27   C29   A    
C1    C77   A    
C14   C18   A    
N3    N14   A    
C25   H45   S    
C76   C79   A    
C19   C31   S    
C41   N13   A    
C15   H2    S    
C81   C82   S    
C11   H67   S    
C72   H37   S    
C75   H40   S    
C15   C19   A    
C40   H29   S    
C27   H7    S    
C24   H6    S    
C72   N4    A    
C19   C21   A    
C85   H53   S    
C38   C42   A    
C11   C14   A    
C57   C59   A    
C57   H20   S    
C11   C25   A    
C49   C54   A    
C12   C79   A    
C49   C57   A    
C60   C62   A    
C65   H32   S    
C7    H23   S    
C37   C42   A    
C61   C63   A    
C51   C80   S    
C72   C78   A    
C40   N12   A    
C29   C78   S    
C83   C84   S    
N4    Ni2   S    
C22   C25   A    
C36   C46   A    
C10   C35   A    
C89   H42   S    
C2    C5    A    
C18   C20   A    
C30   C67   S    
C44   C47   A    
C83   H58   S    
C64   N14   A    
C84   H57   S    
C28   H8    S    
C81   H49   S    
C12   N9    A    
C69   H33   S    
C22   H5    S    
C74   H39   S    
C90   H74   S    
C9    C33   A    
C7    C33   A    
C91   H71   S    
C90   H73   S    
C23   C73   A    
C5    C68   S    
C85   H52   S    
C42   H13   S    
N13   Ni4   S    
C16   N10   A    
N8    Ni4   S    
C83   H59   S    
C40   C45   A    
C46   H9    S    
C46   C48   A    
C50   C53   A    
C39   H15   S    
C62   C66   A    
C45   C69   A    
C64   C67   A    
C76   N8    A    
C85   H54   S    
C4    C6    A    
C91   C92   S    
C60   C86   S    
C86   C87   S    
C39   C43   A    
C55   H21   S    
C58   C59   A    
C23   C37   S    
C75   N7    A    
C1    H1    S    
C50   C56   S    
N9    Ni2   S    
C51   C53   A    
C8    C35   A    
C88   H62   S    
C41   H30   S    
C38   H14   S    
C52   C83   S    
C2    C4    A    
C41   C56   A    
C82   H47   S    
C10   H26   S    
N12   Ni3   S    
N15   Ni3   S    
N6    Ni3   S    
C86   H66   S    
C47   C48   A    
C82   H44   S    
C45   C49   S    
C80   H51   S    
N1    N7    A    
C52   C54   A    
C12   H12   S    
N14   Ni4   S    
C84   C85   S    
C26   H56   S    
C75   C77   A    
C62   H27   S    
C52   C58   A    
C34   C74   A    
C8    H34   S    
N8    N9    A    
C20   H3    S    
C20   C22   A    
C8    C68   A    
C16   C23   A    
C80   H50   S    
C13   C15   A    
N2    N13   A    
C71   N3    A    
C13   C26   A    
C21   C24   A    
C10   C61   A    
C18   C32   S    
C17   C34   A    
C14   H76   S    
C6    C89   A    
C35   H19   S    
C61   C90   S    
C39   C47   A    
C65   N15   A    
C84   H55   S    
C92   H70   S    
C73   H38   S    
C44   H10   S    
C65   C78   A    
C27   C32   A    
C38   C48   A    
C28   C31   A    
C91   H72   S    
C50   C55   A    
C24   C26   A    
C80   C81   S    
C3    C5    A    
C17   H17   S    
C88   H60   S    
C76   H41   S    
C53   H24   S    
C74   N6    A    
N11   Ni1   S    
C21   H4    S    
C64   H31   S    
C63   C68   A    
C56   C70   A    
C2    H43   S    
C92   H68   S    
C3    C89   A    
C9    C60   A    
C87   H63   S    
C88   H61   S    
C37   C44   A    
C28   C30   A    
C70   N2    A    
N1    Ni1   S    
C4    C77   S    
C29   C31   A    
C7    C66   A    
C30   C32   A    
C63   H28   S    
N4    N15   A    
C17   N11   A    
C90   C91   S    
N5    N10   A    
C54   H22   S    
N2    Ni1   S    
C1    N1    A    
C34   C36   S    
N16   Ni2   S    
C67   C71   A    
C73   N5    A    
C71   H36   S    
C86   H65   S    
C43   H11   S    
C13   H75   S    
C16   H16   S    
C69   N16   A    
N7    Ni3   S    
N10   Ni2   S    
C3    C79   S    
C6    C66   S    
C51   C59   A    
C82   H46   S    
C55   C58   A    
N3    Ni1   S    
C87   H64   S    
C36   C43   A    
C33   H18   S    
N6    N11   A    
C9    H25   S    
N12   N16   A    
