data_str_m9_o5_o16_f0_sra.sym.73
_audit_creation_date              2012-12-11T17:14:09-0500
_audit_creation_method            fapswitch 2.2
_symmetry_space_group_name_H-M    P1
_symmetry_Int_Tables_number       1
_space_group_crystal_system       triclinic
_cell_length_a                    18.230608
_cell_length_b                    7.099394
_cell_length_c                    12.970381
_cell_angle_alpha                 90.000575
_cell_angle_beta                  72.127511
_cell_angle_gamma                 90.000712
_cell_volume                      1597.69671727

loop_
_atom_site_label
_atom_site_type_symbol
_atom_type_description
_atom_site_fract_x
_atom_site_fract_y
_atom_site_fract_z
_atom_type_partial_charge
O1    O     O_R   0.453880 0.506200 0.150010 -0.540678
O2    O     O_R   0.546120 0.006200 0.849990 -0.540711
O3    O     O_R   0.604080 0.177770 0.007280 -0.539083
O4    O     O_R   0.395920 0.677770 0.992720 -0.539085
C1    C     C_R   0.635946 0.344511 0.001871 0.732580
C2    C     C_R   0.364053 0.844510 0.998129 0.732613
O5    O     O_R   0.458010 0.176640 0.159130 -0.540944
O6    O     O_R   0.541990 0.676640 0.840870 -0.540927
O7    O     O_R   0.399010 0.004010 0.002930 -0.535424
O8    O     O_R   0.600990 0.504010 0.997070 -0.535443
C3    C     C_R   0.443318 0.344820 0.202075 0.711126
C4    C     C_R   0.556682 0.844818 0.797925 0.711116
O9    O     O_3   0.480810 0.338440 0.948570 -0.377186
O10   O     O_3   0.519190 0.838440 0.051430 -0.377195
V1    V     V_3+5 0.503560 0.064490 0.009540 1.406457
V2    V     V_3+5 0.496440 0.564490 0.990460 1.406473
C5    C     C_R   0.583837 0.764939 0.502256 0.281394
C6    C     C_R   0.416156 0.264918 0.497740 0.281583
H1    H     H_    0.487399 0.767118 0.648398 0.118992
H2    H     H_    0.512596 0.267075 0.351602 0.118959
H3    H     H_    0.670194 0.702421 0.295135 0.165189
H4    H     H_    0.329825 0.202634 0.704884 0.165258
C7    C     C_R   0.591715 0.847969 0.680187 -0.066035
C8    C     C_R   0.408286 0.347978 0.319813 -0.066052
C9    C     C_R   0.951849 0.915293 0.384708 -0.170827
C10   C     C_R   0.048147 0.415223 0.615287 -0.170843
C11   C     C_R   0.918951 0.936404 0.495731 -0.125575
C12   C     C_R   0.081044 0.436311 0.504263 -0.125576
C13   C     C_R   0.839858 0.913356 0.543275 -0.162092
C14   C     C_R   0.160138 0.413302 0.456721 -0.162092
C15   C     C_R   0.791278 0.865129 0.480281 0.097329
C16   C     C_R   0.208722 0.365144 0.519720 0.097345
C17   C     C_R   0.826174 0.835213 0.367108 0.073834
C18   C     C_R   0.173829 0.335260 0.632897 0.073837
C19   C     C_R   0.709465 0.846224 0.525668 0.022131
C20   C     C_R   0.290535 0.346256 0.474332 0.022109
C21   C     C_R   0.664731 0.789120 0.457988 0.101821
C22   C     C_R   0.335269 0.289169 0.542013 0.101766
C23   C     C_R   0.701737 0.752172 0.348097 -0.188503
C24   C     C_R   0.298272 0.252304 0.651915 -0.188504
C25   C     C_R   0.780379 0.778679 0.303135 -0.225092
C26   C     C_R   0.219629 0.278805 0.696878 -0.225074
C27   C     C_R   0.670775 0.878365 0.636719 -0.225741
C28   C     C_R   0.329226 0.378386 0.363280 -0.225778
C29   C     C_R   0.548675 0.792077 0.613402 -0.246072
C30   C     C_R   0.451323 0.292064 0.386597 -0.245939
C31   C     C_R   0.906379 0.864827 0.319795 -0.078263
C32   C     C_R   0.093621 0.364825 0.680206 -0.078251
H5    H     H_    0.700599 0.919812 0.693027 0.108351
H6    H     H_    0.299402 0.419843 0.306974 0.108367
H7    H     H_    0.013056 0.940490 0.348885 0.108099
H8    H     H_    0.986937 0.440380 0.651108 0.108094
H9    H     H_    0.818981 0.934117 0.629559 0.107490
H10   H     H_    0.181014 0.434026 0.370434 0.107489
H11   H     H_    0.954855 0.974530 0.545279 0.128655
H12   H     H_    0.045136 0.474381 0.454710 0.128654
H13   H     H_    0.805080 0.751735 0.217312 0.133859
H14   H     H_    0.194933 0.251914 0.782708 0.133845
C33   C     C_1   0.216341 0.858813 0.000180 -0.187876
C34   C     C_1   0.783659 0.358811 0.999820 -0.187883
C35   C     C_1   0.283633 0.852600 0.998975 -0.189037
C36   C     C_1   0.716367 0.352602 0.001025 -0.189055
O11   O     O_R   0.899030 0.205490 0.002790 -0.533628
O12   O     O_R   0.100970 0.705490 0.997210 -0.533629
O13   O     O_R   0.042000 0.536370 0.840840 -0.537695
O14   O     O_R   0.958000 0.036370 0.159160 -0.537696
C37   C     C_R   0.057766 0.368657 0.798068 0.683193
C38   C     C_R   0.942232 0.868657 0.201932 0.683194
O15   O     O_R   0.895930 0.535070 0.992690 -0.541597
O16   O     O_R   0.104070 0.035070 0.007310 -0.541595
O17   O     O_R   0.953870 0.707520 0.150040 -0.541074
O18   O     O_R   0.046130 0.207520 0.849960 -0.541067
C39   C     C_R   0.864126 0.366772 0.998762 0.727353
C40   C     C_R   0.135874 0.866773 0.001238 0.727364
O19   O     O_3   0.019200 0.374340 0.051340 -0.373772
O20   O     O_3   0.980800 0.874340 0.948660 -0.373769
V3    V     V_3+5 0.996440 0.648350 0.990470 1.423096
V4    V     V_3+5 0.003560 0.148350 0.009530 1.423100
N1    N     N_2   0.538086 0.698879 0.437935 -0.535393
H15   H     H_    0.488993 0.626780 0.480044 0.274190
C41   C     C_3   0.524375 0.829925 0.360241 -0.550051
H16   H     H_    0.465389 0.889411 0.392141 0.205923
H17   H     H_    0.528768 0.753673 0.283891 0.216092
H18   H     H_    0.566835 0.947105 0.341585 0.184284
N2    N     N_2   0.461878 0.198712 0.562058 -0.535384
H19   H     H_    0.510894 0.126342 0.519948 0.274261
C42   C     C_3   0.475801 0.329896 0.639528 -0.550285
H20   H     H_    0.534707 0.389685 0.607231 0.205997
H21   H     H_    0.471773 0.253679 0.715766 0.216230
H22   H     H_    0.433231 0.446833 0.658505 0.184382

loop_
_geom_bond_atom_site_label_1
_geom_bond_atom_site_label_2
_ccdc_geom_bond_type
O14   C38   A    
C42   H20   S    
C7    C29   A    
O16   V4    S    
O12   V3    S    
C3    C8    S    
O15   V3    S    
O1    C3    A    
O2    C4    A    
C26   H14   S    
C2    O7    A    
C41   H16   S    
C12   H12   S    
C23   C25   A    
N2    H19   S    
O5    C3    A    
C14   H10   S    
C4    C7    S    
C16   C20   A    
C2    C35   S    
C19   C21   A    
C5    C29   A    
C11   H11   S    
C11   C13   A    
C34   C39   S    
C5    N1    S    
C7    C27   A    
C34   C36   T    
C37   O18   A    
O18   V4    S    
O13   C37   A    
C18   C26   A    
O16   C40   A    
C15   C17   A    
O15   C39   A    
C14   C16   A    
C19   C27   A    
C9    C31   A    
C10   C32   A    
C24   C26   A    
O6    V2    S    
C6    C30   A    
C41   H17   S    
N2    C42   S    
O14   V4    S    
C33   C35   T    
C6    N2    S    
O13   V3    S    
O20   V3    S    
O4    C2    A    
N1    C41   S    
C27   H5    S    
O5    V1    S    
O11   C39   A    
C16   C18   A    
O4    V2    S    
C9    H7    S    
C10   H8    S    
H3    C23   S    
O6    C4    A    
H4    C24   S    
O1    V2    S    
C5    C21   A    
O2    V1    S    
O19   V3    S    
C33   C40   S    
C42   H21   S    
C8    C28   A    
C15   C19   A    
C20   C28   A    
C18   C32   A    
C31   C38   S    
O17   V3    S    
C41   H18   S    
O3    V1    S    
C28   H6    S    
O20   V4    S    
O3    C1    A    
H1    C29   S    
O9    V2    S    
C9    C11   A    
C10   C12   A    
C17   C25   A    
C12   C14   A    
C6    C22   A    
C8    C30   A    
C1    O8    A    
C21   C23   A    
O8    V2    S    
C22   C24   A    
C13   H9    S    
C38   O17   A    
C17   C31   A    
C20   C22   A    
C1    C36   S    
C32   C37   S    
O7    V1    S    
O19   V4    S    
C25   H13   S    
N1    H15   S    
C13   C15   A    
C42   H22   S    
O12   C40   A    
O10   V1    S    
H2    C30   S    
O11   V4    S    
