data_str_m2_o9_o14_f0_pcu.sym.91
_audit_creation_date              2012-12-10T19:43:27-0500
_audit_creation_method            fapswitch 2.2
_symmetry_space_group_name_H-M    P1
_symmetry_Int_Tables_number       1
_space_group_crystal_system       triclinic
_cell_length_a                    10.857045
_cell_length_b                    10.87413
_cell_length_c                    9.570889
_cell_angle_alpha                 90.016514
_cell_angle_beta                  90.955031
_cell_angle_gamma                 91.943531
_cell_volume                      1129.14064346

loop_
_atom_site_label
_atom_site_type_symbol
_atom_type_description
_atom_site_fract_x
_atom_site_fract_y
_atom_site_fract_z
_atom_type_partial_charge
C1    C     C_R   0.507351 0.262495 0.501408 0.800571
C2    C     C_R   0.208549 0.730997 0.024444 -0.116462
C3    C     C_R   0.932883 0.543958 0.387452 -0.251013
C4    C     C_R   0.871567 0.494759 0.503289 -0.076216
C5    C     C_R   0.939909 0.447354 0.616900 -0.004149
C6    C     C_R   0.067644 0.452689 0.612496 -0.246397
C7    C     C_R   0.128692 0.503069 0.497310 -0.084140
C8    C     C_R   0.060663 0.549338 0.383260 -0.001441
C9    C     C_R   0.868194 0.451049 0.862972 -0.132375
C10   C     C_R   0.827464 0.390012 0.983112 -0.142542
C11   C     C_R   0.806834 0.262503 0.981272 -0.124379
C12   C     C_R   0.262513 0.502296 0.498837 0.793858
C13   C     C_R   0.826649 0.195976 0.859134 -0.163189
C14   C     C_R   0.863507 0.257274 0.737535 -0.160429
C15   C     C_R   0.884100 0.385357 0.738802 0.135666
C16   C     C_R   0.542330 0.116644 0.767893 -0.171987
C17   C     C_R   0.518598 0.054773 0.892302 -0.168757
C18   C     C_R   0.462395 0.938692 0.888747 -0.140584
C19   C     C_R   0.439605 0.880531 0.760911 -0.164003
C20   C     C_R   0.476936 0.936409 0.633760 0.098356
C21   C     C_R   0.511622 0.062417 0.636132 0.096308
C22   C     C_R   0.513511 0.128060 0.506963 -0.118953
C23   C     C_R   0.491331 0.737242 0.500762 0.776365
C24   C     C_R   0.506478 0.063340 0.380455 -0.221461
C25   C     C_R   0.496351 0.936392 0.379740 -0.228534
C26   C     C_R   0.482718 0.871375 0.504994 -0.117883
C27   C     C_R   0.658795 0.667520 0.146763 -0.179038
C28   C     C_R   0.734480 0.750712 0.075671 -0.228064
C29   C     C_R   0.734248 0.750629 0.931836 -0.208143
C30   C     C_R   0.658780 0.666891 0.858384 -0.141752
C31   C     C_R   0.577595 0.582571 0.926459 0.209435
C32   C     C_R   0.577563 0.582685 0.076175 0.210473
C33   C     C_R   0.425887 0.421767 0.072555 -0.051672
C34   C     C_R   0.737555 0.496395 0.501350 0.777930
C35   C     C_R   0.425944 0.421775 0.924486 -0.074661
C36   C     C_R   0.224562 0.784968 0.156385 -0.134632
C37   C     C_R   0.179568 0.724205 0.274616 -0.108181
C38   C     C_R   0.118141 0.609048 0.260864 0.132843
C39   C     C_R   0.104595 0.554358 0.128381 -0.153763
C40   C     C_R   0.150075 0.615192 0.010554 -0.137982
Cu1   Cu    Cu3+1 0.499990 0.499990 0.640660 0.923388
Cu2   Cu    Cu3+1 0.500010 0.500010 0.359340 0.934619
H1    H     H_    0.239964 0.779383 0.932706 0.117002
H2    H     H_    0.776638 0.215129 0.074734 0.127517
H3    H     H_    0.812183 0.096983 0.858279 0.139036
H4    H     H_    0.879072 0.204794 0.643638 0.122997
H5    H     H_    0.510177 0.110805 0.281015 0.157862
H6    H     H_    0.589726 0.204602 0.778654 0.191156
H7    H     H_    0.541705 0.098185 0.991597 0.130972
H8    H     H_    0.439120 0.892476 0.985300 0.133811
H9    H     H_    0.390240 0.792974 0.763889 0.158790
H10   H     H_    0.498837 0.889166 0.280171 0.167350
H11   H     H_    0.269969 0.874712 0.166814 0.120623
H12   H     H_    0.669589 0.673443 0.256783 0.203389
H13   H     H_    0.795113 0.814570 0.132976 0.154082
H14   H     H_    0.794807 0.814272 0.876469 0.147874
H15   H     H_    0.670340 0.670914 0.748750 0.202572
H16   H     H_    0.365274 0.357676 0.867864 0.140379
H17   H     H_    0.190285 0.767700 0.376137 0.102721
H18   H     H_    0.058183 0.465209 0.116610 0.131310
H19   H     H_    0.138655 0.573356 0.908348 0.133270
H20   H     H_    0.881236 0.581816 0.300601 0.152433
H21   H     H_    0.119699 0.414305 0.698889 0.153561
H22   H     H_    0.814346 0.441187 0.078393 0.142617
N1    N     N_R   0.501190 0.501210 0.147910 -0.195739
N2    N     N_R   0.501230 0.501290 0.852040 -0.201916
O1    O     O_R   0.499990 0.319640 0.618810 -0.591923
O2    O     O_R   0.500000 0.319660 0.381240 -0.583999
O3    O     O_R   0.319640 0.500000 0.618780 -0.591209
O4    O     O_R   0.319650 0.500020 0.381210 -0.565592
O5    O     O_R   0.500000 0.680340 0.618760 -0.612946
O6    O     O_R   0.500010 0.680360 0.381190 -0.594390
O7    O     O_R   0.680350 0.499980 0.618790 -0.593435
O8    O     O_R   0.680360 0.500000 0.381220 -0.606794
H23   H     H_    0.365080 0.357791 0.126820 0.135187
H24   H     H_    0.889356 0.548942 0.867043 0.134400

loop_
_geom_bond_atom_site_label_1
_geom_bond_atom_site_label_2
_ccdc_geom_bond_type
C31   N2    A    
C12   O3    A    
C16   C21   A    
Cu1   Cu2   S    
C19   C20   A    
C16   H6    S    
C27   H12   S    
C33   N1    A    
C7    C8    A    
Cu1   O1    S    
C29   C30   A    
C35   H16   S    
C36   C37   A    
C5    C6    A    
Cu1   N2    S    
C30   H15   S    
Cu2   O4    S    
C1    O2    A    
C18   C19   A    
C23   C26   S    
C36   H11   S    
C1    O1    A    
C33   H23   S    
C16   C17   A    
Cu2   N1    S    
C9    H24   S    
C9    C10   A    
Cu1   O5    S    
C1    C22   S    
C21   C22   A    
Cu2   O2    S    
C8    C38   S    
C28   H13   S    
C7    C12   S    
C4    C34   S    
Cu2   O8    S    
C23   O5    A    
C38   C39   A    
C24   C25   A    
C14   H4    S    
C3    C8    A    
C17   H7    S    
C39   C40   A    
C35   N2    A    
C25   C26   A    
C40   H19   S    
C6    H21   S    
C37   C38   A    
C19   H9    S    
C31   C32   A    
C2    H1    S    
Cu2   O6    S    
C17   C18   A    
C11   H2    S    
C37   H17   S    
C34   O8    A    
C22   C24   A    
C3    C4    A    
C18   H8    S    
Cu1   O3    S    
C3    H20   S    
C2    C36   A    
C12   O4    A    
C28   C29   A    
C27   C32   A    
C24   H5    S    
C23   O6    A    
C10   H22   S    
C4    C5    A    
C6    C7    A    
C29   H14   S    
C9    C15   A    
C25   H10   S    
C13   H3    S    
C11   C13   A    
C30   C31   A    
C20   C26   A    
C39   H18   S    
C33   C35   A    
C5    C15   S    
C10   C11   A    
C34   O7    A    
Cu1   O7    S    
C2    C40   A    
C20   C21   A    
C27   C28   A    
C14   C15   A    
C13   C14   A    
C32   N1    A    
