data_str_m9_o16_o25_f0_sra.sym.38
_audit_creation_date              2012-12-11T15:14:42-0500
_audit_creation_method            fapswitch 2.2
_symmetry_space_group_name_H-M    P1
_symmetry_Int_Tables_number       1
_space_group_crystal_system       triclinic
_cell_length_a                    22.246363
_cell_length_b                    7.230326
_cell_length_c                    19.295952
_cell_angle_alpha                 90.000689
_cell_angle_beta                  99.019986
_cell_angle_gamma                 90.000112
_cell_volume                      3065.3425579

loop_
_atom_site_label
_atom_site_type_symbol
_atom_type_description
_atom_site_fract_x
_atom_site_fract_y
_atom_site_fract_z
_atom_type_partial_charge
O1    O     O_R   0.448470 0.506130 0.415700 -0.528531
O2    O     O_R   0.551530 0.006130 0.584300 -0.528533
O3    O     O_R   0.436320 0.174490 0.555800 -0.539678
O4    O     O_R   0.563680 0.674490 0.444200 -0.539677
C1    C     C_R   0.421509 0.344318 0.575608 0.791352
C2    C     C_R   0.578491 0.844318 0.424392 0.791353
O5    O     O_R   0.441350 0.176340 0.414480 -0.542668
O6    O     O_R   0.558650 0.676340 0.585520 -0.542665
O7    O     O_R   0.556600 0.007100 0.441970 -0.529000
O8    O     O_R   0.443400 0.507100 0.558030 -0.528999
C3    C     C_R   0.427394 0.344741 0.388995 0.795218
C4    C     C_R   0.572605 0.844743 0.611005 0.795218
O9    O     O_3   0.537810 0.339550 0.509190 -0.378016
O10   O     O_3   0.462190 0.839550 0.490810 -0.378016
V1    V     V_3+5 0.492990 0.064280 0.498300 1.482551
V2    V     V_3+5 0.507010 0.564280 0.501700 1.482555
C5    C     C_R   0.868140 0.968627 0.695796 -0.126738
C6    C     C_R   0.131861 0.468647 0.304204 -0.126738
H1    H     H_    0.955377 0.996394 0.760090 0.102293
H2    H     H_    0.044624 0.496416 0.239910 0.102295
H3    H     H_    0.786731 0.958529 0.580722 0.153827
H4    H     H_    0.213269 0.458554 0.419278 0.153827
H5    H     H_    0.886934 0.991363 0.647957 0.111254
H6    H     H_    0.113067 0.491391 0.352043 0.111254
C7    C     C_R   0.884817 0.941513 0.822183 -0.037904
C8    C     C_R   0.115183 0.441520 0.177816 -0.037903
C9    C     C_R   0.587951 0.824896 0.741296 0.106269
C10   C     C_R   0.412048 0.324882 0.258704 0.106270
C11   C     C_R   0.626205 0.827234 0.806414 -0.099073
C12   C     C_R   0.373794 0.327218 0.193586 -0.099073
C13   C     C_R   0.688581 0.854396 0.811362 -0.177045
C14   C     C_R   0.311418 0.354386 0.188638 -0.177045
C15   C     C_R   0.716326 0.881324 0.751292 0.011678
C16   C     C_R   0.283674 0.381321 0.248708 0.011678
C17   C     C_R   0.678150 0.880737 0.684053 -0.066294
C18   C     C_R   0.321850 0.380737 0.315947 -0.066293
C19   C     C_R   0.780864 0.909233 0.756105 0.079445
C20   C     C_R   0.219136 0.409237 0.243895 0.079446
C21   C     C_R   0.805516 0.938113 0.693446 0.042394
C22   C     C_R   0.194484 0.438127 0.306554 0.042395
C23   C     C_R   0.767751 0.936978 0.628535 -0.259724
C24   C     C_R   0.232249 0.436994 0.371464 -0.259725
C25   C     C_R   0.705457 0.908474 0.623391 0.571172
C26   C     C_R   0.294543 0.408483 0.376608 0.571171
C27   C     C_R   0.822152 0.910226 0.820675 -0.185293
C28   C     C_R   0.177848 0.410226 0.179324 -0.185295
C29   C     C_R   0.907286 0.971285 0.759566 -0.162527
C30   C     C_R   0.092715 0.471303 0.240433 -0.162526
C31   C     C_R   0.613888 0.851669 0.679458 -0.135981
C32   C     C_R   0.386111 0.351662 0.320542 -0.135981
H7    H     H_    0.807359 0.888688 0.870607 0.087794
H8    H     H_    0.192641 0.388678 0.129392 0.087793
H9    H     H_    0.713907 0.853916 0.863692 0.111340
H10   H     H_    0.286093 0.353905 0.136307 0.111339
H11   H     H_    0.608468 0.807658 0.854914 0.125590
H12   H     H_    0.391531 0.307636 0.145086 0.125588
C33   C     C_3   0.768856 0.774590 0.300978 -0.132369
C34   C     C_3   0.231146 0.274590 0.699021 -0.132340
C35   C     C_3   0.802155 0.955740 0.285782 -0.164290
C36   C     C_3   0.197846 0.455739 0.714217 -0.164302
H13   H     H_    0.845860 0.005771 0.315615 0.116654
H14   H     H_    0.154142 0.505770 0.684382 0.116654
H15   H     H_    0.784750 0.674337 0.343485 0.113887
H16   H     H_    0.215252 0.174337 0.656512 0.113886
H17   H     H_    0.733765 0.198741 0.301258 0.119879
H18   H     H_    0.266239 0.698738 0.698747 0.119884
C37   C     C_1   0.874855 0.940097 0.120641 -0.190052
C38   C     C_1   0.125143 0.440096 0.879357 -0.190040
C39   C     C_1   0.624227 0.854098 0.378443 -0.139432
C40   C     C_1   0.375774 0.354100 0.621559 -0.139436
C41   C     C_3   0.757639 0.732131 0.221507 0.188444
C42   C     C_3   0.242360 0.232134 0.778492 0.188441
C43   C     C_3   0.790478 0.911168 0.206581 0.154495
C44   C     C_3   0.209522 0.411170 0.793417 0.154476
C45   C     C_3   0.696280 0.836465 0.212874 -0.201881
C46   C     C_3   0.303720 0.336465 0.787129 -0.201883
C47   C     C_3   0.708163 0.881269 0.291955 0.137563
C48   C     C_3   0.291840 0.381268 0.708047 0.137559
C49   C     C_3   0.729659 0.017352 0.197936 -0.171411
C50   C     C_3   0.270341 0.517352 0.802066 -0.171393
C51   C     C_3   0.740838 0.062034 0.277614 -0.120393
C52   C     C_3   0.259164 0.562033 0.722388 -0.120395
C53   C     C_1   0.836663 0.928339 0.159118 -0.069391
C54   C     C_1   0.163335 0.428339 0.840880 -0.069396
C55   C     C_1   0.662127 0.865433 0.339584 -0.046445
C56   C     C_1   0.337875 0.365433 0.660418 -0.046447
H19   H     H_    0.713569 0.117154 0.155352 0.117065
H20   H     H_    0.286429 0.617153 0.844652 0.117063
H21   H     H_    0.652614 0.786245 0.182975 0.112766
H22   H     H_    0.347384 0.286242 0.817029 0.112764
O11   O     O_R   0.056650 0.288730 0.942060 -0.532872
O12   O     O_R   0.943350 0.788730 0.057940 -0.532874
O13   O     O_R   0.058660 0.616870 0.085540 -0.535929
O14   O     O_R   0.941340 0.116870 0.914460 -0.535928
C57   C     C_R   0.072821 0.448676 0.110875 0.678939
C58   C     C_R   0.927179 0.948674 0.889125 0.678939
O15   O     O_R   0.063700 0.618520 0.944220 -0.535245
O16   O     O_R   0.936300 0.118520 0.055780 -0.535245
O17   O     O_R   0.948460 0.787610 0.915680 -0.533063
O18   O     O_R   0.051540 0.287610 0.084320 -0.533062
C59   C     C_R   0.078982 0.450003 0.924772 0.715612
C60   C     C_R   0.921018 0.950003 0.075227 0.715615
O19   O     O_3   0.962230 0.453430 0.990860 -0.373006
O20   O     O_3   0.037770 0.953430 0.009140 -0.373005
V3    V     V_3+5 0.007010 0.728750 0.001700 1.421585
V4    V     V_3+5 0.992990 0.228750 0.998300 1.421586
C61   C     C_3   0.764966 0.543031 0.188494 -0.382645
C62   C     C_3   0.827833 0.460655 0.213041 -0.744004
H23   H     H_    0.864000 0.554398 0.200127 0.231216
H24   H     H_    0.834676 0.436059 0.270543 0.217369
H25   H     H_    0.831780 0.326489 0.186242 0.227686
H26   H     H_    0.729780 0.448098 0.203067 0.174394
H27   H     H_    0.757593 0.557560 0.130478 0.180720
C63   C     C_3   0.235029 0.043043 0.811507 -0.382641
C64   C     C_3   0.172173 0.960631 0.786926 -0.744013
H28   H     H_    0.135991 0.054393 0.799789 0.231210
H29   H     H_    0.165367 0.935953 0.729429 0.217365
H30   H     H_    0.168212 0.826501 0.813743 0.227691
H31   H     H_    0.270231 0.948120 0.796963 0.174392
H32   H     H_    0.242373 0.057604 0.869521 0.180726
C65   C     C_3   0.519315 0.794655 0.735770 -0.350152
C66   C     C_3   0.494745 0.771485 0.805005 -0.786520
H33   H     H_    0.514967 0.647462 0.833630 0.224910
H34   H     H_    0.504362 0.896889 0.838139 0.224078
H35   H     H_    0.444622 0.752032 0.793898 0.220446
H36   H     H_    0.495381 0.914465 0.707742 0.166840
H37   H     H_    0.506545 0.668795 0.703763 0.175468
C67   C     C_3   0.480683 0.294639 0.264230 -0.350154
C68   C     C_3   0.505254 0.271474 0.194996 -0.786521
H38   H     H_    0.485032 0.147450 0.166368 0.224910
H39   H     H_    0.495635 0.396877 0.161863 0.224079
H40   H     H_    0.555377 0.252027 0.206102 0.220447
H41   H     H_    0.504618 0.414447 0.292260 0.166839
H42   H     H_    0.493453 0.168777 0.296235 0.175469
F1    F     F_    0.672645 0.909251 0.557956 -0.714628
F2    F     F_    0.327355 0.409263 0.442044 -0.714627

loop_
_geom_bond_atom_site_label_1
_geom_bond_atom_site_label_2
_ccdc_geom_bond_type
C26   F2    S    
C2    C39   S    
C41   C45   S    
C37   C53   T    
C41   C61   S    
C9    C11   A    
C5    C29   A    
C61   H26   S    
O1    C3    A    
C42   C46   S    
O2    C4    A    
C67   C68   S    
C2    O7    A    
C49   H19   S    
C63   C64   S    
C9    C65   S    
O3    V1    S    
C21   C23   A    
O5    C3    A    
C5    H5    S    
C6    H6    S    
C10   C32   A    
C46   C48   S    
C65   H37   S    
H1    C29   S    
C33   C35   S    
C27   H7    S    
C34   C36   S    
C64   H28   S    
C58   O17   A    
C42   C63   S    
C62   H23   S    
C36   H14   S    
C5    C21   A    
C6    C22   A    
C61   H27   S    
O13   V3    S    
C36   C52   S    
C64   H29   S    
C17   C31   A    
C61   C62   S    
C13   C15   A    
C33   H15   S    
C12   C14   A    
C17   C25   A    
C7    C29   A    
C63   H31   S    
C8    C30   A    
C68   H40   S    
O15   V3    S    
C48   C56   S    
O6    V2    S    
C22   C24   A    
C47   C55   S    
O13   C57   A    
C44   C50   S    
C11   C13   A    
C23   C25   A    
O11   V4    S    
C24   C26   A    
O11   C59   A    
C14   H10   S    
O20   V3    S    
C4    C31   S    
C34   H16   S    
O17   V3    S    
C35   H13   S    
C38   C54   T    
C33   C47   S    
C38   C59   S    
C42   C44   S    
C49   C51   S    
C45   H21   S    
C57   O18   A    
O5    V1    S    
C11   H11   S    
O16   C60   A    
C12   H12   S    
C15   C19   A    
C14   C16   A    
O4    V2    S    
C25   F1    S    
C1    C40   S    
C39   C55   T    
C67   H42   S    
H18   C52   S    
C48   C52   S    
H17   C51   S    
C47   C51   S    
O6    C4    A    
C64   H30   S    
C43   C49   S    
O1    V2    S    
C33   C41   S    
O14   C58   A    
O2    V1    S    
C45   C47   S    
C65   C66   S    
H2    C30   S    
H3    C23   S    
O4    C2    A    
C13   H9    S    
C46   C50   S    
C19   C27   A    
C40   C56   T    
C7    C27   A    
C18   C32   A    
C41   C43   S    
C68   H38   S    
C8    C57   S    
C35   C43   S    
O14   V4    S    
C16   C20   A    
C35   C51   S    
C44   C54   S    
O3    C1    A    
C6    C30   A    
O12   C60   A    
O18   V4    S    
O16   V4    S    
C62   H25   S    
C66   H35   S    
C10   C12   A    
O7    V1    S    
C1    O8    A    
C50   H20   S    
C3    C32   S    
O8    V2    S    
C67   H41   S    
C28   H8    S    
C20   C22   A    
C34   C42   S    
H4    C24   S    
C45   C49   S    
C36   C44   S    
C15   C17   A    
C50   C52   S    
C62   H24   S    
O19   V4    S    
C16   C18   A    
C63   H32   S    
C20   C28   A    
C18   C26   A    
C34   C48   S    
C9    C31   A    
O12   V3    S    
C65   H36   S    
C7    C58   S    
C19   C21   A    
O9    V2    S    
O10   V1    S    
C66   H33   S    
C8    C28   A    
C66   H34   S    
C43   C53   S    
O15   C59   A    
C10   C67   S    
C37   C60   S    
C46   H22   S    
C68   H39   S    
