data_str_m2_o1_o26_f0_pcu.sym.52
_audit_creation_date              2012-10-26T20:22:31-0400
_audit_creation_method            fapswitch 2.2
_symmetry_space_group_name_H-M    P1
_symmetry_Int_Tables_number       1
_space_group_crystal_system       triclinic
_cell_length_a                    9.675161
_cell_length_b                    10.794555
_cell_length_c                    17.244295
_cell_angle_alpha                 95.361428
_cell_angle_beta                  86.022619
_cell_angle_gamma                 90.41699
_cell_volume                      1788.77957319

loop_
_atom_site_label
_atom_site_type_symbol
_atom_type_description
_atom_site_fract_x
_atom_site_fract_y
_atom_site_fract_z
_atom_type_partial_charge
C1    C     C_R   0.500239 0.737417 0.499835 0.596884
C2    C     C_R   0.076160 0.406595 0.457265 0.363694
C3    C     C_R   0.070885 0.593758 0.539865 0.322044
C4    C     C_R   0.928706 0.406963 0.459094 0.350387
C5    C     C_R   0.482350 0.500915 0.650150 0.598240
C6    C     C_R   0.518363 0.498764 0.349462 0.595351
C7    C     C_R   0.478697 0.492648 0.735101 -0.044991
C8    C     C_R   0.525896 0.476789 0.262996 -0.051037
C9    C     C_R   0.575704 0.412760 0.760896 -0.150847
C10   C     C_R   0.405434 0.430777 0.229479 -0.142862
C11   C     C_R   0.591121 0.407029 0.840291 0.201028
C12   C     C_R   0.499664 0.262628 0.499961 0.547346
C13   C     C_R   0.406112 0.387096 0.151077 0.235945
C14   C     C_R   0.497811 0.472007 0.895016 -0.022449
C15   C     C_R   0.529131 0.390833 0.103969 0.083223
C16   C     C_R   0.390338 0.544099 0.870243 0.178436
C17   C     C_R   0.654034 0.432481 0.136008 0.158728
C18   C     C_R   0.391173 0.565900 0.790369 0.191459
C19   C     C_R   0.650033 0.486613 0.214640 0.228246
C20   C     C_2   0.523392 0.476501 0.979034 0.337570
C21   C     C_2   0.516945 0.373508 0.018929 0.426259
C22   C     C_R   0.614479 0.931887 0.466284 -0.066080
C23   C     C_R   0.383979 0.068294 0.532336 -0.083437
C24   C     C_R   0.614630 0.060169 0.466720 -0.099082
C25   C     C_R   0.384174 0.939961 0.532196 -0.088131
C26   C     C_R   0.499292 0.128607 0.499656 0.027658
C27   C     C_R   0.499901 0.871509 0.499602 0.035932
C28   C     C_R   0.923663 0.593661 0.542388 0.357857
Cu1   Cu    Cu3+1 0.359340 0.499980 0.500000 1.099306
Cu2   Cu    Cu3+1 0.640660 0.500020 0.500000 1.099079
H1    H     H_    0.644533 0.358399 0.718701 0.142242
H2    H     H_    0.562840 0.653569 0.980935 0.368918
H3    H     H_    0.156155 0.540977 0.046455 0.415560
H4    H     H_    0.780230 0.209477 0.048927 0.360044
H5    H     H_    0.209742 0.343833 0.159877 0.373753
H6    H     H_    0.753601 0.300100 0.820091 0.354193
H7    H     H_    0.910767 0.850182 0.697929 0.381707
H8    H     H_    0.093029 0.171014 0.290374 0.383254
H9    H     H_    0.215708 0.661294 0.598986 0.411707
H10   H     H_    0.786022 0.341090 0.395131 0.374161
H11   H     H_    0.308316 0.428619 0.264258 0.206045
H12   H     H_    0.703049 0.880020 0.439189 0.181238
H13   H     H_    0.294932 0.120406 0.558956 0.175115
H14   H     H_    0.703846 0.105474 0.440379 0.192174
H15   H     H_    0.294937 0.894689 0.558497 0.212649
H16   H     H_    0.813085 0.731032 0.338705 0.365361
H17   H     H_    0.463401 0.803224 0.708063 0.370209
H18   H     H_    0.448951 0.259694 0.934169 0.349615
N1    N     N_R   0.147930 0.499970 0.499980 -0.334838
N2    N     N_R   0.852070 0.500030 0.500020 -0.326044
O1    O     O_R   0.381260 0.680340 0.500000 -0.502227
O2    O     O_2   0.865685 0.640251 0.182407 -0.169923
O3    O     O_3   0.729670 0.696280 0.314385 -0.524255
O4    O     O_2   0.159804 0.651496 0.739939 -0.174197
O5    O     O_2   0.283891 0.797315 0.827117 -0.178036
O6    O     O_3   0.386282 0.754517 0.685523 -0.549925
O7    O     O_3   0.480177 0.256033 0.987273 -0.598633
O8    O     O_3   0.550406 0.590470 0.019113 -0.641744
O9    O     O_2   0.292215 0.723335 0.978594 -0.199835
O10   O     O_2   0.120663 0.612330 0.899759 -0.141494
O11   O     O_3   0.223776 0.498694 0.007121 -0.457239
O12   O     O_R   0.618740 0.319660 0.500000 -0.524031
O13   O     O_2   0.844519 0.515370 0.031928 -0.139366
O14   O     O_2   0.930919 0.387578 0.128208 -0.209384
O15   O     O_3   0.800520 0.278024 0.015453 -0.426387
O16   O     O_3   0.287069 0.340830 0.118878 -0.576456
O17   O     O_3   0.696925 0.339310 0.865849 -0.594779
O18   O     O_2   0.849592 0.833118 0.552368 -0.298250
O19   O     O_2   0.701414 0.708580 0.635258 -0.268886
O20   O     O_3   0.940363 0.764583 0.678417 -0.404446
O21   O     O_2   0.301511 0.285817 0.368229 -0.290996
O22   O     O_2   0.133206 0.163227 0.439844 -0.269939
O23   O     O_R   0.618830 0.680370 0.500010 -0.438641
O24   O     O_3   0.064554 0.254457 0.314800 -0.460760
O25   O     O_3   0.135331 0.694051 0.576202 -0.591007
O26   O     O_3   0.863950 0.308131 0.420507 -0.612234
O27   O     O_R   0.381170 0.319630 0.499990 -0.452382
O28   O     O_R   0.367440 0.500000 0.613600 -0.500646
O29   O     O_R   0.632560 0.500000 0.386400 -0.483016
O30   O     O_R   0.605010 0.500030 0.613600 -0.462651
O31   O     O_R   0.394990 0.499970 0.386400 -0.472024
O32   O     O_2   0.888894 0.502080 0.285658 -0.249404
S1    S     S_3+6 0.789792 0.581190 0.248493 0.098407
S2    S     S_3+6 0.300723 0.695041 0.761810 0.090434
S3    S     S_3+6 0.252856 0.599279 0.939143 0.124282
S4    S     S_3+6 0.813075 0.405998 0.078114 0.128007
S5    S     S_3+6 0.845975 0.725261 0.601511 0.097587
S6    S     S_3+6 0.152397 0.276699 0.395943 0.081657

loop_
_geom_bond_atom_site_label_1
_geom_bond_atom_site_label_2
_ccdc_geom_bond_type
H2    O8    S    
O4    S2    D    
C3    N1    A    
H6    O17   S    
O15   S4    S    
Cu1   N1    S    
Cu1   O31   S    
C3    C28   A    
C24   C26   A    
H8    O24   S    
C11   C14   A    
C23   H13   S    
C15   C17   A    
C23   C26   A    
C28   N2    A    
Cu1   O28   S    
C18   S2    S    
C2    S6    S    
H9    O25   S    
C3    O25   S    
O19   S5    D    
Cu2   O30   S    
Cu2   N2    S    
C6    O31   A    
H7    O20   S    
C10   H11   S    
C19   S1    S    
O20   S5    S    
H4    O15   S    
O14   S4    D    
O22   S6    D    
C11   O17   S    
O6    S2    S    
C13   O16   S    
C8    C19   A    
C17   S4    S    
C14   C20   S    
H18   O7    S    
C5    C7    S    
Cu2   O23   S    
C6    C8    S    
H5    O16   S    
H10   O26   S    
C12   C26   S    
O2    S1    D    
C2    C4    A    
O9    S3    D    
C21   O7    S    
Cu1   Cu2   S    
C2    N1    A    
C12   O12   A    
C7    C18   A    
C12   O27   A    
C28   S5    S    
C5    O30   A    
C9    C11   A    
O11   S3    S    
Cu2   O29   S    
C16   C18   A    
C22   C27   A    
Cu2   O12   S    
O13   S4    D    
C16   S3    S    
C24   H14   S    
C14   C16   A    
C20   O8    S    
C25   H15   S    
Cu1   O1    S    
C7    C9    A    
C10   C13   A    
O10   S3    D    
C25   C27   A    
C1    O1    A    
O3    S1    S    
C1    O23   A    
C13   C15   A    
C5    O28   A    
C6    O29   A    
C22   H12   S    
H3    O11   S    
H16   O3    S    
C17   C19   A    
C22   C24   A    
C23   C25   A    
C4    O26   S    
C9    H1    S    
O21   S6    D    
C15   C21   S    
Cu1   O27   S    
C20   C21   D    
C8    C10   A    
O32   S1    D    
C4    N2    A    
C1    C27   S    
O18   S5    D    
O24   S6    S    
O5    S2    D    
H17   O6    S    
