data_str_m3_o10_o16_f0_pcu.sym.32
_audit_creation_date              2012-12-10T16:51:31-0500
_audit_creation_method            fapswitch 2.2
_symmetry_space_group_name_H-M    P1
_symmetry_Int_Tables_number       1
_space_group_crystal_system       triclinic
_cell_length_a                    7.846643
_cell_length_b                    8.591605
_cell_length_c                    12.407569
_cell_angle_alpha                 92.373101
_cell_angle_beta                  103.815317
_cell_angle_gamma                 93.5083
_cell_volume                      809.383627924

loop_
_atom_site_label
_atom_site_type_symbol
_atom_type_description
_atom_site_fract_x
_atom_site_fract_y
_atom_site_fract_z
_atom_type_partial_charge
C1    C     C_R   0.040746 0.793766 0.492899 1.005950
C2    C     C_R   0.186473 0.620242 0.817507 -0.112633
C3    C     C_2   0.060277 0.957242 0.491641 -0.422799
C4    C     C_R   0.114540 0.545722 0.704512 0.887931
C5    C     C_2   0.919738 0.042768 0.480971 0.202858
C6    C     C_R   0.953453 0.205708 0.498025 0.886138
C7    C     C_R   0.887213 0.484223 0.290516 0.876681
C8    C     C_R   0.855614 0.455087 0.984019 -0.158293
C9    C     C_R   0.818978 0.479081 0.171004 -0.067472
C10   C     C_R   0.082425 0.693552 0.878377 -0.265813
C11   C     C_R   0.149725 0.733133 0.991579 -0.140319
C12   C     C_R   0.424809 0.622023 0.981784 -0.053367
C13   C     C_R   0.317431 0.691464 0.045997 0.372376
C14   C     C_R   0.365409 0.621012 0.866305 -0.001873
C15   C     C_R   0.589874 0.559248 0.021714 0.083853
C16   C     C_R   0.695959 0.523317 0.946575 0.107795
C17   C     C_R   0.646009 0.568039 0.837419 -0.297282
C18   C     C_R   0.489088 0.636617 0.803301 0.389358
C19   C     C_R   0.647703 0.521462 0.130895 -0.157130
C20   C     C_R   0.921578 0.440412 0.097248 -0.174995
Cl1   Cl    Cl    0.694031 0.972812 0.435841 -0.491727
Cl2   Cl    Cl    0.393123 0.763256 0.185689 -0.575592
Cl3   Cl    Cl    0.477568 0.798227 0.720014 -0.633817
H1    H     H_    0.051980 0.400576 0.126951 0.173338
H2    H     H_    0.470718 0.362919 0.429119 0.212809
H3    H     H_    0.528812 0.644154 0.559787 0.266846
H4    H     H_    0.730071 0.557517 0.781030 0.187213
H5    H     H_    0.933856 0.422176 0.926864 0.160250
H6    H     H_    0.560514 0.524536 0.185739 0.209756
H7    H     H_    0.953007 0.725279 0.838302 0.194437
H8    H     H_    0.069696 0.793671 0.037345 0.192611
H9    H     H_    0.194918 0.008822 0.510118 0.202539
N1    N     N_2   0.434800 0.456690 0.470850 -0.150924
N2    N     N_2   0.565200 0.543310 0.529150 -0.153248
O1    O     O_R   0.893060 0.738880 0.507150 -0.558618
O2    O     O_R   0.172250 0.711130 0.488470 -0.580727
O3    O     O_R   0.944700 0.520730 0.667600 -0.637955
O4    O     O_R   0.223890 0.492980 0.648920 -0.599657
O5    O     O_R   0.827750 0.288870 0.511530 -0.583242
O6    O     O_R   0.106940 0.261120 0.492850 -0.634764
O7    O     O_R   0.776110 0.507020 0.351080 -0.607841
O8    O     O_R   0.055300 0.479270 0.332400 -0.606267
Zn1   Zn    Zn3+2 0.813580 0.518530 0.512470 1.030179
Zn2   Zn    Zn3+2 0.186420 0.481470 0.487530 1.023437

loop_
_geom_bond_atom_site_label_1
_geom_bond_atom_site_label_2
_ccdc_geom_bond_type
O3    Zn1   S    
C2    C10   A    
C2    C4    S    
O4    Zn2   S    
O1    Zn1   S    
C10   H7    S    
C9    C20   A    
C12   C15   A    
O6    Zn2   S    
N1    N2    D    
C11   H8    S    
C8    C16   A    
C12   C13   A    
C15   C19   A    
O7    Zn1   S    
C8    C20   A    
O8    Zn2   S    
C2    C14   A    
C5    C6    S    
C12   C14   A    
C13   Cl2   S    
C17   C18   A    
C7    O7    A    
C3    H9    S    
C8    H5    S    
C6    O6    A    
O2    Zn2   S    
C10   C11   A    
C18   Cl3   S    
C17   H4    S    
C3    C5    D    
C11   C13   A    
C5    Cl1   S    
C4    O3    A    
C1    O1    A    
C7    O8    A    
H2    N1    S    
C7    C9    S    
C14   C18   A    
C6    O5    A    
O5    Zn1   S    
H3    N2    S    
N1    Zn2   S    
C9    C19   A    
C15   C16   A    
N2    Zn1   S    
C20   H1    S    
C1    O2    A    
C4    O4    A    
C16   C17   A    
C1    C3    S    
C19   H6    S    
