data_str_m4_o14_o22_f0_acs.sym.39
_audit_creation_date              2012-12-11T14:23:10-0500
_audit_creation_method            fapswitch 2.2
_symmetry_space_group_name_H-M    P1
_symmetry_Int_Tables_number       1
_space_group_crystal_system       triclinic
_cell_length_a                    11.121569
_cell_length_b                    11.18109
_cell_length_c                    18.700395
_cell_angle_alpha                 90.784437
_cell_angle_beta                  89.856398
_cell_angle_gamma                 59.837333
_cell_volume                      2010.25482213

loop_
_atom_site_label
_atom_site_type_symbol
_atom_type_description
_atom_site_fract_x
_atom_site_fract_y
_atom_site_fract_z
_atom_type_partial_charge
C1    C     C_R   0.243067 0.643837 0.611741 0.587410
C2    C     C_R   0.565786 0.166119 0.711302 -0.050754
C3    C     C_R   0.569428 0.165915 0.784195 0.200247
C4    C     C_R   0.656727 0.624490 0.598728 0.633561
C5    C     C_R   0.920272 0.135252 0.810531 0.473776
C6    C     C_R   0.033795 0.108966 0.767964 0.395192
C7    C     C_R   0.029437 0.098067 0.694146 -0.161172
C8    C     C_R   0.914035 0.105732 0.662230 -0.156470
C9    C     C_R   0.672603 0.160078 0.670566 0.057917
C10   C     C_R   0.204896 0.652143 0.840874 -0.067397
C11   C     C_R   0.205365 0.544119 0.801445 -0.021120
C12   C     C_3   0.683214 0.573356 0.801917 0.491321
C13   C     C_R   0.196982 0.549877 0.725823 -0.029936
C14   C     C_R   0.234302 0.748003 0.731841 0.338628
C15   C     C_R   0.239317 0.740928 0.806576 0.267228
C16   C     C_R   0.630293 0.224281 0.600601 0.584258
C17   C     C_R   0.206664 0.433774 0.836894 -0.020191
C18   C     C_R   0.176926 0.343722 0.800892 -0.086392
C19   C     C_R   0.162876 0.349802 0.727106 -0.154586
C20   C     C_R   0.171784 0.452179 0.689729 -0.102948
C21   C     C_R   0.211532 0.653886 0.690032 0.011575
C22   C     C_R   0.696770 0.696012 0.181314 -0.016305
C23   C     C_3   0.723083 0.689204 0.807425 -0.009108
C24   C     C_R   0.789955 0.572707 0.216652 0.033190
C25   C     C_R   0.737904 0.525822 0.269899 0.048173
C26   C     C_R   0.535953 0.751542 0.280837 -0.142563
C27   C     C_R   0.566860 0.783569 0.213482 -0.156220
C28   C     C_R   0.224066 0.648114 0.400176 0.552749
C29   C     C_R   0.925270 0.481721 0.192244 -0.061795
C30   C     C_R   0.975919 0.341027 0.193888 -0.096747
C31   C     C_R   0.904382 0.292860 0.233142 -0.118470
C32   C     C_R   0.792640 0.383402 0.276393 -0.077644
C33   C     C_R   0.626199 0.622394 0.310816 0.000044
C34   C     C_3   0.681876 0.653457 0.672845 0.056317
C35   C     C_R   0.684975 0.066780 0.191945 0.004593
C36   C     C_R   0.570406 0.083571 0.236297 0.066460
C37   C     C_R   0.593777 0.068443 0.310974 0.006215
C38   C     C_R   0.795155 0.088143 0.300311 -0.177604
C39   C     C_R   0.803314 0.051656 0.227782 -0.173962
C40   C     C_R   0.616659 0.591160 0.385728 0.541758
C41   C     C_R   0.431998 0.124810 0.215021 0.256128
C42   C     C_R   0.334289 0.138617 0.267501 -0.081131
C43   C     C_R   0.374152 0.088073 0.335660 -0.097055
C44   C     C_R   0.508293 0.043496 0.356108 -0.087727
C45   C     C_3   0.834368 0.618155 0.683639 -0.292404
C46   C     C_R   0.680315 0.112252 0.340416 -0.000292
C47   C     C_R   0.181853 0.659203 0.176432 0.009222
C48   C     C_R   0.200509 0.756141 0.215079 -0.028854
C49   C     C_R   0.164038 0.776447 0.287530 -0.039860
C50   C     C_R   0.188035 0.548680 0.287718 0.335850
C51   C     C_R   0.192319 0.546854 0.212271 0.213469
C52   C     C_R   0.624599 0.215997 0.400195 0.527845
C53   C     C_R   0.236854 0.844582 0.181189 -0.056734
C54   C     C_R   0.205002 0.968234 0.213780 -0.132895
C55   C     C_R   0.149756 0.998950 0.283056 -0.162608
C56   C     C_3   0.648227 0.560872 0.722695 0.546009
C57   C     C_R   0.127780 0.904946 0.319295 -0.082290
C58   C     C_R   0.173142 0.664918 0.326264 -0.018817
C59   C     C_R   0.702783 0.100101 0.895437 0.588761
C60   C     C_R   0.752170 0.707416 0.882961 0.580572
C61   C     C_R   0.123108 0.702732 0.907929 0.503759
C62   C     C_R   0.698249 0.046729 0.112136 0.548119
C63   C     C_R   0.727665 0.714327 0.106606 0.517262
C64   C     C_3   0.602758 0.825499 0.775917 -0.216154
C65   C     C_R   0.101854 0.705651 0.109593 0.544623
C66   C     C_3   0.589226 0.808243 0.694652 0.187426
C67   C     C_R   0.688418 0.149477 0.820898 0.047214
C68   C     C_3   0.852942 0.653803 0.761305 -0.334676
C69   C     C_R   0.802116 0.138885 0.779844 -0.054754
C70   C     C_R   0.797023 0.132789 0.703675 -0.030386
Cr1   Cr    Cr6+3 0.392940 0.397950 0.502230 1.070714
Cr2   Cr    Cr6+3 0.398400 0.708500 0.501260 1.054728
Cr3   Cr    Cr6+3 0.708640 0.393530 0.496460 1.023710
Cr4   Cr    Cr6+3 0.937880 0.938320 0.007620 1.092937
Cr5   Cr    Cr6+3 0.625560 0.937220 0.994510 1.088340
Cr6   Cr    Cr6+3 0.938080 0.625010 0.001190 1.054342
F1    F     F_    0.922292 0.174419 0.879199 -0.544830
F2    F     F_    0.151533 0.088329 0.799224 -0.642626
F3    F     F_    0.202081 0.436774 0.322747 -0.634065
F4    F     F_    0.629145 0.888651 0.656819 -0.686768
F5    F     F_    0.508521 0.607733 0.717441 -0.611243
H1    H     H_    0.626095 0.909448 0.785409 0.160301
H2    H     H_    0.140688 0.278362 0.698871 0.128638
H3    H     H_    0.146791 0.458687 0.633818 0.139655
H4    H     H_    0.441031 0.824362 0.308334 0.162588
H5    H     H_    0.979235 0.518816 0.161008 0.190357
H6    H     H_    0.490497 0.874616 0.186528 0.146284
H7    H     H_    0.064485 0.271465 0.161364 0.100045
H8    H     H_    0.935907 0.186807 0.229055 0.124118
H9    H     H_    0.480063 0.846673 0.681104 0.202702
H10   H     H_    0.740125 0.345488 0.309023 0.141986
H11   H     H_    0.872101 0.106747 0.324305 0.119586
H12   H     H_    0.945419 0.568355 0.784981 0.150468
H13   H     H_    0.898066 0.022640 0.198390 0.162990
H14   H     H_    0.225699 0.190193 0.255686 0.106053
H15   H     H_    0.299428 0.092228 0.374216 0.122492
H16   H     H_    0.536057 0.015215 0.411376 0.140580
H17   H     H_    0.278854 0.823488 0.127147 0.150550
H18   H     H_    0.217272 0.040917 0.182656 0.088552
H19   H     H_    0.118154 0.097237 0.308876 0.111469
H20   H     H_    0.079036 0.935208 0.371676 0.136775
H21   H     H_    0.871198 0.743098 0.761452 0.139326
H22   H     H_    0.861865 0.677134 0.645996 0.192004
H23   H     H_    0.907753 0.507806 0.671593 0.099142
H24   H     H_    0.814786 0.385188 0.694754 0.290010
H25   H     H_    0.418365 0.126905 0.790976 0.332040
H26   H     H_    0.293519 0.885859 0.732805 0.386555
H27   H     H_    0.313779 0.780769 0.891906 0.363532
H28   H     H_    0.297201 0.169258 0.138948 0.304790
H29   H     H_    0.199901 0.374251 0.203717 0.356115
H30   H     H_    0.877919 0.418296 0.800532 0.300790
H31   H     H_    0.549577 0.532764 0.847126 0.375263
H32   H     H_    0.471070 0.180603 0.687039 0.173043
H33   H     H_    0.116822 0.081515 0.661231 0.158638
H34   H     H_    0.917839 0.089218 0.604951 0.148952
H35   H     H_    0.502188 0.855906 0.803127 0.196894
H36   H     H_    0.230376 0.416055 0.893193 0.174892
H37   H     H_    0.168983 0.268383 0.831981 0.237926
O1    O     O_R   0.507340 0.255690 0.581430 -0.524241
O2    O     O_R   0.837290 0.593240 0.915240 -0.433614
O3    O     O_R   0.065320 0.635310 0.931580 -0.537498
O4    O     O_R   0.280360 0.527380 0.578910 -0.525045
O5    O     O_R   0.068470 0.828620 0.091850 -0.547709
O6    O     O_R   0.799150 0.057200 0.079350 -0.490796
O7    O     O_R   0.585220 0.080180 0.076770 -0.416665
O8    O     O_R   0.627170 0.809480 0.067050 -0.495370
O9    O     O_R   0.816200 0.596410 0.076500 -0.490274
O10   O     O_R   0.045770 0.638240 0.081070 -0.495953
O11   O     O_3   0.833840 0.833520 0.001110 -0.358013
O12   O     O_R   0.524510 0.695820 0.424050 -0.513868
O13   O     O_R   0.260600 0.739610 0.584580 -0.445353
O14   O     O_R   0.532370 0.695050 0.573830 -0.449879
O15   O     O_R   0.744850 0.503430 0.576380 -0.518988
O16   O     O_R   0.699080 0.276500 0.571950 -0.483729
O17   O     O_R   0.498860 0.256520 0.419860 -0.477547
O18   O     O_R   0.272490 0.528150 0.429140 -0.425987
O19   O     O_R   0.252110 0.740440 0.423010 -0.558775
O20   O     O_3   0.713978 0.421334 0.700427 -0.627219
O21   O     O_3   0.456811 0.174761 0.819961 -0.676732
O22   O     O_3   0.266333 0.837251 0.697955 -0.662905
O23   O     O_R   0.736370 0.504260 0.414810 -0.506189
O24   O     O_3   0.275961 0.824038 0.845167 -0.608870
O25   O     O_3   0.386696 0.165776 0.146752 -0.626889
O26   O     O_3   0.215592 0.434191 0.172060 -0.660524
O27   O     O_3   0.790633 0.445160 0.826940 -0.606680
O28   O     O_3   0.565500 0.612573 0.845619 -0.620017
O29   O     O_R   0.691220 0.277270 0.422180 -0.547721
O30   O     O_3   0.499990 0.499990 0.499980 -0.282481
O31   O     O_R   0.089570 0.825450 0.930590 -0.462447
O32   O     O_R   0.818700 0.054260 0.929860 -0.427656
O33   O     O_R   0.606310 0.077010 0.915520 -0.461064
O34   O     O_R   0.646730 0.806540 0.917560 -0.473494

loop_
_geom_bond_atom_site_label_1
_geom_bond_atom_site_label_2
_ccdc_geom_bond_type
C23   C68   S    
Cr4   O6    S    
C34   C56   S    
C64   H35   S    
C46   C52   S    
C41   C42   A    
Cr1   O4    S    
C19   C20   A    
C16   O16   A    
C50   F3    S    
C34   C66   S    
H27   O24   S    
C7    C8    A    
C4    O14   A    
Cr3   O23   S    
C53   C54   A    
C1    C21   S    
C12   C23   S    
C26   C27   A    
Cr6   O2    S    
Cr3   O29   S    
Cr6   O3    S    
C14   C21   A    
C36   C37   A    
C9    C16   S    
C68   H21   S    
C41   O25   S    
C10   C15   A    
H30   O27   S    
Cr1   O17   S    
C30   C31   A    
C2    H32   S    
C6    F2    S    
C32   H10   S    
C38   H11   S    
C49   C57   A    
C61   O3    A    
C18   C19   A    
C44   H16   S    
C12   O28   S    
H26   O22   S    
C24   C29   A    
C5    C69   A    
C45   H22   S    
C8    H34   S    
C59   C67   S    
H24   O20   S    
C1    O4    A    
C35   C36   A    
Cr5   O33   S    
C31   H8    S    
C55   H19   S    
C47   C48   A    
Cr4   O31   S    
C60   O2    A    
C18   H37   S    
C17   H36   S    
C25   C32   A    
Cr4   O5    S    
C22   C63   S    
C40   O23   A    
C36   C41   A    
C23   C60   S    
C19   H2    S    
C62   O6    A    
Cr2   O14   S    
Cr2   O19   S    
C48   C53   A    
C4    C34   S    
C33   C40   S    
Cr3   O30   S    
C42   H14   S    
C50   C58   A    
C65   O10   A    
C56   F5    S    
C38   C39   A    
C9    C70   A    
C66   H9    S    
C16   O1    A    
Cr1   O18   S    
C47   C51   A    
Cr2   O30   S    
C49   C58   A    
C67   C69   A    
C64   C66   S    
C12   O27   S    
C35   C39   A    
C43   C44   A    
C39   H13   S    
C29   C30   A    
C45   H23   S    
C15   O24   S    
C56   O20   S    
Cr6   O11   S    
C26   C33   A    
C31   C32   A    
Cr5   O34   S    
C45   C68   S    
C50   C51   A    
C13   C21   A    
C60   O34   A    
H28   O25   S    
C34   C45   S    
C24   C25   A    
C27   H6    S    
C64   H1    S    
C29   H5    S    
C12   C56   S    
C23   C64   S    
C14   O22   S    
C52   O29   A    
C59   O33   A    
C22   C27   A    
C20   H3    S    
Cr6   O10   S    
C22   C24   A    
C54   H18   S    
C10   C61   S    
C3    O21   S    
C42   C43   A    
C5    F1    S    
C66   F4    S    
C7    H33   S    
Cr2   O13   S    
C59   O32   A    
Cr6   O9    S    
C40   O12   A    
C54   C55   A    
C11   C17   A    
C13   C20   A    
C28   O18   A    
C3    C67   A    
C28   O19   A    
C52   O17   A    
Cr3   O15   S    
C1    O13   A    
C62   O7    A    
Cr2   O12   S    
C6    C7    A    
C28   C58   S    
C53   H17   S    
C57   H20   S    
C8    C70   A    
C68   H12   S    
C17   C18   A    
Cr1   O1    S    
Cr5   O8    S    
C37   C44   A    
C55   C57   A    
C2    C3    A    
C11   C13   A    
H25   O21   S    
C5    C6    A    
C61   O31   A    
C26   H4    S    
C48   C49   A    
H31   O28   S    
Cr1   O30   S    
C35   C62   S    
C65   O5    A    
C69   C70   A    
C38   C46   A    
C63   O8    A    
C10   C11   A    
Cr5   O11   S    
Cr3   O16   S    
Cr4   O11   S    
C43   H15   S    
C51   O26   S    
C14   C15   A    
Cr4   O32   S    
Cr5   O7    S    
C37   C46   A    
C2    C9    A    
C30   H7    S    
C47   C65   S    
C63   O9    A    
H29   O26   S    
C25   C33   A    
C4    O15   A    
