data_str_m3_o10_o16_f0_pcu.sym.93
_audit_creation_date              2012-12-10T16:51:33-0500
_audit_creation_method            fapswitch 2.2
_symmetry_space_group_name_H-M    P1
_symmetry_Int_Tables_number       1
_space_group_crystal_system       triclinic
_cell_length_a                    7.796666
_cell_length_b                    8.562456
_cell_length_c                    12.701594
_cell_angle_alpha                 91.525543
_cell_angle_beta                  104.113349
_cell_angle_gamma                 93.683775
_cell_volume                      819.862955853

loop_
_atom_site_label
_atom_site_type_symbol
_atom_type_description
_atom_site_fract_x
_atom_site_fract_y
_atom_site_fract_z
_atom_type_partial_charge
C1    C     C_R   0.045081 0.794636 0.498681 0.946825
C2    C     C_R   0.198670 0.625705 0.809637 -0.136826
C3    C     C_2   0.070111 0.958327 0.500174 -0.380294
C4    C     C_R   0.117185 0.540534 0.704476 0.868148
C5    C     C_2   0.937904 0.042670 0.513033 -0.380817
C6    C     C_R   0.957469 0.205737 0.505658 0.972774
C7    C     C_R   0.889446 0.499382 0.292026 0.865807
C8    C     C_R   0.871941 0.469973 0.998332 -0.180171
C9    C     C_R   0.830396 0.522385 0.176398 -0.095032
C10   C     C_R   0.093814 0.709590 0.862619 -0.208489
C11   C     C_R   0.169836 0.788209 0.961742 -0.130495
C12   C     C_R   0.452895 0.676578 0.966321 0.072740
C13   C     C_R   0.347103 0.772223 0.013266 -0.196404
C14   C     C_R   0.617458 0.712396 0.209890 0.126989
C15   C     C_R   0.465012 0.659933 0.242878 -0.089322
C16   C     C_R   0.385227 0.762737 0.300208 -0.142314
C17   C     C_R   0.459975 0.915501 0.328412 -0.150634
C18   C     C_R   0.614553 0.966357 0.298561 -0.138957
C19   C     C_R   0.694800 0.864679 0.240603 -0.166571
C20   C     C_R   0.384463 0.632818 0.855783 0.104224
C21   C     C_R   0.621339 0.620029 0.019902 0.025426
C22   C     C_R   0.720516 0.546597 0.953832 0.158260
C23   C     C_R   0.667468 0.549935 0.842189 -0.281782
C24   C     C_R   0.506481 0.603007 0.794717 -0.188200
C25   C     C_R   0.686899 0.615062 0.134211 -0.081230
C26   C     C_R   0.923555 0.454217 0.108516 -0.232311
H1    H     H_    0.036610 0.387269 0.140792 0.160284
H2    H     H_    0.480610 0.622976 0.710394 0.175103
H3    H     H_    0.195191 0.008882 0.488467 0.169414
H4    H     H_    0.402814 0.543478 0.218482 0.124753
H5    H     H_    0.261788 0.725688 0.318694 0.183461
H6    H     H_    0.396556 0.995485 0.371514 0.125493
H7    H     H_    0.669915 0.085723 0.318175 0.134995
H8    H     H_    0.812002 0.906544 0.215334 0.121934
H9    H     H_    0.813600 0.992199 0.526216 0.184573
H10   H     H_    0.472178 0.362553 0.431836 0.184672
H11   H     H_    0.528369 0.646797 0.556427 0.177621
H12   H     H_    0.747197 0.505996 0.791029 0.189016
H13   H     H_    0.946362 0.415870 0.947135 0.148459
H14   H     H_    0.956209 0.722884 0.824409 0.162558
H15   H     H_    0.399078 0.846514 0.084336 0.166849
H16   H     H_    0.091032 0.861512 0.999107 0.144400
N1    N     N_2   0.434800 0.456690 0.470850 -0.181855
N2    N     N_2   0.565200 0.543310 0.529150 -0.178285
O1    O     O_R   0.893060 0.738880 0.507150 -0.603290
O2    O     O_R   0.172250 0.711130 0.488470 -0.661228
O3    O     O_R   0.944700 0.520730 0.667600 -0.633162
O4    O     O_R   0.223890 0.492980 0.648920 -0.619902
O5    O     O_R   0.827750 0.288870 0.511530 -0.630125
O6    O     O_R   0.106940 0.261120 0.492850 -0.606252
O7    O     O_R   0.776110 0.507020 0.351080 -0.611603
O8    O     O_R   0.055300 0.479270 0.332400 -0.639546
Zn1   Zn    Zn3+2 0.813580 0.518530 0.512470 0.934931
Zn2   Zn    Zn3+2 0.186420 0.481470 0.487530 0.915391

loop_
_geom_bond_atom_site_label_1
_geom_bond_atom_site_label_2
_ccdc_geom_bond_type
C7    O8    A    
C2    C4    S    
N1    N2    D    
C19   H8    S    
C8    H13   S    
C23   H12   S    
C8    C26   A    
O7    Zn1   S    
N1    Zn2   S    
C8    C22   A    
O3    Zn1   S    
C1    O1    A    
C12   C20   A    
H11   N2    S    
C13   H15   S    
C17   C18   A    
N2    Zn1   S    
C9    C25   A    
C6    O5    A    
C21   C22   A    
C6    O6    A    
C16   H5    S    
O4    Zn2   S    
C11   C13   A    
O2    Zn2   S    
C26   H1    S    
O6    Zn2   S    
C11   H16   S    
O5    Zn1   S    
C5    H9    S    
O8    Zn2   S    
C9    C26   A    
C14   C25   S    
C5    C6    S    
C18   H7    S    
C1    O2    A    
C10   C11   A    
C23   C24   A    
C7    O7    A    
C15   C16   A    
C2    C10   A    
C24   H2    S    
C3    H3    S    
C12   C13   A    
C15   H4    S    
C10   H14   S    
C18   C19   A    
C4    O4    A    
C7    C9    S    
C17   H6    S    
C21   C25   A    
C14   C15   A    
C14   C19   A    
H10   N1    S    
C3    C5    D    
C22   C23   A    
C2    C20   A    
C12   C21   A    
O1    Zn1   S    
C20   C24   A    
C16   C17   A    
C1    C3    S    
C4    O3    A    
