data_str_m2_o4_o16_f0_pcu.sym.189
_audit_creation_date              2012-12-10T19:00:14-0500
_audit_creation_method            fapswitch 2.2
_symmetry_space_group_name_H-M    P1
_symmetry_Int_Tables_number       1
_space_group_crystal_system       triclinic
_cell_length_a                    9.577272
_cell_length_b                    10.835847
_cell_length_c                    13.290688
_cell_angle_alpha                 90.33623
_cell_angle_beta                  74.867485
_cell_angle_gamma                 89.501543
_cell_volume                      1331.35436532

loop_
_atom_site_label
_atom_site_type_symbol
_atom_type_description
_atom_site_fract_x
_atom_site_fract_y
_atom_site_fract_z
_atom_type_partial_charge
C1    C     C_R   0.500260 0.737394 0.497998 0.786923
C2    C     C_R   0.460604 0.614956 0.968709 0.000638
C3    C     C_R   0.500448 0.592589 0.859961 0.058091
C4    C     C_R   0.561460 0.576925 0.025672 0.074067
C5    C     C_R   0.702111 0.534743 0.969589 0.047189
C6    C     C_R   0.749403 0.562830 0.863997 -0.159445
C7    C     C_R   0.649028 0.595024 0.810019 -0.162955
C8    C     C_R   0.522398 0.564897 0.134432 -0.173069
C9    C     C_R   0.747192 0.459366 0.128915 -0.244439
C10   C     C_R   0.391570 0.571645 0.806399 -0.130528
C11   C     C_R   0.377042 0.937145 0.491260 0.086519
C12   C     C_R   0.425861 0.520782 0.697931 0.834727
C13   C     C_R   0.502766 0.870319 0.489964 -0.039785
C14   C     C_R   0.632376 0.934214 0.481267 -0.183950
C15   C     C_R   0.631235 0.062515 0.486023 -0.106505
C16   C     C_R   0.500956 0.128749 0.499381 -0.063699
C17   C     C_R   0.375183 0.063969 0.499944 0.010832
C18   C     C_3   0.227636 0.064522 0.575355 0.257119
C19   C     C_3   0.228001 0.925007 0.560971 -0.489125
C20   C     C_R   0.959363 0.519025 0.410281 0.153457
C21   C     C_R   0.894416 0.474761 0.588015 -0.027847
C22   C     C_R   0.042223 0.476331 0.588401 -0.015062
C23   C     C_R   0.499560 0.262403 0.502227 0.890342
C24   C     C_R   0.106370 0.524396 0.411167 0.200276
C25   C     C_3   0.155495 0.452637 0.312497 -0.441507
C26   C     C_3   0.998630 0.439169 0.313196 0.263379
C27   C     C_R   0.575598 0.502051 0.300092 0.859752
C28   C     C_R   0.789654 0.466830 0.020942 0.368715
C29   C     C_R   0.616516 0.510390 0.186183 -0.126931
C30   C     C_R   0.248301 0.602838 0.857764 -0.170358
C31   C     C_R   0.215382 0.656506 0.957054 -0.088071
C32   C     C_R   0.321046 0.667440 0.012368 0.375352
Cu1   Cu    Cu3+1 0.359330 0.500020 0.500010 1.003034
Cu2   Cu    Cu3+1 0.640670 0.499980 0.499990 1.016812
H1    H     H_    0.812839 0.406616 0.167867 0.203463
H2    H     H_    0.731256 0.108870 0.483261 0.230393
H3    H     H_    0.144556 0.113314 0.545188 0.147305
H4    H     H_    0.225569 0.870358 0.632016 0.229120
H5    H     H_    0.150207 0.893847 0.517199 0.188816
H6    H     H_    0.815326 0.448142 0.657875 0.163662
H7    H     H_    0.214138 0.508967 0.246514 0.183762
H8    H     H_    0.213237 0.365905 0.322615 0.249415
H9    H     H_    0.973731 0.484210 0.245152 0.096848
H10   H     H_    0.862648 0.559578 0.822713 0.160473
H11   H     H_    0.418765 0.595808 0.180057 0.201893
H12   H     H_    0.162738 0.593031 0.818799 0.178469
H13   H     H_    0.107440 0.693402 0.989704 0.189680
H14   H     H_    0.688986 0.623063 0.730065 0.165662
H15   H     H_    0.733472 0.885542 0.475486 0.173555
N1    N     N_R   0.852320 0.499070 0.499340 -0.181105
N2    N     N_R   0.148230 0.499110 0.499340 -0.191647
O1    O     O_R   0.381190 0.680360 0.500000 -0.579875
O2    O     O_R   0.618780 0.680320 0.499990 -0.604318
O3    O     O_R   0.323230 0.500000 0.650990 -0.567108
O4    O     O_R   0.560820 0.499960 0.650980 -0.604680
O5    O     O_R   0.381220 0.319680 0.500010 -0.559152
O6    O     O_R   0.618810 0.319640 0.500000 -0.521107
O7    O     O_R   0.439180 0.500040 0.349020 -0.594533
O8    O     O_R   0.676770 0.500000 0.349010 -0.567635
S1    S     S_3+6 0.226350 0.106710 0.706601 0.057804
O9    O     O_2   0.086237 0.066585 0.779111 -0.186684
O10   O     O_2   0.350352 0.044525 0.736729 -0.276068
O11   O     O_3   0.240773 0.260232 0.716233 -0.500605
H16   H     H_    0.254283 0.274769 0.786725 0.402191
H17   H     H_    0.070747 0.455243 0.659694 0.199309
S2    S     S_3+6 0.948743 0.279485 0.329363 -0.013625
O12   O     O_2   0.953876 0.237272 0.435878 -0.325863
O13   O     O_2   0.800403 0.260366 0.314554 -0.318140
O14   O     O_3   0.067736 0.195301 0.239070 -0.528647
H18   H     H_    0.037169 0.108717 0.253735 0.376243
S3    S     S_3+6 0.932391 0.365291 0.956994 0.023288
O15   O     O_2   0.951654 0.357645 0.841391 -0.269305
O16   O     O_2   0.071223 0.405801 0.978747 -0.330475
O17   O     O_3   0.893982 0.222982 0.005963 -0.426860
H19   H     H_    0.933045 0.219372 0.067939 0.387848
S4    S     S_3+6 0.288392 0.783090 0.111070 -0.012440
O18   O     O_2   0.189425 0.735209 0.209754 -0.355092
O19   O     O_2   0.427575 0.825529 0.131580 -0.276219
O20   O     O_3   0.206883 0.904146 0.070592 -0.474078
H20   H     H_    0.206391 0.970504 0.122223 0.392118

loop_
_geom_bond_atom_site_label_1
_geom_bond_atom_site_label_2
_ccdc_geom_bond_type
S2    O13   D    
Cu1   O7    S    
C27   C29   S    
S4    O20   S    
C4    C8    A    
C23   O5    A    
Cu1   O1    S    
C11   C19   S    
S1    O11   S    
C8    C29   A    
C19   H5    S    
S1    O10   D    
C18   H3    S    
S4    O19   D    
C3    C7    A    
C5    C6    A    
S2    O14   S    
C15   C16   A    
C2    C32   A    
C18   C19   S    
C1    O2    A    
C8    H11   S    
C20   N1    A    
C20   C24   A    
C16   C17   A    
Cu2   O6    S    
C9    C29   A    
C24   N2    A    
S2    O12   D    
Cu2   O4    S    
C6    H10   S    
C13   C14   A    
C21   N1    A    
C26   H9    S    
Cu1   Cu2   S    
Cu2   N1    S    
O17   H19   S    
C26   S2    S    
S4    O18   D    
C25   H7    S    
S3    O16   D    
C25   C26   S    
O11   H16   S    
S1    O9    D    
C2    C4    A    
C22   H17   S    
C19   H4    S    
C5    C28   A    
C10   C30   A    
C31   C32   A    
C17   C18   S    
C24   C25   S    
C10   C12   S    
C18   S1    S    
C16   C23   S    
Cu2   O8    S    
C28   S3    S    
C1    C13   S    
C15   H2    S    
Cu1   O3    S    
C23   O6    A    
C11   C17   A    
C30   H12   S    
C4    C5    A    
C27   O7    A    
C25   H8    S    
C32   S4    S    
S3    O17   S    
C6    C7    A    
Cu1   N2    S    
C7    H14   S    
C2    C3    A    
S3    O15   D    
C3    C10   A    
C27   O8    A    
C11   C13   A    
C30   C31   A    
C21   H6    S    
C20   C26   S    
Cu1   O5    S    
O14   H18   S    
C1    O1    A    
C12   O4    A    
O20   H20   S    
C14   H15   S    
Cu2   O2    S    
C9    H1    S    
C14   C15   A    
C31   H13   S    
C21   C22   A    
C12   O3    A    
C9    C28   A    
C22   N2    A    
