data_str_m9_o5_o16_f0_sra.sym.87
_audit_creation_date              2012-12-11T17:14:11-0500
_audit_creation_method            fapswitch 2.2
_symmetry_space_group_name_H-M    P1
_symmetry_Int_Tables_number       1
_space_group_crystal_system       triclinic
_cell_length_a                    18.225122
_cell_length_b                    7.113146
_cell_length_c                    13.457767
_cell_angle_alpha                 90.00001
_cell_angle_beta                  69.811729
_cell_angle_gamma                 90.0
_cell_volume                      1637.45329026

loop_
_atom_site_label
_atom_site_type_symbol
_atom_type_description
_atom_site_fract_x
_atom_site_fract_y
_atom_site_fract_z
_atom_type_partial_charge
O1    O     O_R   0.453880 0.506200 0.150010 -0.541131
O2    O     O_R   0.546120 0.006200 0.849990 -0.541130
O3    O     O_R   0.604080 0.177770 0.007280 -0.540808
O4    O     O_R   0.395920 0.677770 0.992720 -0.540809
C1    C     C_R   0.635904 0.344648 0.001841 0.727432
C2    C     C_R   0.364095 0.844648 0.998159 0.727432
O5    O     O_R   0.458010 0.176640 0.159130 -0.542273
O6    O     O_R   0.541990 0.676640 0.840870 -0.542273
O7    O     O_R   0.399010 0.004010 0.002930 -0.536613
O8    O     O_R   0.600990 0.504010 0.997070 -0.536613
C3    C     C_R   0.442666 0.344911 0.200823 0.686246
C4    C     C_R   0.557334 0.844910 0.799177 0.686246
O9    O     O_3   0.480810 0.338440 0.948570 -0.377816
O10   O     O_3   0.519190 0.838440 0.051430 -0.377816
V1    V     V_3+5 0.503560 0.064490 0.009540 1.432587
V2    V     V_3+5 0.496440 0.564490 0.990460 1.432587
C5    C     C_R   0.581584 0.829358 0.511173 -0.167864
C6    C     C_R   0.418416 0.329363 0.488827 -0.167864
H1    H     H_    0.483673 0.840660 0.656318 0.106666
H2    H     H_    0.516327 0.340665 0.343682 0.106666
H3    H     H_    0.660352 0.817434 0.304907 0.124519
H4    H     H_    0.339648 0.317440 0.695093 0.124519
H5    H     H_    0.544483 0.824820 0.463250 0.122552
H6    H     H_    0.455517 0.324827 0.536750 0.122552
C7    C     C_R   0.593368 0.849318 0.684050 -0.022748
C8    C     C_R   0.406631 0.349318 0.315950 -0.022748
C9    C     C_R   0.958933 0.874164 0.375276 -0.013499
C10   C     C_R   0.041067 0.374164 0.624724 -0.013500
C11   C     C_R   0.927362 0.847376 0.486165 0.003123
C12   C     C_R   0.072638 0.347375 0.513835 0.003123
C13   C     C_R   0.846477 0.814001 0.533707 -0.217824
C14   C     C_R   0.153523 0.314001 0.466293 -0.217824
C15   C     C_R   0.794833 0.825102 0.476566 0.063914
C16   C     C_R   0.205167 0.325102 0.523434 0.063914
C17   C     C_R   0.827357 0.835105 0.364933 0.021780
C18   C     C_R   0.172643 0.335105 0.635067 0.021780
C19   C     C_R   0.711750 0.828475 0.527046 0.082470
C20   C     C_R   0.288251 0.328475 0.472954 0.082470
C21   C     C_R   0.663329 0.825185 0.463820 0.139679
C22   C     C_R   0.336671 0.325188 0.536180 0.139679
C23   C     C_R   0.696794 0.820871 0.353767 -0.206974
C24   C     C_R   0.303206 0.320875 0.646233 -0.206974
C25   C     C_R   0.777354 0.828361 0.304928 -0.204676
C26   C     C_R   0.222646 0.328364 0.695072 -0.204677
C27   C     C_R   0.674891 0.843613 0.638032 -0.219562
C28   C     C_R   0.325109 0.343612 0.361967 -0.219562
C29   C     C_R   0.546840 0.840148 0.620763 -0.177721
C30   C     C_R   0.453160 0.340152 0.379236 -0.177722
C31   C     C_R   0.909073 0.856647 0.315199 -0.124199
C32   C     C_R   0.090927 0.356647 0.684801 -0.124200
H7    H     H_    0.707695 0.853422 0.690960 0.098541
H8    H     H_    0.292305 0.353418 0.309040 0.098541
H9    H     H_    0.824557 0.778616 0.616545 0.119026
H10   H     H_    0.175443 0.278616 0.383455 0.119026
H11   H     H_    0.799853 0.831583 0.219272 0.115474
H12   H     H_    0.200147 0.331586 0.780728 0.115474
C33   C     C_1   0.216527 0.858654 0.999335 -0.146805
C34   C     C_1   0.783473 0.358654 0.000665 -0.146805
C35   C     C_1   0.283751 0.852804 0.998593 -0.185662
C36   C     C_1   0.716249 0.352803 0.001407 -0.185662
O11   O     O_R   0.899030 0.205490 0.002790 -0.545096
O12   O     O_R   0.100970 0.705490 0.997210 -0.545096
O13   O     O_R   0.042000 0.536370 0.840840 -0.541709
O14   O     O_R   0.958000 0.036370 0.159160 -0.541710
C37   C     C_R   0.058012 0.368017 0.799824 0.776762
C38   C     C_R   0.941988 0.868017 0.200175 0.776763
O15   O     O_R   0.895930 0.535070 0.992690 -0.533129
O16   O     O_R   0.104070 0.035070 0.007310 -0.533129
O17   O     O_R   0.953870 0.707520 0.150040 -0.560572
O18   O     O_R   0.046130 0.207520 0.849960 -0.560571
C39   C     C_R   0.863881 0.366725 0.999949 0.793927
C40   C     C_R   0.136119 0.866725 0.000051 0.793926
O19   O     O_3   0.019200 0.374340 0.051340 -0.401641
O20   O     O_3   0.980800 0.874340 0.948660 -0.401642
V3    V     V_3+5 0.996440 0.648350 0.990470 1.388468
V4    V     V_3+5 0.003560 0.148350 0.009530 1.388468
C41   C     C_2   0.042131 0.932308 0.323293 0.302197
H13   H     H_    0.069887 0.022769 0.364313 0.086087
O21   O     O_2   0.081709 0.874589 0.235962 -0.560381
C42   C     C_2   0.957869 0.432308 0.676707 0.302197
H14   H     H_    0.930113 0.522769 0.635687 0.086087
O22   O     O_2   0.918291 0.374589 0.764038 -0.560380
C43   C     C_R   0.975328 0.863224 0.556648 0.055803
C44   C     C_R   0.053490 0.800118 0.526302 -0.151779
C45   C     C_R   0.095611 0.815164 0.595038 -0.145197
C46   C     C_R   0.059687 0.886872 0.696386 -0.044316
C47   C     C_R   0.982170 0.947847 0.727851 -0.031601
C48   C     C_R   0.940954 0.938850 0.658721 -0.182688
H15   H     H_    0.082415 0.735166 0.450749 0.126856
H16   H     H_    0.155515 0.766540 0.570535 0.126905
H17   H     H_    0.092144 0.895034 0.750036 0.122006
H18   H     H_    0.952965 0.007243 0.804883 0.176946
H19   H     H_    0.882017 0.994163 0.685659 0.124319
C49   C     C_R   0.024671 0.363224 0.443352 0.055803
C50   C     C_R   0.946510 0.300118 0.473698 -0.151779
C51   C     C_R   0.904389 0.315164 0.404962 -0.145197
C52   C     C_R   0.940313 0.386872 0.303614 -0.044316
C53   C     C_R   0.017830 0.447847 0.272149 -0.031601
C54   C     C_R   0.059046 0.438850 0.341279 -0.182689
H20   H     H_    0.917585 0.235167 0.549251 0.126856
H21   H     H_    0.844485 0.266540 0.429464 0.126905
H22   H     H_    0.907856 0.395034 0.249964 0.122006
H23   H     H_    0.047035 0.507243 0.195117 0.176946
H24   H     H_    0.117983 0.494163 0.314341 0.124319

loop_
_geom_bond_atom_site_label_1
_geom_bond_atom_site_label_2
_ccdc_geom_bond_type
C12   C14   A    
C47   C48   A    
O13   C37   A    
C9    C11   A    
C23   C25   A    
C50   C51   A    
O1    C3    A    
O2    C4    A    
C2    O7    A    
C52   C53   A    
O3    V1    S    
C21   C23   A    
C41   H13   S    
O5    C3    A    
C5    H5    S    
O20   V4    S    
C6    H6    S    
C11   C43   S    
C46   H17   S    
H1    C29   S    
C34   C39   S    
C33   C35   T    
C38   O17   A    
C27   H7    S    
C34   C36   T    
C53   H23   S    
C28   H8    S    
C5    C21   A    
C6    C22   A    
C10   C32   A    
C17   C31   A    
C13   C15   A    
O17   V3    S    
O6    C4    A    
C17   C25   A    
C7    C29   A    
O15   C39   A    
C52   H22   S    
C8    C30   A    
O11   C39   A    
C22   C24   A    
C43   C48   A    
O6    V2    S    
C16   C20   A    
C51   H21   S    
C11   C13   A    
O19   V3    S    
C24   C26   A    
C14   H10   S    
C41   O21   D    
O11   V4    S    
O20   V3    S    
C44   C45   A    
O4    C2    A    
C31   C38   S    
C46   C47   A    
C3    C8    S    
C9    C41   S    
C45   C46   A    
C15   C19   A    
C14   C16   A    
O4    V2    S    
C26   H12   S    
C43   C44   A    
O16   C40   A    
C51   C52   A    
O14   V4    S    
O12   C40   A    
O1    V2    S    
C13   H9    S    
O2    V1    S    
H2    C30   S    
H3    C23   S    
C25   H11   S    
O18   V4    S    
O19   V4    S    
O12   V3    S    
C18   C26   A    
O15   V3    S    
C44   H15   S    
C19   C27   A    
C7    C27   A    
C18   C32   A    
C48   H19   S    
C1    C36   S    
C50   H20   S    
C2    C35   S    
C5    C29   A    
C42   H14   S    
O3    C1    A    
C6    C30   A    
C45   H16   S    
O16   V4    S    
C4    C7    S    
C10   C12   A    
O7    V1    S    
C1    O8    A    
C19   C21   A    
O8    V2    S    
C20   C22   A    
H4    C24   S    
O13   V3    S    
C49   C54   A    
O5    V1    S    
C15   C17   A    
C42   O22   D    
C54   H24   S    
C16   C18   A    
C33   C40   S    
C49   C50   A    
C10   C42   S    
C32   C37   S    
C20   C28   A    
C8    C28   A    
C9    C31   A    
C12   C49   S    
C53   C54   A    
O9    V2    S    
O10   V1    S    
C47   H18   S    
C37   O18   A    
O14   C38   A    
