data_str_m3_o40_o40_f0_fof.sym.39
_audit_creation_date              2012-12-10T16:37:24-0500
_audit_creation_method            fapswitch 2.2
_symmetry_space_group_name_H-M    P1
_symmetry_Int_Tables_number       1
_space_group_crystal_system       triclinic
_cell_length_a                    16.773379
_cell_length_b                    16.962533
_cell_length_c                    16.857136
_cell_angle_alpha                 65.67247
_cell_angle_beta                  66.295609
_cell_angle_gamma                 65.433742
_cell_volume                      3817.51992874

loop_
_atom_site_label
_atom_site_type_symbol
_atom_type_description
_atom_site_fract_x
_atom_site_fract_y
_atom_site_fract_z
_atom_type_partial_charge
C1    C     C_R   0.396525 0.069219 0.659228 -0.225156
C2    C     C_R   0.462048 0.691396 0.931181 -0.211418
C3    C     C_3   0.804222 0.328871 0.298396 0.111847
C4    C     C_3   0.746219 0.312989 0.397952 -0.391541
C5    C     C_3   0.644670 0.344597 0.405361 -0.932828
C6    C     C_3   0.699847 0.678343 0.193714 0.106777
C7    C     C_3   0.602179 0.719489 0.246695 -0.351147
C8    C     C_3   0.590941 0.683502 0.348542 -0.951184
C9    C     C_3   0.357478 0.296166 0.797112 0.093993
C10   C     C_3   0.302510 0.330284 0.729831 -0.350681
C11   C     C_3   0.364102 0.335797 0.633212 -0.951622
C12   C     C_R   0.925012 0.598994 0.349588 -0.214222
C13   C     C_R   0.072517 0.401315 0.650450 -0.212506
C14   C     C_R   0.978208 0.176855 0.430720 0.924077
C15   C     C_R   0.021496 0.823277 0.569238 0.931610
C16   C     C_R   0.179196 0.439286 0.959631 0.918878
C17   C     C_R   0.820853 0.560942 0.040020 0.902810
C18   C     C_R   0.425868 0.000555 0.166074 0.934258
C19   C     C_R   0.563598 0.032969 0.821406 0.937825
C20   C     C_R   0.569353 0.823117 0.021937 0.945611
C21   C     C_R   0.553831 0.078224 0.294410 -0.223024
C22   C     C_R   0.431060 0.177432 0.976963 0.879382
C23   C     C_R   0.038760 0.561310 0.820940 0.919093
C24   C     C_R   0.960990 0.438700 0.179058 0.895872
C25   C     C_R   0.821012 0.035307 0.562835 0.917142
C26   C     C_R   0.178618 0.973432 0.433204 0.927624
C27   C     C_R   0.442200 0.079421 0.705532 -0.177961
C28   C     C_R   0.511460 0.059989 0.251312 -0.174070
C29   C     C_R   0.946435 0.734382 0.505735 -0.160200
C30   C     C_R   0.055140 0.265902 0.492000 -0.153669
C31   C     C_R   0.697807 0.446397 0.084404 -0.156556
C32   C     C_R   0.932596 0.691085 0.460162 -0.210329
C33   C     C_R   0.300531 0.554841 0.918123 -0.157605
C34   C     C_R   0.295385 0.966554 0.535916 -0.162203
C35   C     C_R   0.699040 0.099593 0.442852 -0.163127
C36   C     C_R   0.494975 0.267720 0.050293 -0.154615
C37   C     C_R   0.507766 0.734449 0.945360 -0.156232
C38   C     C_R   0.918005 0.553666 0.301038 -0.155333
C39   C     C_R   0.078347 0.446513 0.699854 -0.160436
C40   C     C_R   0.527752 0.071380 0.528105 0.038691
C41   C     C_R   0.440148 0.040725 0.436322 0.037650
C42   C     C_R   0.010598 0.545057 0.547698 0.036832
C43   C     C_R   0.069056 0.309369 0.537420 -0.210455
C44   C     C_R   0.989782 0.455289 0.450773 0.037593
C45   C     C_R   0.548259 0.545428 0.011027 0.035400
C46   C     C_R   0.451812 0.456374 0.988415 0.038035
C47   C     C_R   0.566233 0.080841 0.434464 0.045032
C48   C     C_R   0.402751 0.031996 0.529812 0.041733
C49   C     C_R   0.039585 0.449029 0.573005 0.041936
C50   C     C_R   0.960207 0.551351 0.425729 0.042042
C51   C     C_R   0.477051 0.596907 0.967992 0.044308
C52   C     C_R   0.523340 0.404982 0.030983 0.045440
C53   C     C_R   0.520204 0.068495 0.387557 0.049907
C54   C     C_R   0.649202 0.401442 0.076788 -0.212298
C55   C     C_R   0.441563 0.056828 0.572934 0.044850
C56   C     C_R   0.426340 0.552319 0.959533 0.041778
C57   C     C_R   0.573296 0.449478 0.040571 0.042991
C58   C     C_R   0.032095 0.404074 0.522153 0.043172
C59   C     C_R   0.968626 0.596322 0.476018 0.043952
C60   C     C_R   0.537157 0.067518 0.671132 -0.015433
C61   C     C_R   0.432682 0.031130 0.298164 0.009611
C62   C     C_R   0.998852 0.685641 0.568057 -0.006084
C63   C     C_R   0.001935 0.314548 0.430392 -0.010971
C64   C     C_R   0.672248 0.541269 0.057719 0.019977
C65   C     C_R   0.349314 0.600146 0.925136 -0.211657
C66   C     C_R   0.327118 0.459960 0.943115 0.005107
C67   C     C_R   0.320051 0.989421 0.440672 -0.002175
C68   C     C_R   0.667780 0.075271 0.538153 0.002024
C69   C     C_R   0.432317 0.315983 0.998619 0.000593
C70   C     C_R   0.569046 0.685657 0.999067 -0.005580
C71   C     C_R   0.944410 0.458727 0.326700 0.018910
C72   C     C_R   0.054217 0.541515 0.673158 0.014245
C73   C     C_R   0.595016 0.046629 0.724901 -0.244006
C74   C     C_R   0.386043 0.014258 0.254924 -0.254836
C75   C     C_R   0.027146 0.727998 0.605980 -0.238126
C76   C     C_R   0.332919 0.990785 0.579167 -0.230117
C77   C     C_R   0.972462 0.272220 0.393502 -0.240725
C78   C     C_R   0.721202 0.589715 0.062900 -0.272940
C79   C     C_R   0.278861 0.411195 0.937050 -0.239199
C80   C     C_R   0.269436 0.985077 0.391769 -0.245583
C81   C     C_R   0.723716 0.049436 0.595388 -0.255474
C82   C     C_R   0.395172 0.273397 0.969497 -0.243622
C83   C     C_R   0.606161 0.727772 0.028542 -0.257910
C84   C     C_R   0.939170 0.409983 0.278120 -0.269181
C85   C     C_R   0.059125 0.590453 0.722047 -0.260125
C86   C     C_R   0.688344 0.022813 0.688410 0.385215
C87   C     C_R   0.649627 0.101885 0.392053 -0.226964
C88   C     C_R   0.298371 0.010274 0.297842 0.374027
C89   C     C_R   0.064352 0.677521 0.678445 0.357320
C90   C     C_R   0.932697 0.323247 0.322634 0.391146
C91   C     C_R   0.676793 0.676749 0.068862 0.388378
C92   C     C_R   0.324347 0.325053 0.929635 0.374689
C93   C     C_R   0.577259 0.072224 0.578836 0.076964
C94   C     C_R   0.397188 0.021274 0.391601 0.077305
C95   C     C_R   0.022721 0.590443 0.595252 0.080195
C96   C     C_R   0.977443 0.409791 0.403578 0.076126
C97   C     C_R   0.595467 0.590522 0.023939 0.079315
C98   C     C_R   0.539743 0.310430 0.065836 -0.210319
C99   C     C_R   0.404771 0.411081 0.975325 0.074229
C100  C     C_3   0.770704 0.877432 0.748372 0.103535
C101  C     C_3   0.803112 0.814520 0.832681 -0.336309
C102  C     C_3   0.877386 0.837881 0.841112 -0.649289
C103  C     C_3   0.200228 0.125741 0.220845 0.124839
C104  C     C_3   0.126207 0.149163 0.176845 -0.308593
C105  C     C_3   0.166371 0.133341 0.083927 -0.776632
C106  C     C_3   0.186970 0.693495 0.690082 0.120653
C107  C     C_3   0.214753 0.749950 0.719559 -0.328296
C108  C     C_3   0.318128 0.730578 0.689787 -0.995895
H1    H     H_    0.325252 0.072935 0.691023 0.136954
H2    H     H_    0.416537 0.734077 0.889145 0.135114
H3    H     H_    0.903875 0.671907 0.324189 0.135750
H4    H     H_    0.092023 0.328408 0.676553 0.135159
H5    H     H_    0.401147 0.094647 0.768507 0.182145
H6    H     H_    0.542608 0.071127 0.180096 0.165193
H7    H     H_    0.912441 0.806356 0.492988 0.171749
H8    H     H_    0.089198 0.193929 0.504537 0.173422
H9    H     H_    0.753720 0.405907 0.114564 0.148479
H10   H     H_    0.243864 0.595026 0.889305 0.164657
H11   H     H_    0.247933 0.928732 0.579390 0.178701
H12   H     H_    0.613296 0.100078 0.251975 0.127995
H13   H     H_    0.762171 0.116187 0.405507 0.178889
H14   H     H_    0.508809 0.196507 0.081878 0.155902
H15   H     H_    0.495705 0.806211 0.911144 0.171301
H16   H     H_    0.888278 0.594092 0.245151 0.150152
H17   H     H_    0.105181 0.405407 0.757475 0.163842
H18   H     H_    0.827033 0.864352 0.687211 0.124293
H19   H     H_    0.712658 0.858738 0.751852 0.074669
H20   H     H_    0.744397 0.818967 0.893782 0.230593
H21   H     H_    0.829663 0.743389 0.830148 0.174061
H22   H     H_    0.936299 0.836159 0.779873 0.278057
H23   H     H_    0.891425 0.734048 0.413979 0.136857
H24   H     H_    0.901044 0.787589 0.900902 0.234035
H25   H     H_    0.850527 0.906280 0.850464 0.252003
H26   H     H_    0.252078 0.161022 0.172145 0.108423
H27   H     H_    0.166777 0.151788 0.281045 0.080543
H28   H     H_    0.079173 0.107592 0.221639 0.242427
H29   H     H_    0.085992 0.221639 0.168830 0.214964
H30   H     H_    0.208099 0.179438 0.036631 0.289906
H31   H     H_    0.110226 0.147984 0.056126 0.211458
H32   H     H_    0.209277 0.061868 0.089043 0.275258
H33   H     H_    0.215053 0.707605 0.614967 0.127220
H34   H     H_    0.110961 0.266771 0.583030 0.136798
H35   H     H_    0.215931 0.620177 0.723751 0.114673
H36   H     H_    0.182057 0.822921 0.689746 0.225195
H37   H     H_    0.189236 0.735448 0.794355 0.208700
H38   H     H_    0.351918 0.657655 0.719002 0.274450
H39   H     H_    0.335792 0.771577 0.713737 0.264623
H40   H     H_    0.344022 0.748877 0.614682 0.271482
H41   H     H_    0.783017 0.300261 0.264182 0.155350
H42   H     H_    0.790500 0.402810 0.262244 0.098846
H43   H     H_    0.766882 0.239810 0.435352 0.225335
H44   H     H_    0.757795 0.350966 0.430519 0.210838
H45   H     H_    0.674473 0.328513 0.098275 0.130904
H46   H     H_    0.622386 0.418302 0.370024 0.260732
H47   H     H_    0.604780 0.332231 0.477865 0.268524
H48   H     H_    0.630499 0.306578 0.374921 0.270526
H49   H     H_    0.747351 0.694902 0.210707 0.154893
H50   H     H_    0.718339 0.602866 0.215506 0.097469
H51   H     H_    0.585915 0.794496 0.224942 0.255804
H52   H     H_    0.553034 0.702593 0.232313 0.210905
H53   H     H_    0.605370 0.608654 0.372058 0.263237
H54   H     H_    0.519771 0.714523 0.384954 0.270041
H55   H     H_    0.638109 0.701062 0.365088 0.266085
H56   H     H_    0.323384 0.673104 0.904900 0.141063
H57   H     H_    0.404555 0.227083 0.796041 0.154329
H58   H     H_    0.400155 0.342022 0.773358 0.117300
H59   H     H_    0.261847 0.284126 0.749569 0.222383
H60   H     H_    0.255369 0.399162 0.731776 0.211798
H61   H     H_    0.402320 0.384800 0.610778 0.260660
H62   H     H_    0.321718 0.359139 0.586764 0.274053
H63   H     H_    0.413412 0.268350 0.629023 0.274465
H64   H     H_    0.309531 0.972434 0.652385 0.138931
H65   H     H_    0.680459 0.117682 0.319922 0.131903
H66   H     H_    0.586007 0.267025 0.106903 0.130225
O1    O     O_R   0.982940 0.138950 0.510160 -0.649239
O2    O     O_R   0.982940 0.510160 0.138950 -0.632037
O3    O     O_R   0.861050 0.017060 0.489840 -0.662811
O4    O     O_R   0.138950 0.982940 0.510160 -0.668544
O5    O     O_R   0.867700 0.025880 0.612340 -0.569070
O6    O     O_R   0.132300 0.974120 0.387660 -0.565064
O7    O     O_R   0.025880 0.612340 0.867700 -0.583237
O8    O     O_R   0.974120 0.387660 0.132300 -0.601758
O9    O     O_R   0.612340 0.867700 0.025880 -0.572331
O10   O     O_R   0.387660 0.132300 0.974120 -0.612612
O11   O     O_R   0.387660 0.974120 0.132300 -0.562075
O12   O     O_R   0.017060 0.861050 0.489840 -0.644483
O13   O     O_R   0.612340 0.025880 0.867700 -0.566801
O14   O     O_R   0.132300 0.387660 0.974120 -0.587526
O15   O     O_R   0.867700 0.612340 0.025880 -0.588773
O16   O     O_R   0.974120 0.132300 0.387660 -0.595989
O17   O     O_R   0.025880 0.867700 0.612340 -0.591486
O18   O     O_3   0.745049 0.969432 0.745051 -0.575723
O19   O     O_3   0.241100 0.030640 0.246744 -0.577589
O20   O     O_3   0.090877 0.718135 0.716111 -0.617901
O21   O     O_3   0.898483 0.283933 0.290508 -0.621028
O22   O     O_3   0.711843 0.716977 0.099080 -0.607895
O23   O     O_R   0.138950 0.510160 0.982940 -0.639511
O24   O     O_3   0.296849 0.291759 0.885622 -0.623179
O25   O     O_R   0.861050 0.489840 0.017060 -0.633018
O26   O     O_R   0.510160 0.982940 0.138950 -0.663422
O27   O     O_R   0.489840 0.017060 0.861050 -0.672270
O28   O     O_R   0.489840 0.861050 0.017060 -0.640933
O29   O     O_R   0.510160 0.138950 0.982940 -0.663018
O30   O     O_R   0.017060 0.489840 0.861050 -0.638586
Zn1   Zn    Zn3+2 0.004880 0.004880 0.583590 0.938260
Zn2   Zn    Zn3+2 0.995120 0.995120 0.416410 0.947760
Zn3   Zn    Zn3+2 0.004880 0.583590 0.004880 0.945684
Zn4   Zn    Zn3+2 0.995120 0.416410 0.995120 0.949182
Zn5   Zn    Zn3+2 0.583590 0.004880 0.004880 0.953145
Zn6   Zn    Zn3+2 0.416410 0.995120 0.995120 0.935101

loop_
_geom_bond_atom_site_label_1
_geom_bond_atom_site_label_2
_ccdc_geom_bond_type
C48   C55   A    
C15   C75   S    
C46   C99   A    
O5    Zn1   S    
C11   H63   S    
C101  C102  S    
C39   H17   S    
C40   C47   A    
C100  H19   S    
C48   C76   A    
C40   C93   A    
C68   C93   A    
C54   H45   S    
C6    O22   S    
C72   C85   A    
C33   C65   A    
C7    C8    S    
C106  O20   S    
C30   H8    S    
C9    O24   S    
C66   C79   A    
C45   C57   A    
C22   O29   A    
C100  H18   S    
C50   C59   A    
C22   C82   S    
O2    Zn3   S    
C9    H58   S    
O7    Zn3   S    
C103  H26   S    
C102  H24   S    
C23   O7    A    
C21   H12   S    
C27   C60   A    
C107  H37   S    
O6    Zn2   S    
C7    H51   S    
C106  C107  S    
C45   C51   A    
C5    H46   S    
O4    Zn1   S    
C46   C52   A    
C60   C73   A    
C19   O27   A    
C101  H20   S    
C82   C92   A    
O3    Zn2   S    
C51   C56   A    
O17   Zn1   S    
C14   C77   S    
C76   H64   S    
C103  H27   S    
C31   H9    S    
C22   O10   A    
C69   C82   A    
C43   C58   A    
C19   O13   A    
C105  H30   S    
C37   H15   S    
C72   C95   A    
C35   C87   A    
O16   Zn2   S    
C2    H2    S    
C90   O21   S    
O13   Zn5   S    
C44   C58   A    
C10   H59   S    
C67   C94   A    
C107  C108  S    
C9    C10   S    
C36   C98   A    
C81   C86   A    
C70   C97   A    
C47   C53   A    
C108  H39   S    
C1    H1    S    
C60   C93   A    
C29   H7    S    
C33   H10   S    
C18   C74   S    
C37   C70   A    
C25   C81   S    
C100  O18   S    
C84   C90   A    
O28   Zn6   S    
C92   O24   S    
C88   O19   S    
C104  C105  S    
C6    H50   S    
C33   C66   A    
C108  H38   S    
C26   O4    A    
C87   H65   S    
C15   O12   A    
C77   C90   A    
C3    H41   S    
O12   Zn2   S    
C24   O8    A    
C42   C95   A    
O30   Zn4   S    
C19   C73   S    
C106  H35   S    
C10   C11   S    
C85   C89   A    
C61   C94   A    
C71   C96   A    
C17   O15   A    
C5    H47   S    
C63   C96   A    
C3    O21   S    
C49   C58   A    
C47   C87   A    
C66   C99   A    
C34   C67   A    
C36   H14   S    
C14   O1    A    
C44   C96   A    
C2    C51   A    
C105  H31   S    
C41   C94   A    
C35   H13   S    
C39   C72   A    
C40   C55   A    
C4    H44   S    
C70   C83   A    
C41   C53   A    
C79   C92   A    
C29   C62   A    
C28   H6    S    
C20   O9    A    
C13   C49   A    
C27   H5    S    
C64   C97   A    
C21   C28   A    
C11   H61   S    
C18   O26   A    
C78   C91   A    
C30   C43   A    
O23   Zn3   S    
O9    Zn5   S    
O1    Zn1   S    
C3    C4    S    
C24   O2    A    
C12   C38   A    
C69   C99   A    
O27   Zn6   S    
C6    H49   S    
C36   C69   A    
C106  H33   S    
C71   C84   A    
C63   C77   A    
C44   C50   A    
C34   H11   S    
C4    H43   S    
C15   O17   A    
C38   C71   A    
O14   Zn4   S    
C3    H42   S    
O25   Zn4   S    
C104  H28   S    
C62   C95   A    
C104  H29   S    
C64   C78   A    
C31   C64   A    
C67   C80   A    
C102  H22   S    
C4    C5    S    
C8    H55   S    
C42   C59   A    
C12   C50   A    
C25   O5    A    
O10   Zn6   S    
C6    C7    S    
C7    H52   S    
C26   O6    A    
C61   C74   A    
C13   H4    S    
C5    H48   S    
C83   C91   A    
C18   O11   A    
C86   O18   S    
O26   Zn5   S    
C32   C59   A    
C68   C81   A    
C23   O30   A    
C8    H53   S    
C16   C79   S    
C17   C78   S    
C9    H57   S    
C24   C84   S    
C102  H25   S    
C20   O28   A    
C29   C32   A    
C80   C88   A    
C45   C97   A    
C28   C61   A    
C105  H32   S    
C21   C53   A    
C91   O22   S    
C2    C37   A    
C35   C68   A    
O15   Zn3   S    
C98   H66   S    
C89   O20   S    
C65   H56   S    
C52   C98   A    
C100  C101  S    
C41   C48   A    
C17   O25   A    
O8    Zn4   S    
C32   H23   S    
C31   C54   A    
C1    C55   A    
C62   C75   A    
C26   C80   S    
C73   C86   A    
C13   C39   A    
C52   C57   A    
C75   C89   A    
C42   C49   A    
C14   O16   A    
C11   H62   S    
C10   H60   S    
C23   C85   S    
C20   C83   S    
C46   C56   A    
C103  C104  S    
C1    C27   A    
O11   Zn6   S    
O29   Zn5   S    
C43   H34   S    
C8    H54   S    
C103  O19   S    
C16   O14   A    
C74   C88   A    
C107  H36   S    
C30   C63   A    
C25   O3    A    
C12   H3    S    
C38   H16   S    
C16   O23   A    
C56   C65   A    
C34   C76   A    
C108  H40   S    
C54   C57   A    
C101  H21   S    
