data_str_m3_o4_o16_f0_pcu.sym.207
_audit_creation_date              2013-03-05T16:42:03-0500
_audit_creation_method            fapswitch 2.2
_symmetry_space_group_name_H-M    P1
_symmetry_Int_Tables_number       1
_space_group_crystal_system       triclinic
_cell_length_a                    9.904243
_cell_length_b                    10.730275
_cell_length_c                    12.954873
_cell_angle_alpha                 90.348972
_cell_angle_beta                  73.101028
_cell_angle_gamma                 89.463244
_cell_volume                      1317.21756548

loop_
_atom_site_label
_atom_site_type_symbol
_atom_site_description
_atom_site_fract_x
_atom_site_fract_y
_atom_site_fract_z
_atom_type_partial_charge
O1    O     O_R   0.385310 0.683210 0.499990 -0.616977
O2    O     O_R   0.614650 0.683240 0.500000 -0.619973
C1    C     C_R   0.500418 0.739933 0.497397 0.961625
O3    O     O_R   0.328390 0.499940 0.653610 -0.587019
O4    O     O_R   0.557730 0.499980 0.653620 -0.625689
C2    C     C_R   0.426950 0.474995 0.699988 0.962673
Zn1   Zn    Zn3+2 0.346870 0.499980 0.499990 0.986595
Zn2   Zn    Zn3+2 0.653130 0.500020 0.500010 0.964643
O5    O     O_R   0.385350 0.316760 0.500000 -0.611999
O6    O     O_R   0.614690 0.316790 0.500010 -0.634705
O7    O     O_R   0.442270 0.500020 0.346380 -0.631596
O8    O     O_R   0.671610 0.500060 0.346390 -0.626113
C3    C     C_R   0.502029 0.260449 0.495805 0.892935
C4    C     C_R   0.576013 0.499371 0.296151 0.870945
C5    C     C_R   0.803793 0.483378 0.009289 0.028470
H1    H     H_    0.831133 0.544569 0.160484 0.198994
H2    H     H_    0.858104 0.389575 0.801426 0.171632
C6    C     C_R   0.619933 0.483651 0.179823 -0.104531
C7    C     C_R   0.256890 0.380836 0.862263 -0.182211
C8    C     C_R   0.224341 0.328164 0.965569 0.417184
C9    C     C_R   0.330253 0.320601 0.019515 -0.144264
C10   C     C_R   0.465394 0.370592 0.967432 -0.034816
C11   C     C_R   0.502522 0.387659 0.855615 0.093999
C12   C     C_R   0.565839 0.407695 0.020309 0.105952
C13   C     C_R   0.708734 0.428076 0.959294 0.089148
C14   C     C_R   0.749216 0.395293 0.849629 -0.226719
C15   C     C_R   0.646611 0.376204 0.797972 -0.120219
C16   C     C_R   0.523061 0.440787 0.129205 -0.268172
C17   C     C_R   0.758707 0.506250 0.120266 -0.098042
C18   C     C_R   0.394771 0.414401 0.807083 -0.172323
H3    H     H_    0.413062 0.435946 0.175101 0.155768
H4    H     H_    0.175893 0.389880 0.822426 0.195279
H5    H     H_    0.681597 0.352129 0.713175 0.187834
C19   C     C_R   0.380492 0.939667 0.494949 -0.029779
C20   C     C_R   0.504229 0.871653 0.483923 -0.025238
C21   C     C_R   0.634086 0.933813 0.452546 -0.139728
H6    H     H_    0.733483 0.883448 0.433438 0.157010
C22   C     C_R   0.635493 0.063329 0.452649 -0.154416
H7    H     H_    0.735502 0.110772 0.436179 0.176890
C23   C     C_R   0.506881 0.129362 0.480399 -0.034930
C24   C     C_R   0.382508 0.065855 0.489499 -0.049849
C25   C     C_3   0.233058 0.080619 0.559138 0.103754
C26   C     C_3   0.230911 0.938217 0.567239 0.051406
H8    H     H_    0.161561 0.117927 0.514146 0.102824
H9    H     H_    0.157049 0.895949 0.527360 0.056028
C27   C     C_R   0.894321 0.528356 0.591928 0.086232
N1    N     N_R   0.856940 0.500860 0.500710 -0.129362
C28   C     C_R   0.961956 0.461069 0.412043 -0.097042
H10   H     H_    0.935811 0.431398 0.340330 0.191013
C29   C     C_R   0.105601 0.461134 0.412016 -0.093008
H11   H     H_    0.186711 0.431413 0.340255 0.156459
N2    N     N_R   0.142580 0.500820 0.500710 -0.108071
C30   C     C_R   0.036599 0.527083 0.591911 0.206178
C31   C     C_3   0.020770 0.645808 0.653310 -0.500046
C32   C     C_3   0.866068 0.646838 0.657314 -0.269446
H12   H     H_    0.040161 0.636968 0.732520 0.232693
H13   H     H_    0.084663 0.718154 0.602344 0.207495
H14   H     H_    0.794230 0.632986 0.740026 0.197786
N3    N     N_R   0.218851 0.146929 0.661134 0.267942
O9    O     O_R   0.112883 0.223292 0.698390 -0.391331
O10   O     O_R   0.310552 0.131714 0.714637 -0.338468
N4    N     N_R   0.213162 0.893333 0.677298 0.258449
O11   O     O_R   0.090185 0.903997 0.748648 -0.307529
O12   O     O_R   0.317489 0.844383 0.705782 -0.325937
C33   C     C_2   0.828399 0.757521 0.600835 0.594317
H15   H     H_    0.886425 0.775893 0.517514 0.011834
O13   O     O_2   0.734086 0.828743 0.649144 -0.519199
C34   C     C_2   0.945401 0.527468 0.947567 0.462675
H16   H     H_    0.986103 0.508681 0.862906 0.015477
O14   O     O_2   0.018467 0.587234 0.991018 -0.540086
C35   C     C_2   0.314147 0.238428 0.115207 0.434474
H17   H     H_    0.404196 0.219187 0.144503 0.070241
O15   O     O_2   0.204079 0.185904 0.159562 -0.500677
N5    N     N_R   0.083463 0.285327 0.014372 0.236624
O16   O     O_R   0.013342 0.323948 0.110609 -0.380398
O17   O     O_R   0.016860 0.226158 0.956344 -0.321570

loop_
_geom_bond_atom_site_label_1
_geom_bond_atom_site_label_2
_geom_bond_distance
_ccdc_geom_bond_type
C24   C25   1.499152 S    
C4    C6    1.450240 S    
C7    C8    1.405782 A    
C30   C31   1.480421 S    
C15   H5    1.080351 S    
Zn1   O7    1.939007 S    
C14   C15   1.385677 A    
N5    O17   1.301411 A    
C9    C35   1.496894 S    
H2    C14   1.078682 S    
C21   H6    1.081303 S    
Zn1   N2    2.020581 S    
C22   H7    1.083379 S    
O7    C4    1.294900 A    
C5    C13   1.420661 A    
C19   C20   1.391088 A    
O5    C3    1.285889 A    
C3    C23   1.417892 S    
N4    O12   1.301373 A    
C31   C32   1.517875 S    
C20   C21   1.407014 A    
C34   H16   1.069949 S    
C33   O13   1.220324 D    
C27   C32   1.501522 S    
C29   N2    1.370165 A    
C11   C15   1.409041 A    
C28   C29   1.422591 A    
N3    O9    1.300174 A    
C9    C10   1.423849 A    
C19   C24   1.356330 A    
C25   H8    1.113068 S    
O3    Zn1   1.944826 S    
C7    H4    1.076645 S    
C32   C33   1.498685 S    
C5    C17   1.395358 A    
C31   H12   1.101951 S    
N3    O10   1.302520 A    
N5    O16   1.301294 A    
C11   C18   1.415287 A    
C6    C16   1.390124 A    
C12   C13   1.425878 A    
O3    C2    1.312847 A    
C35   O15   1.219631 D    
H1    C17   1.084092 S    
O1    C1    1.289308 A    
N4    O11   1.300979 A    
N1    C28   1.369191 A    
C1    C20   1.424685 S    
Zn2   O8    1.944827 S    
C29   H11   1.081068 S    
C8    N5    1.435458 S    
C6    C17   1.391121 A    
C26   H9    1.109444 S    
C34   O14   1.221864 D    
C23   C24   1.388506 A    
C2    C18   1.485606 S    
O8    C4    1.295542 A    
C10   C12   1.420463 A    
C25   C26   1.532170 S    
N2    C30   1.358872 A    
Zn1   O5    1.999099 S    
C27   N1    1.368478 A    
C28   H10   1.081361 S    
O1    Zn1   2.006129 S    
C16   H3    1.080735 S    
O2    Zn2   1.999100 S    
C19   C26   1.505357 S    
C12   C16   1.392611 A    
O6    C3    1.288829 A    
C25   N3    1.466493 S    
O4    Zn2   1.939004 S    
C21   C22   1.389941 A    
O2    C1    1.288706 A    
C13   C14   1.401064 A    
Zn2   N1    2.021344 S    
C35   H17   1.084609 S    
C22   C23   1.402716 A    
O4    C2    1.290961 A    
C5    C34   1.481657 S    
C27   C30   1.409025 A    
C8    C9    1.421503 A    
Zn2   O6    2.006129 S    
C33   H15   1.085520 S    
C32   H14   1.112286 S    
C10   C11   1.400696 A    
C7    C18   1.396573 A    
C26   N4    1.469694 S    
C31   H13   1.100698 S    
