data_str_m9_o2_o16_f0_sra.sym.12
_audit_creation_date              2012-12-11T16:25:26-0500
_audit_creation_method            fapswitch 2.2
_symmetry_space_group_name_H-M    P1
_symmetry_Int_Tables_number       1
_space_group_crystal_system       triclinic
_cell_length_a                    20.224901
_cell_length_b                    7.267663
_cell_length_c                    13.376312
_cell_angle_alpha                 89.998302
_cell_angle_beta                  103.268178
_cell_angle_gamma                 90.004159
_cell_volume                      1913.67064239

loop_
_atom_site_label
_atom_site_type_symbol
_atom_type_description
_atom_site_fract_x
_atom_site_fract_y
_atom_site_fract_z
_atom_type_partial_charge
O1    O     O_R   0.449520 0.506760 0.599710 -0.540214
O2    O     O_R   0.550480 0.006760 0.400290 -0.540230
O3    O     O_R   0.587930 0.180200 0.595790 -0.539670
O4    O     O_R   0.412070 0.680200 0.404210 -0.539604
C1    C     C_R   0.614384 0.344263 0.617593 0.687947
C2    C     C_R   0.385619 0.844257 0.382400 0.687925
O5    O     O_R   0.452350 0.177380 0.611700 -0.532750
O6    O     O_R   0.547650 0.677380 0.388300 -0.532682
O7    O     O_R   0.413930 0.001760 0.416320 -0.529844
O8    O     O_R   0.586070 0.501760 0.583680 -0.529797
C3    C     C_R   0.436437 0.345298 0.638210 0.693515
C4    C     C_R   0.563558 0.845311 0.361782 0.693446
O9    O     O_3   0.487550 0.337460 0.435880 -0.378070
O10   O     O_3   0.512450 0.837460 0.564120 -0.378101
V1    V     V_3+5 0.502310 0.064670 0.511900 1.464499
V2    V     V_3+5 0.497690 0.564670 0.488100 1.464732
C5    C     C_R   0.611351 0.784927 0.108861 -0.126601
C6    C     C_R   0.388603 0.284039 0.891036 -0.126523
H1    H     H_    0.518796 0.764714 0.160120 0.102062
H2    H     H_    0.481154 0.263843 0.839750 0.102205
H3    H     H_    0.694626 0.781256 0.982443 0.121902
H4    H     H_    0.305322 0.279932 0.017431 0.121924
H5    H     H_    0.586484 0.751341 0.030262 0.111264
H6    H     H_    0.413445 0.250012 0.969582 0.111325
C7    C     C_R   0.602751 0.849066 0.282424 -0.051696
C8    C     C_R   0.397251 0.348977 0.717573 -0.051958
C9    C     C_R   0.930692 0.884578 0.319121 -0.239639
C10   C     C_R   0.069304 0.385182 0.680904 -0.239713
C11   C     C_R   0.896271 0.872347 0.397247 -0.143050
C12   C     C_R   0.103722 0.373284 0.602761 -0.142940
C13   C     C_R   0.825985 0.847862 0.375439 0.354184
C14   C     C_R   0.174015 0.348644 0.624520 0.354140
C15   C     C_R   0.787468 0.850241 0.271194 0.025284
C16   C     C_R   0.212523 0.350428 0.728782 0.025369
C17   C     C_R   0.824387 0.847458 0.191723 0.052339
C18   C     C_R   0.175602 0.347294 0.808246 0.052365
C19   C     C_R   0.714650 0.847342 0.241624 0.135509
C20   C     C_R   0.285343 0.347281 0.758352 0.135414
C21   C     C_R   0.681898 0.811712 0.137424 0.187020
C22   C     C_R   0.318071 0.311091 0.862502 0.186908
C23   C     C_R   0.719500 0.803718 0.062362 -0.145705
C24   C     C_R   0.280464 0.302802 0.937547 -0.145601
C25   C     C_R   0.789330 0.826351 0.088527 -0.139524
C26   C     C_R   0.210647 0.325651 0.911411 -0.139588
C27   C     C_R   0.672546 0.884496 0.310158 -0.134794
C28   C     C_R   0.327476 0.384701 0.689883 -0.134616
C29   C     C_R   0.572524 0.795537 0.182098 -0.161802
C30   C     C_R   0.427443 0.294908 0.817820 -0.161885
C31   C     C_R   0.896076 0.864090 0.216922 -0.063252
C32   C     C_R   0.103919 0.364169 0.783074 -0.063304
H7    H     H_    0.692206 0.943163 0.384860 0.163927
H8    H     H_    0.307855 0.443778 0.615278 0.164108
H9    H     H_    0.985168 0.903080 0.339052 0.122993
H10   H     H_    0.014838 0.403887 0.661011 0.123125
H11   H     H_    0.925220 0.874840 0.476175 0.159906
H12   H     H_    0.074782 0.376212 0.523837 0.159957
H13   H     H_    0.815840 0.822312 0.026860 0.115920
H14   H     H_    0.184129 0.321353 0.973065 0.115985
H15   H     H_    0.100197 0.796090 0.476135 0.108533
H16   H     H_    0.899791 0.294487 0.523933 0.108607
C33   C     C_R   0.233969 0.851397 0.033325 -0.201080
C34   C     C_R   0.766027 0.352024 0.966667 -0.201045
C35   C     C_R   0.290774 0.845785 0.990741 0.439686
C36   C     C_R   0.709219 0.346706 0.009252 0.439689
C37   C     C_R   0.355720 0.850495 0.054325 -0.187733
C38   C     C_R   0.644276 0.351546 0.945662 -0.187744
C39   C     C_R   0.364271 0.856297 0.160742 -0.218026
C40   C     C_R   0.635730 0.357108 0.839241 -0.218083
C41   C     C_R   0.307656 0.855272 0.206106 0.075417
C42   C     C_R   0.692347 0.355688 0.793879 0.075398
C43   C     C_R   0.241175 0.855502 0.141104 -0.000592
C44   C     C_R   0.758826 0.355865 0.858884 -0.000580
C45   C     C_R   0.316398 0.850536 0.314369 -0.147600
C46   C     C_R   0.683607 0.350543 0.685620 -0.147602
C47   C     C_R   0.258688 0.839401 0.357448 0.069026
C48   C     C_R   0.741316 0.338927 0.642559 0.069056
C49   C     C_R   0.192234 0.842287 0.292441 0.081757
C50   C     C_R   0.807771 0.341817 0.707565 0.081743
C51   C     C_R   0.183472 0.855630 0.184467 -0.144362
C52   C     C_R   0.816532 0.355598 0.815525 -0.144365
C53   C     C_R   0.265817 0.822060 0.464848 -0.074326
C54   C     C_R   0.734181 0.321133 0.535183 -0.074272
C55   C     C_R   0.209021 0.805959 0.506779 -0.010358
C56   C     C_R   0.790967 0.304623 0.493279 -0.010326
C57   C     C_R   0.144144 0.808867 0.443223 -0.061960
C58   C     C_R   0.855844 0.307560 0.556833 -0.061996
C59   C     C_R   0.135631 0.827388 0.337272 -0.103242
C60   C     C_R   0.864369 0.326501 0.662756 -0.103470
H17   H     H_    0.184382 0.849143 0.981173 0.142283
H18   H     H_    0.815612 0.349680 0.018825 0.142270
H19   H     H_    0.399852 0.848449 0.021332 0.147858
H20   H     H_    0.600141 0.349742 0.978656 0.147899
H21   H     H_    0.415629 0.859109 0.207163 0.105874
H22   H     H_    0.584371 0.359988 0.792823 0.105923
H23   H     H_    0.315233 0.819124 0.517426 0.106146
H24   H     H_    0.684765 0.318180 0.482604 0.106174
H25   H     H_    0.215407 0.791328 0.589006 0.153096
H26   H     H_    0.784580 0.289669 0.411067 0.152932
H27   H     H_    0.084414 0.826716 0.290544 0.076311
H28   H     H_    0.915591 0.325836 0.709480 0.076406
O11   O     O_R   0.913760 0.203480 0.916370 -0.534319
O12   O     O_R   0.086240 0.703480 0.083630 -0.534267
O13   O     O_R   0.047590 0.535230 0.888250 -0.535815
O14   O     O_R   0.952410 0.035230 0.111750 -0.535833
C61   C     C_R   0.064161 0.368920 0.862262 0.683476
C62   C     C_R   0.935841 0.868907 0.137742 0.683489
O15   O     O_R   0.912020 0.532880 0.904260 -0.535789
O16   O     O_R   0.087980 0.032880 0.095740 -0.535817
O17   O     O_R   0.949590 0.708460 0.099750 -0.537501
O18   O     O_R   0.050410 0.208460 0.900250 -0.537565
C63   C     C_R   0.885808 0.364647 0.883337 0.679959
C64   C     C_R   0.114195 0.864657 0.116654 0.679953
O19   O     O_3   0.012370 0.375360 0.064120 -0.375567
O20   O     O_3   0.987630 0.875360 0.935880 -0.375610
V3    V     V_3+5 0.997700 0.648160 0.988110 1.453639
V4    V     V_3+5 0.002300 0.148160 0.011890 1.453542
Cl1   Cl    Cl    0.280333 0.831860 0.856948 -0.708806
Cl2   Cl    Cl    0.719650 0.332880 0.143049 -0.708487
Cl3   Cl    Cl    0.794555 0.781295 0.482786 -0.717931
Cl4   Cl    Cl    0.205406 0.282665 0.517067 -0.718117

loop_
_geom_bond_atom_site_label_1
_geom_bond_atom_site_label_2
_ccdc_geom_bond_type
C38   C40   A    
C61   O18   A    
C35   C37   A    
C7    C27   A    
C9    C11   A    
C23   C25   A    
O12   C64   A    
O1    C3    A    
O2    C4    A    
C2    O7    A    
O14   C62   A    
O20   V3    S    
O3    V1    S    
C21   C23   A    
O5    C3    A    
C5    H5    S    
C46   C48   A    
C51   C64   S    
C6    H6    S    
C20   C22   A    
C48   C50   A    
O17   V3    S    
C53   H23   S    
C58   C60   A    
C27   H7    S    
C28   H8    S    
C36   Cl2   S    
C41   C43   A    
C5    C21   A    
C1    C46   S    
C33   C35   A    
C6    C22   A    
C34   C36   A    
O12   V3    S    
O14   V4    S    
C10   C32   A    
C26   H14   S    
C37   C39   A    
C17   C31   A    
C32   C61   S    
C13   C15   A    
C41   C45   A    
C17   C25   A    
C7    C29   A    
C16   C18   A    
C8    C30   A    
O19   V4    S    
C33   C43   A    
C22   C24   A    
O6    V2    S    
C11   C13   A    
C45   C47   A    
C24   C26   A    
C14   Cl4   S    
C43   C51   A    
C53   C55   A    
C33   H17   S    
C59   H27   S    
C49   C51   A    
C19   C21   A    
C54   H24   S    
C57   C59   A    
O4    C2    A    
C48   C54   A    
C10   H10   S    
C47   C53   A    
C38   H20   S    
C11   H11   S    
C3    C8    S    
C12   H12   S    
C40   H22   S    
O16   C64   A    
C39   C41   A    
C36   C38   A    
O4    V2    S    
O13   V3    S    
H15   C57   S    
C42   C46   A    
O6    C4    A    
O15   V3    S    
C34   C44   A    
O13   C61   A    
O1    V2    S    
C60   H28   S    
O2    V1    S    
C47   C49   A    
C13   Cl3   S    
H2    C30   S    
H3    C23   S    
C55   C57   A    
C54   C56   A    
C18   C26   A    
C19   C27   A    
O18   V4    S    
C18   C32   A    
C2    C45   S    
C50   C60   A    
C37   H19   S    
H16   C58   S    
C16   C20   A    
O15   C63   A    
C5    C29   A    
C56   C58   A    
O3    C1    A    
C6    C30   A    
C9    H9    S    
C31   C62   S    
O11   C63   A    
C4    C7    S    
C56   H26   S    
O16   V4    S    
C10   C12   A    
O7    V1    S    
C1    O8    A    
C44   C52   A    
O8    V2    S    
C12   C14   A    
H4    C24   S    
C35   Cl1   S    
C34   H18   S    
C52   C63   S    
O5    V1    S    
C15   C17   A    
H1    C29   S    
C50   C52   A    
C15   C19   A    
C20   C28   A    
C25   H13   S    
C49   C59   A    
C40   C42   A    
C55   H25   S    
O9    V2    S    
C39   H21   S    
O11   V4    S    
O10   V1    S    
C42   C44   A    
C8    C28   A    
C9    C31   A    
C14   C16   A    
C62   O17   A    
