data_str_m2_o16_o22_f0_pcu.sym.161
_audit_creation_date              2012-12-10T17:35:35-0500
_audit_creation_method            fapswitch 2.2
_symmetry_space_group_name_H-M    P1
_symmetry_Int_Tables_number       1
_space_group_crystal_system       triclinic
_cell_length_a                    10.714996
_cell_length_b                    12.315759
_cell_length_c                    13.191111
_cell_angle_alpha                 116.632898
_cell_angle_beta                  77.473153
_cell_angle_gamma                 101.386383
_cell_volume                      1508.95567688

loop_
_atom_site_label
_atom_site_type_symbol
_atom_type_description
_atom_site_fract_x
_atom_site_fract_y
_atom_site_fract_z
_atom_type_partial_charge
C1    C     C_R   0.512959 0.854490 0.286434 0.820780
C2    C     C_3   0.121382 0.003752 0.505613 -0.049527
C3    C     C_3   0.088169 0.137649 0.557757 -0.395597
C4    C     C_3   0.036063 0.937411 0.579204 -0.154908
C5    C     C_R   0.363714 0.266719 0.029130 -0.131992
C6    C     C_R   0.465512 0.226403 0.835686 -0.040732
C7    C     C_R   0.622293 0.809950 0.089996 -0.228984
C8    C     C_R   0.682352 0.725792 0.988786 -0.104905
C9    C     C_R   0.653433 0.600174 0.959241 -0.004667
C10   C     C_R   0.544384 0.557753 0.022087 -0.024339
C11   C     C_R   0.485238 0.644399 0.126315 0.080138
C12   C     C_R   0.739266 0.001569 0.502857 0.759899
C13   C     C_R   0.492093 0.432830 0.986263 0.046139
C14   C     C_R   0.406174 0.392608 0.064880 0.141598
C15   C     C_R   0.354934 0.480551 0.171659 -0.035902
C16   C     C_R   0.383125 0.603545 0.193262 -0.240911
C17   C     C_R   0.511898 0.349697 0.870897 -0.255560
C18   C     C_R   0.396045 0.184151 0.916126 -0.197655
C19   C     C_R   0.532748 0.770099 0.164088 -0.059204
C20   C     C_R   0.703315 0.343168 0.324722 -0.230090
C21   C     C_R   0.324977 0.758339 0.644620 0.079280
C22   C     C_R   0.287305 0.660938 0.675189 -0.212541
C23   C     C_R   0.482217 0.145010 0.713477 0.789450
C24   C     C_R   0.353852 0.558200 0.620434 -0.170327
C25   C     C_R   0.459768 0.551371 0.533631 0.014677
C26   C     C_R   0.493926 0.653089 0.504767 0.288775
C27   C     C_R   0.532161 0.447749 0.474349 -0.030792
C28   C     C_R   0.637182 0.447563 0.386874 0.148837
C29   C     C_R   0.671422 0.550241 0.361570 -0.054978
C30   C     C_R   0.598673 0.648352 0.418537 -0.279153
C31   C     C_R   0.504505 0.343062 0.497971 0.060900
C32   C     C_R   0.671230 0.244227 0.352587 0.060390
C33   C     C_R   0.259937 0.002336 0.503313 0.760935
C34   C     C_3   0.943350 0.935178 0.381762 -0.478448
C35   C     C_3   0.087625 0.932773 0.380588 -0.150663
C36   C     C_3   0.944216 0.137890 0.556844 -0.114234
C37   C     C_3   0.892263 0.936853 0.577879 -0.312286
C38   C     C_3   0.876741 0.003514 0.506146 0.042097
Cu1   Cu    Cu3+1 0.529690 0.098270 0.475420 0.950648
Cu2   Cu    Cu3+1 0.470310 0.901730 0.524580 0.928309
H1    H     H_    0.930442 0.979779 0.328132 0.163718
H2    H     H_    0.114521 0.189575 0.645464 0.184330
H3    H     H_    0.358376 0.088691 0.890087 0.164971
H4    H     H_    0.299009 0.230954 0.084847 0.196137
H5    H     H_    0.557049 0.381694 0.806143 0.159077
H6    H     H_    0.657320 0.906000 0.116234 0.166877
H7    H     H_    0.761468 0.759820 0.939958 0.201173
H8    H     H_    0.722871 0.164719 0.305208 0.125100
H9    H     H_    0.778352 0.335221 0.253227 0.194109
H10   H     H_    0.273147 0.837863 0.687773 0.145861
H11   H     H_    0.320042 0.485811 0.647819 0.138857
H12   H     H_    0.206294 0.665107 0.741665 0.180412
H13   H     H_    0.630072 0.721553 0.393992 0.200139
H14   H     H_    0.104090 0.835454 0.348912 0.169712
H15   H     H_    0.147047 0.187225 0.507647 0.163638
H16   H     H_    0.838731 0.979508 0.665952 0.221701
H17   H     H_    0.848083 0.840045 0.539614 0.173577
H18   H     H_    0.056237 0.840234 0.538223 0.159455
N1    N     N_R   0.574690 0.246280 0.438200 -0.183554
N2    N     N_R   0.426100 0.754320 0.561190 -0.208234
O1    O     O_R   0.537340 0.972510 0.318130 -0.560312
O2    O     O_R   0.487200 0.806530 0.359650 -0.613930
O3    O     O_R   0.707380 0.082980 0.479220 -0.601001
O4    O     O_R   0.657240 0.917000 0.520740 -0.598948
O5    O     O_R   0.512800 0.193470 0.640350 -0.596231
O6    O     O_R   0.462660 0.027490 0.681870 -0.583949
O7    O     O_R   0.342760 0.083000 0.479260 -0.570914
O8    O     O_R   0.292620 0.917020 0.520780 -0.607063
C39   C     C_2   0.065016 0.989993 0.700923 0.435395
H19   H     H_    0.132697 0.071231 0.733867 0.062028
O9    O     O_2   0.013242 0.939886 0.763413 -0.543399
C40   C     C_2   0.876732 0.217756 0.673317 0.344150
H20   H     H_    0.810928 0.277429 0.678814 0.099395
O10   O     O_2   0.891114 0.213302 0.760667 -0.552326
C41   C     C_2   0.266852 0.450722 0.261762 0.354988
H21   H     H_    0.193015 0.509394 0.316422 0.105847
O11   O     O_2   0.281257 0.366626 0.281649 -0.564975
C42   C     C_2   0.751116 0.519807 0.876904 0.312070
H22   H     H_    0.758521 0.434790 0.879919 0.111895
O12   O     O_2   0.825907 0.548664 0.806474 -0.537545
H23   H     H_    0.896007 0.839596 0.343332 0.168475
H24   H     H_    0.326814 0.667748 0.266299 0.166853
C43   C     C_2   0.784435 0.562596 0.277667 0.328919
H25   H     H_    0.778459 0.609081 0.225992 0.069932
O13   O     O_2   0.887141 0.529379 0.271053 -0.554744
H26   H     H_    0.427779 0.336066 0.563360 0.114857
C44   C     C_2   0.170639 0.980749 0.297513 0.399705
H27   H     H_    0.165105 0.072213 0.307751 0.100132
O14   O     O_2   0.243915 0.916643 0.217596 -0.544436
H28   H     H_    0.940035 0.180055 0.498673 0.123622

loop_
_geom_bond_atom_site_label_1
_geom_bond_atom_site_label_2
_ccdc_geom_bond_type
C2    C35   S    
C15   C41   S    
C44   H27   S    
C3    H2    S    
Cu2   N2    S    
C32   H8    S    
C1    O2    A    
C7    C8    A    
C11   C19   A    
C29   C30   A    
C23   O6    A    
C28   C29   A    
C37   C38   S    
C17   H5    S    
C29   C43   S    
C12   O4    A    
C42   O12   D    
C15   C16   A    
Cu2   O2    S    
C34   C35   S    
C31   N1    A    
C39   O9    D    
C21   H10   S    
C37   H16   S    
C3    H15   S    
C8    C9    A    
C34   H23   S    
C9    C10   A    
C24   H11   S    
C31   H26   S    
Cu2   O6    S    
C13   C14   A    
C35   H14   S    
Cu1   O5    S    
C34   H1    S    
C35   C44   S    
Cu1   O1    S    
C4    C39   S    
C6    C18   A    
C30   H13   S    
C1    C19   S    
C27   C31   A    
C7    H6    S    
C24   C25   A    
C21   N2    A    
C40   O10   D    
Cu1   Cu2   S    
C12   O3    A    
C42   H22   S    
C5    C18   A    
C20   C28   A    
C25   C26   A    
C2    C4    S    
C41   H21   S    
C20   H9    S    
C11   C16   A    
C43   H25   S    
Cu1   N1    S    
C16   H24   S    
C41   O11   D    
C5    C14   A    
C2    C33   S    
C43   O13   D    
C5    H4    S    
C26   C30   A    
C7    C19   A    
C44   O14   D    
C22   C24   A    
C33   O7    A    
C22   H12   S    
C20   C32   A    
C36   H28   S    
C6    C17   A    
C34   C38   S    
Cu1   O7    S    
C40   H20   S    
C10   C13   A    
C1    O1    A    
C25   C27   A    
Cu1   O3    S    
Cu2   O4    S    
C13   C17   A    
C23   O5    A    
C36   C38   S    
C2    C3    S    
C8    H7    S    
C18   H3    S    
C3    C36   S    
C6    C23   S    
C9    C42   S    
C12   C38   S    
C39   H19   S    
C10   C11   A    
C4    C37   S    
Cu2   O8    S    
C4    H18   S    
C27   C28   A    
C14   C15   A    
C32   N1    A    
C21   C22   A    
C26   N2    A    
C37   H17   S    
C36   C40   S    
C33   O8    A    
