data_str_m3_o16_o18_f0_pcu.sym.50
_audit_creation_date              2012-12-10T18:06:48-0500
_audit_creation_method            fapswitch 2.2
_symmetry_space_group_name_H-M    P1
_symmetry_Int_Tables_number       1
_space_group_crystal_system       triclinic
_cell_length_a                    12.650868
_cell_length_b                    13.076385
_cell_length_c                    15.047461
_cell_angle_alpha                 85.352181
_cell_angle_beta                  99.717078
_cell_angle_gamma                 96.952385
_cell_volume                      2430.83573073

loop_
_atom_site_label
_atom_site_type_symbol
_atom_type_description
_atom_site_fract_x
_atom_site_fract_y
_atom_site_fract_z
_atom_type_partial_charge
C1    C     C_R   0.442743 0.308422 0.508219 0.873590
C2    C     C_R   0.700686 0.580256 0.931500 -0.019299
C3    C     C_R   0.591275 0.589991 0.895641 0.016781
C4    C     C_R   0.438337 0.520958 0.334904 0.864506
C5    C     C_R   0.765921 0.538682 0.880028 -0.275375
C6    C     C_R   0.721965 0.499920 0.796110 0.478538
C7    C     C_R   0.548635 0.552757 0.811312 -0.268282
C8    C     C_R   0.603297 0.929966 0.343874 -0.217825
C9    C     C_R   0.576679 0.799813 0.463507 -0.043568
C10   C     C_R   0.344662 0.162572 0.584559 -0.309028
C11   C     C_R   0.322513 0.056438 0.604404 0.545375
C12   C     C_R   0.478094 0.618085 0.098763 0.050546
C13   C     C_R   0.376172 0.988609 0.565851 -0.291000
C14   C     C_R   0.440899 0.024820 0.499169 0.007039
C15   C     C_R   0.442985 0.128736 0.466757 0.064765
C16   C     C_R   0.555182 0.691494 0.488585 0.837918
C17   C     C_R   0.503147 0.961409 0.462793 0.118756
C18   C     C_R   0.544892 0.994594 0.382233 0.174585
C19   C     C_R   0.526431 0.091241 0.340825 -0.254571
C20   C     C_R   0.480133 0.159755 0.384584 -0.138432
C21   C     C_R   0.526248 0.866514 0.505226 -0.259271
C22   C     C_R   0.618015 0.831835 0.383946 -0.199301
C23   C     C_R   0.376851 0.652457 0.063325 -0.041090
C24   C     C_R   0.406848 0.198691 0.517345 -0.172623
C25   C     C_R   0.143950 0.645949 0.627785 -0.282442
C26   C     C_R   0.757525 0.369301 0.401665 0.678714
C27   C     C_R   0.847986 0.314109 0.412651 -0.408268
C28   C     C_R   0.566120 0.491195 0.665237 0.850300
C29   C     C_R   0.943333 0.353249 0.464771 -0.234662
C30   C     C_R   0.950325 0.449663 0.501968 0.029546
C31   C     C_R   0.852969 0.489305 0.506214 0.105527
C32   C     C_R   0.048903 0.507424 0.535614 -0.086048
C33   C     C_R   0.047599 0.589261 0.591762 0.096308
C34   C     C_R   0.557253 0.621739 0.042926 -0.018036
C35   C     C_R   0.949559 0.616011 0.608270 -0.209126
C36   C     C_R   0.853220 0.568923 0.563307 -0.110075
C37   C     C_R   0.147574 0.494456 0.508408 0.545449
C38   C     C_R   0.239959 0.624749 0.604100 -0.065917
C39   C     C_R   0.414128 0.564143 0.240944 -0.143507
C40   C     C_R   0.612744 0.510532 0.759771 -0.214724
C41   C     C_R   0.301301 0.656791 0.121450 0.537560
C42   C     C_R   0.319845 0.611070 0.209100 -0.308715
C43   C     C_R   0.494331 0.572133 0.186483 -0.235882
C44   C     C_3   0.156945 0.054291 0.651904 0.066870
C45   C     C_R   0.524733 0.628416 0.948858 -0.052765
C46   C     C_3   0.143627 0.117811 0.729584 -0.337309
C47   C     C_3   0.035817 0.163070 0.711431 -0.961070
C48   C     C_3   0.145574 0.481862 0.356665 0.143066
C49   C     C_3   0.035142 0.461292 0.298294 -0.486090
C50   C     C_3   0.037687 0.504793 0.201321 -0.872552
C51   C     C_3   0.673676 0.301937 0.263186 0.013545
C52   C     C_3   0.740973 0.378208 0.206104 -0.390106
C53   C     C_3   0.723442 0.349276 0.107964 -0.915666
C54   C     C_3   0.764513 0.346662 0.755366 0.137551
C55   C     C_3   0.827890 0.298596 0.841354 -0.383835
C56   C     C_R   0.426413 0.670380 0.913299 0.475403
C57   C     C_3   0.803602 0.181244 0.847173 -0.969832
C58   C     C_3   0.888980 0.722800 0.065576 0.090890
C59   C     C_3   0.914121 0.781071 0.977523 -0.337601
C60   C     C_3   0.939629 0.896848 0.988971 -0.992975
C61   C     C_3   0.232250 0.812059 0.098766 0.043810
C62   C     C_3   0.219076 0.844462 0.191679 -0.364484
C63   C     C_3   0.239965 0.961363 0.197225 -0.943217
C64   C     C_3   0.470587 0.792677 0.802957 0.062546
C65   C     C_3   0.436128 0.890368 0.834681 -0.348439
C66   C     C_3   0.510376 0.985990 0.810912 -0.924735
C67   C     C_R   0.353882 0.682356 0.971211 -0.301955
C68   C     C_R   0.667647 0.619666 0.077409 -0.321844
C69   C     C_R   0.741157 0.609488 0.019571 0.490019
H1    H     H_    0.849968 0.531332 0.906526 0.198715
H2    H     H_    0.550218 0.114064 0.275836 0.125466
H3    H     H_    0.634106 0.953924 0.281592 0.132106
H4    H     H_    0.315291 0.216748 0.622704 0.168096
H5    H     H_    0.362190 0.907628 0.586189 0.154222
H6    H     H_    0.095089 0.986116 0.648835 0.156495
H7    H     H_    0.139548 0.099754 0.585967 0.133190
H8    H     H_    0.148237 0.067709 0.793139 0.222411
H9    H     H_    0.209855 0.181863 0.738985 0.220554
H10   H     H_    0.031067 0.216329 0.649831 0.270425
H11   H     H_    0.028058 0.207109 0.769600 0.273200
H12   H     H_    0.500654 0.840059 0.568936 0.126023
H13   H     H_    0.968057 0.100395 0.702375 0.259976
H14   H     H_    0.144798 0.707095 0.672506 0.173222
H15   H     H_    0.202469 0.450243 0.320423 0.189799
H16   H     H_    0.167098 0.566942 0.360315 0.114845
H17   H     H_    0.011942 0.376653 0.297478 0.246108
H18   H     H_    0.974321 0.498529 0.325777 0.229814
H19   H     H_    0.058934 0.589693 0.199916 0.278656
H20   H     H_    0.957295 0.487572 0.159932 0.299531
H21   H     H_    0.097517 0.469192 0.171006 0.266016
H22   H     H_    0.591343 0.287905 0.223716 0.177265
H23   H     H_    0.470391 0.235996 0.352743 0.173695
H24   H     H_    0.706499 0.226169 0.273664 0.128910
H25   H     H_    0.720174 0.457506 0.208911 0.229964
H26   H     H_    0.827347 0.376713 0.233853 0.217643
H27   H     H_    0.738730 0.267918 0.104521 0.254163
H28   H     H_    0.780087 0.399727 0.070385 0.277859
H29   H     H_    0.639559 0.359315 0.075076 0.265907
H30   H     H_    0.010961 0.308261 0.473798 0.217446
H31   H     H_    0.846177 0.242228 0.381467 0.161448
H32   H     H_    0.780442 0.596022 0.574474 0.204509
H33   H     H_    0.789527 0.316766 0.695922 0.176134
H34   H     H_    0.315381 0.667251 0.632050 0.177762
H35   H     H_    0.676508 0.321039 0.751372 0.112432
H36   H     H_    0.915703 0.319739 0.841636 0.232828
H37   H     H_    0.805926 0.328766 0.901918 0.221536
H38   H     H_    0.717062 0.159004 0.851845 0.268042
H39   H     H_    0.853273 0.148321 0.908329 0.270801
H40   H     H_    0.822690 0.148333 0.786772 0.269573
H41   H     H_    0.964891 0.724913 0.114929 0.171964
H42   H     H_    0.832797 0.763386 0.096409 0.124161
H43   H     H_    0.984146 0.750782 0.956895 0.238053
H44   H     H_    0.843926 0.768995 0.922704 0.215145
H45   H     H_    0.463536 0.553268 0.786387 0.229438
H46   H     H_    0.866727 0.929753 0.001064 0.266328
H47   H     H_    0.965406 0.935892 0.926595 0.268502
H48   H     H_    0.005263 0.912146 0.046821 0.264754
H49   H     H_    0.174391 0.849529 0.046204 0.173587
H50   H     H_    0.314204 0.841848 0.083452 0.126908
H51   H     H_    0.135961 0.817853 0.204690 0.214635
H52   H     H_    0.277088 0.808292 0.245166 0.223881
H53   H     H_    0.323646 0.989118 0.186396 0.265534
H54   H     H_    0.229935 0.982182 0.265192 0.269244
H55   H     H_    0.182011 0.000262 0.145607 0.257780
H56   H     H_    0.947342 0.677654 0.651732 0.144404
H57   H     H_    0.568320 0.538718 0.211632 0.176821
H58   H     H_    0.465590 0.801267 0.728406 0.153929
H59   H     H_    0.556817 0.785179 0.830820 0.139509
H60   H     H_    0.351900 0.899580 0.802463 0.267007
H61   H     H_    0.438982 0.883393 0.909094 0.202023
H62   H     H_    0.593536 0.980450 0.847712 0.252398
H63   H     H_    0.480571 0.055932 0.830712 0.266955
H64   H     H_    0.512524 0.993956 0.737243 0.271749
H65   H     H_    0.698183 0.630662 0.148000 0.143365
H66   H     H_    0.261891 0.616236 0.252541 0.154573
H67   H     H_    0.278376 0.712445 0.943073 0.195700
H68   H     H_    0.654906 0.778980 0.349908 0.150977
N1    N     N_R   0.239390 0.551900 0.544730 -0.148772
N2    N     N_R   0.759950 0.448600 0.455730 -0.170928
O1    O     O_R   0.374950 0.371210 0.521360 -0.572354
O2    O     O_3   0.152023 0.427693 0.442607 -0.653844
O3    O     O_3   0.661042 0.339754 0.346184 -0.623561
O4    O     O_3   0.788518 0.455501 0.749698 -0.639345
O5    O     O_3   0.850925 0.617916 0.051385 -0.669108
O6    O     O_3   0.208044 0.703801 0.093238 -0.663229
O7    O     O_3   0.400371 0.704090 0.823362 -0.670071
O8    O     O_R   0.542050 0.338030 0.492790 -0.574441
O9    O     O_R   0.368720 0.526070 0.390200 -0.623089
O10   O     O_R   0.535820 0.492890 0.361630 -0.569488
O11   O     O_R   0.457950 0.661970 0.507210 -0.613714
O12   O     O_R   0.625050 0.628790 0.478640 -0.647077
O13   O     O_R   0.464180 0.507110 0.638370 -0.611333
O14   O     O_R   0.631280 0.473930 0.609800 -0.592194
O15   O     O_3   0.259863 0.017525 0.669294 -0.664340
Zn1   Zn    Zn3+2 0.388420 0.522150 0.519080 0.951166
Zn2   Zn    Zn3+2 0.611580 0.477850 0.480920 0.961648

loop_
_geom_bond_atom_site_label_1
_geom_bond_atom_site_label_2
_ccdc_geom_bond_type
N1    Zn1   S    
C61   H50   S    
C41   C42   A    
C49   H18   S    
C19   H2    S    
C35   C36   A    
C47   H10   S    
C63   H55   S    
C69   O5    S    
C48   H15   S    
C4    O10   A    
C20   H23   S    
C12   C23   A    
C26   C27   A    
C29   C30   A    
C37   O2    S    
C55   H36   S    
C7    H45   S    
C54   H35   S    
C9    C16   S    
C59   H43   S    
C12   C43   A    
C3    C7    A    
C30   C31   A    
C10   H4    S    
C9    C22   A    
C27   C29   A    
C28   C40   S    
C4    O9    A    
C52   H26   S    
C44   H7    S    
C18   C19   A    
C47   H13   S    
C23   C67   A    
C35   H56   S    
C61   O6    S    
C11   O15   S    
C51   H22   S    
C46   C47   S    
C50   H21   S    
C57   H40   S    
C19   C20   A    
C45   C56   A    
C68   C69   A    
C64   H59   S    
C8    C22   A    
C7    C40   A    
O13   Zn1   S    
C52   H25   S    
O9    Zn1   S    
C2    C69   A    
C62   H51   S    
C50   H19   S    
C54   O4    S    
C59   C60   S    
C58   H41   S    
C13   C14   A    
C53   H27   S    
C14   C17   A    
C47   H11   S    
C43   H57   S    
C44   C46   S    
C65   H61   S    
C39   C42   A    
C66   H63   S    
C15   C20   A    
C27   H31   S    
C8    H3    S    
C29   H30   S    
C55   H37   S    
C58   H42   S    
C48   H16   S    
C26   N2    A    
C34   C68   A    
C46   H9    S    
C39   C43   A    
C10   C24   A    
C58   C59   S    
O12   Zn2   S    
C3    C45   A    
C8    C18   A    
C51   C52   S    
C36   H32   S    
C44   H6    S    
C38   H34   S    
C25   C38   A    
C66   H64   S    
C50   H20   S    
C65   H60   S    
C22   H68   S    
C4    C39   S    
C59   H44   S    
C64   H58   S    
C62   C63   S    
C17   C18   A    
C38   N1    A    
C60   H48   S    
C34   C45   A    
C32   C37   A    
O14   Zn2   S    
O8    Zn2   S    
C1    O1    A    
C51   H24   S    
C48   C49   S    
C57   H38   S    
C21   H12   S    
C28   O13   A    
C37   N1    A    
C55   C57   S    
C28   O14   A    
C49   C50   S    
C6    C40   A    
C60   H47   S    
C2    C5    A    
C12   C34   A    
C63   H53   S    
C52   C53   S    
C66   H62   S    
C51   O3    S    
C54   C55   S    
C15   C24   A    
C64   O7    S    
C61   H49   S    
C14   C15   A    
C49   H17   S    
C54   H33   S    
C5    H1    S    
C46   H8    S    
C63   H54   S    
C53   H29   S    
C56   C67   A    
C23   C41   A    
O11   Zn1   S    
C44   O15   S    
C64   C65   S    
C68   H65   S    
C67   H67   S    
C32   C33   A    
C30   C32   A    
C11   C13   A    
C9    C21   A    
C5    C6    A    
N2    Zn2   S    
O10   Zn2   S    
C33   C35   A    
C53   H28   S    
C48   O2    S    
C2    C3    A    
C16   O12   A    
C56   O7    S    
C61   C62   S    
C17   C21   A    
C1    O8    A    
C10   C11   A    
O1    Zn1   S    
C58   O5    S    
C57   H39   S    
C41   O6    S    
C13   H5    S    
C1    C24   S    
C65   C66   S    
C25   H14   S    
C31   C36   A    
C42   H66   S    
C60   H46   S    
C16   O11   A    
C6    O4    S    
C26   O3    S    
C31   N2    A    
C62   H52   S    
C25   C33   A    
