data_str_m4_o14_o22_f0_acs.sym.101
_audit_creation_date              2012-12-11T14:22:55-0500
_audit_creation_method            fapswitch 2.2
_symmetry_space_group_name_H-M    P1
_symmetry_Int_Tables_number       1
_space_group_crystal_system       triclinic
_cell_length_a                    11.125427
_cell_length_b                    10.916919
_cell_length_c                    18.826647
_cell_angle_alpha                 90.10739
_cell_angle_beta                  89.981676
_cell_angle_gamma                 59.844109
_cell_volume                      1977.12806514

loop_
_atom_site_label
_atom_site_type_symbol
_atom_type_description
_atom_site_fract_x
_atom_site_fract_y
_atom_site_fract_z
_atom_type_partial_charge
C1    C     C_R   0.242416 0.643214 0.611594 0.586010
C2    C     C_3   0.621746 0.595595 0.800268 -0.235941
C3    C     C_3   0.701777 0.675230 0.811103 -0.011750
C4    C     C_3   0.671903 0.650367 0.675132 0.045251
C5    C     C_3   0.827670 0.590978 0.692566 0.192144
C6    C     C_3   0.617284 0.568283 0.720390 -0.252750
C7    C     C_R   0.690457 0.162017 0.824513 0.011478
C8    C     C_R   0.806123 0.136479 0.781220 -0.049400
C9    C     C_R   0.794046 0.132143 0.706013 -0.043121
C10   C     C_R   0.548974 0.212891 0.720296 -0.159070
C11   C     C_R   0.562181 0.208180 0.792489 -0.161653
C12   C     C_R   0.654534 0.624261 0.599961 0.577505
C13   C     C_R   0.931951 0.117461 0.809366 -0.153600
C14   C     C_R   0.044127 0.085876 0.764711 -0.104985
C15   C     C_R   0.035626 0.065774 0.692174 0.474460
C16   C     C_R   0.913716 0.083336 0.663323 0.420512
C17   C     C_R   0.662322 0.177538 0.675922 0.020848
C18   C     C_R   0.194692 0.655005 0.838293 0.010325
C19   C     C_R   0.198221 0.541281 0.800207 -0.013438
C20   C     C_R   0.192527 0.546401 0.724731 -0.027692
C21   C     C_R   0.237283 0.741698 0.729605 -0.160138
C22   C     C_R   0.225909 0.746906 0.802672 -0.169829
C23   C     C_R   0.627342 0.228459 0.602748 0.596573
C24   C     C_R   0.208556 0.422218 0.835332 -0.135797
C25   C     C_R   0.205935 0.314473 0.797151 -0.036968
C26   C     C_R   0.184493 0.327900 0.724226 0.403801
C27   C     C_R   0.172679 0.444661 0.688644 -0.037777
C28   C     C_R   0.211262 0.650073 0.688660 0.023047
C29   C     C_R   0.729934 0.698069 0.181870 -0.004519
C30   C     C_R   0.800589 0.558727 0.211498 0.041181
C31   C     C_R   0.744580 0.535914 0.272379 0.029106
C32   C     C_R   0.626267 0.789155 0.297153 -0.140491
C33   C     C_R   0.649773 0.812998 0.226770 -0.168108
C34   C     C_R   0.286545 0.622272 0.392429 0.542397
C35   C     C_R   0.919898 0.439328 0.181272 -0.068558
C36   C     C_R   0.963294 0.302642 0.202536 -0.065921
C37   C     C_R   0.893330 0.281169 0.256296 -0.045069
C38   C     C_R   0.777487 0.395778 0.286684 -0.066842
C39   C     C_R   0.664253 0.651728 0.318663 0.009796
C40   C     C_R   0.662118 0.141993 0.180137 -0.040249
C41   C     C_R   0.530634 0.202490 0.211961 -0.026696
C42   C     C_R   0.524002 0.182346 0.284878 -0.090085
C43   C     C_R   0.771697 0.082878 0.297072 0.314362
C44   C     C_R   0.782426 0.074370 0.223337 -0.149811
C45   C     C_R   0.641351 0.621339 0.391492 0.521540
C46   C     C_R   0.407042 0.265975 0.172083 -0.127418
C47   C     C_R   0.286841 0.277885 0.200354 -0.104372
C48   C     C_R   0.283726 0.240076 0.270485 0.344316
C49   C     C_R   0.401902 0.189533 0.311864 -0.060874
C50   C     C_R   0.641245 0.152340 0.327693 0.022486
C51   C     C_R   0.177347 0.652145 0.175161 0.012750
C52   C     C_R   0.266261 0.701988 0.196240 0.030908
C53   C     C_R   0.281560 0.716770 0.269491 -0.033288
C54   C     C_R   0.169815 0.578252 0.294323 -0.098672
C55   C     C_R   0.127962 0.593924 0.224763 -0.164435
C56   C     C_R   0.617552 0.222586 0.397126 0.574756
C57   C     C_R   0.321757 0.757730 0.146562 0.405699
C58   C     C_R   0.352735 0.860140 0.168094 -0.076168
C59   C     C_R   0.342111 0.896003 0.239315 -0.176910
C60   C     C_R   0.318571 0.817987 0.290167 -0.097946
C61   C     C_R   0.246524 0.639351 0.317981 0.020560
C62   C     C_R   0.703211 0.102383 0.896207 0.545058
C63   C     C_R   0.724699 0.688163 0.887737 0.569296
C64   C     C_R   0.121952 0.702613 0.906984 0.571711
C65   C     C_R   0.677947 0.102391 0.105304 0.538343
C66   C     C_R   0.737828 0.717952 0.104931 0.565479
C67   C     C_3   0.617798 0.824307 0.775351 -0.226797
C68   C     C_R   0.098482 0.705333 0.110424 0.594512
C69   C     C_3   0.591857 0.809706 0.696036 0.252674
C70   C     C_3   0.845554 0.592113 0.773217 0.246831
Cr1   Cr    Cr6+3 0.392940 0.397950 0.502230 1.067861
Cr2   Cr    Cr6+3 0.398400 0.708500 0.501260 1.143326
Cr3   Cr    Cr6+3 0.708640 0.393530 0.496460 1.140586
Cr4   Cr    Cr6+3 0.937880 0.938320 0.007620 1.037303
Cr5   Cr    Cr6+3 0.625560 0.937220 0.994510 1.013213
Cr6   Cr    Cr6+3 0.938080 0.625010 0.001190 1.015564
H1    H     H_    0.676737 0.881518 0.780234 0.106485
H2    H     H_    0.892347 0.480018 0.673445 0.221541
H3    H     H_    0.446822 0.248647 0.699241 0.171266
H4    H     H_    0.139884 0.071509 0.786893 0.161189
H5    H     H_    0.236517 0.827112 0.831247 0.143572
H6    H     H_    0.219780 0.221311 0.824516 0.125607
H7    H     H_    0.570121 0.877851 0.332954 0.125118
H8    H     H_    0.934855 0.175739 0.275792 0.207564
H9    H     H_    0.403976 0.300127 0.117846 0.155051
H10   H     H_    0.397917 0.149581 0.363800 0.176930
H11   H     H_    0.132268 0.528017 0.330615 0.196812
H12   H     H_    0.050745 0.567476 0.210829 0.131930
H13   H     H_    0.382354 0.913701 0.129634 0.156371
H14   H     H_    0.362499 0.977803 0.255843 0.149163
H15   H     H_    0.514340 0.659929 0.821465 0.132881
H16   H     H_    0.509796 0.598665 0.704897 0.147324
O1    O     O_R   0.507340 0.255690 0.581430 -0.516711
O2    O     O_R   0.524510 0.695820 0.424050 -0.546566
O3    O     O_R   0.736370 0.504260 0.414810 -0.490300
O4    O     O_R   0.691220 0.277270 0.422180 -0.464673
O5    O     O_3   0.499990 0.499990 0.499980 -0.338257
O6    O     O_R   0.089570 0.825450 0.930590 -0.497067
O7    O     O_R   0.818700 0.054260 0.929860 -0.508550
O8    O     O_R   0.606310 0.077010 0.915520 -0.530015
O9    O     O_R   0.646730 0.806540 0.917560 -0.511544
O10   O     O_R   0.837290 0.593240 0.915240 -0.448777
O11   O     O_R   0.065320 0.635310 0.931580 -0.511892
O12   O     O_R   0.280360 0.527380 0.578910 -0.525890
O13   O     O_R   0.068470 0.828620 0.091850 -0.477847
O14   O     O_R   0.799150 0.057200 0.079350 -0.512091
O15   O     O_R   0.585220 0.080180 0.076770 -0.536197
O16   O     O_R   0.627170 0.809480 0.067050 -0.477894
O17   O     O_R   0.816200 0.596410 0.076500 -0.530336
O18   O     O_R   0.045770 0.638240 0.081070 -0.556123
O19   O     O_3   0.833840 0.833520 0.001110 -0.291200
O20   O     O_R   0.260600 0.739610 0.584580 -0.412287
O21   O     O_R   0.532370 0.695050 0.573830 -0.443823
O22   O     O_R   0.744850 0.503430 0.576380 -0.517471
O23   O     O_R   0.699080 0.276500 0.571950 -0.444304
O24   O     O_R   0.498860 0.256520 0.419860 -0.549513
O25   O     O_R   0.272490 0.528150 0.429140 -0.485911
O26   O     O_R   0.252110 0.740440 0.423010 -0.465517
H17   H     H_    0.682519 0.452469 0.710065 0.131681
F1    F     F_    0.914374 0.453217 0.797148 -0.663454
H18   H     H_    0.943582 0.133424 0.864932 0.176785
H19   H     H_    0.472057 0.231804 0.823774 0.143255
F2    F     F_    0.146436 0.026890 0.648875 -0.497784
F3    F     F_    0.916190 0.044676 0.594476 -0.555292
H20   H     H_    0.270654 0.808405 0.705321 0.256319
H21   H     H_    0.516184 0.889726 0.802666 0.184917
H22   H     H_    0.228329 0.406517 0.891769 0.137905
F4    F     F_    0.181925 0.224474 0.686536 -0.567012
H23   H     H_    0.148008 0.452252 0.632912 0.203080
H24   H     H_    0.985171 0.448325 0.142088 0.135807
H25   H     H_    0.603704 0.919908 0.207044 0.132564
H26   H     H_    0.053380 0.213449 0.178612 0.128018
F5    F     F_    0.450552 0.869369 0.684396 -0.596442
H27   H     H_    0.715179 0.375682 0.322085 0.143729
F6    F     F_    0.887184 0.021962 0.338494 -0.607646
H28   H     H_    0.885353 0.014263 0.200324 0.164285
H29   H     H_    0.198429 0.314457 0.166574 0.099104
F7    F     F_    0.167619 0.250506 0.299292 -0.650471
F8    F     F_    0.336391 0.720754 0.076789 -0.626606
H30   H     H_    0.628251 0.869570 0.663300 0.197026
H31   H     H_    0.322191 0.846604 0.344305 0.194706
H32   H     H_    0.909838 0.641023 0.785915 0.172104
F9    F     F_    0.875939 0.671583 0.659540 -0.683005
H33   H     H_    0.672423 0.493087 0.829391 0.181949

loop_
_geom_bond_atom_site_label_1
_geom_bond_atom_site_label_2
_ccdc_geom_bond_type
C44   H28   S    
C64   O11   A    
Cr1   O12   S    
Cr2   O20   S    
Cr5   O15   S    
C8    C13   A    
C2    H33   S    
C41   C42   A    
C65   O14   A    
C35   C36   A    
C67   H1    S    
C63   O9    A    
C7    C8    A    
Cr4   O6    S    
C7    C11   A    
Cr1   O5    S    
C26   C27   A    
C17   C23   S    
C15   F2    S    
C30   C35   A    
C36   C37   A    
C9    C16   A    
C36   H26   S    
C1    O20   A    
C30   C31   A    
C5    F9    S    
C10   C17   A    
C15   C16   A    
C29   C33   A    
C57   F8    S    
C18   C19   A    
C32   C39   A    
C55   H12   S    
C54   C55   A    
C53   C61   A    
C19   C20   A    
C34   O26   A    
Cr6   O17   S    
C1    C28   S    
C41   C46   A    
C37   H8    S    
C14   H4    S    
C4    C12   S    
C39   C45   S    
C46   H9    S    
Cr2   O2    S    
C33   H25   S    
C34   O25   A    
C64   O6    A    
C59   C60   A    
C21   C22   A    
C2    C6    S    
C63   O10   A    
C45   O2    A    
C4    C69   S    
C53   C60   A    
C12   O22   A    
Cr2   O5    S    
Cr6   O10   S    
C70   H32   S    
Cr1   O25   S    
C51   C52   A    
C22   H5    S    
C3    C70   S    
C24   C25   A    
C4    C6    S    
C52   C57   A    
C67   H21   S    
C70   F1    S    
Cr4   O19   S    
C8    C9    A    
C26   F4    S    
C20   C28   A    
C58   C59   A    
Cr2   O21   S    
C34   C61   S    
C50   C56   S    
Cr3   O22   S    
C23   O1    A    
C67   C69   S    
C59   H14   S    
C37   C38   A    
Cr3   O5    S    
C43   C44   A    
C7    C62   S    
C29   C30   A    
C60   H31   S    
Cr4   O14   S    
C13   H18   S    
C47   C48   A    
C35   H24   S    
C29   C66   S    
C47   H29   S    
C56   O24   A    
C68   O18   A    
C43   F6    S    
C1    O12   A    
C42   C50   A    
C62   O8    A    
C9    C17   A    
C48   C49   A    
C54   C61   A    
C21   C28   A    
C40   C65   S    
C25   H6    S    
C27   H23   S    
C11   H19   S    
C68   O13   A    
Cr3   O3    S    
C21   H20   S    
C45   O3    A    
C6    H17   S    
C52   C53   A    
C12   O21   A    
Cr5   O16   S    
C56   O4    A    
C32   H7    S    
C46   C47   A    
C40   C41   A    
C69   F5    S    
C18   C22   A    
C49   H10   S    
C3    C67   S    
C66   O16   A    
C4    C5    S    
C5    C70   S    
C10   H3    S    
C43   C50   A    
Cr4   O7    S    
Cr1   O1    S    
C20   C27   A    
C3    C63   S    
Cr6   O11   S    
Cr5   O19   S    
Cr3   O23   S    
C31   C38   A    
C48   F7    S    
C32   C33   A    
C19   C24   A    
C25   C26   A    
Cr4   O13   S    
C18   C64   S    
C57   C58   A    
C54   H11   S    
C69   H30   S    
Cr6   O19   S    
C6    H16   S    
Cr5   O8    S    
C24   H22   S    
C31   C39   A    
Cr1   O24   S    
C2    C3    S    
C51   C55   A    
C51   C68   S    
C38   H27   S    
C66   O17   A    
C16   F3    S    
C2    H15   S    
C58   H13   S    
C10   C11   A    
C42   C49   A    
C23   O23   A    
C62   O7    A    
C40   C44   A    
Cr6   O18   S    
Cr2   O26   S    
Cr5   O9    S    
C14   C15   A    
Cr3   O4    S    
C5    H2    S    
C13   C14   A    
C65   O15   A    
