data_str_m9_o13_o2_f0_sra.sym.78
_audit_creation_date              2013-03-05T15:46:32-0500
_audit_creation_method            fapswitch 2.2
_symmetry_space_group_name_H-M    P1
_symmetry_Int_Tables_number       1
_space_group_crystal_system       triclinic
_cell_length_a                    6.956079
_cell_length_b                    16.790342
_cell_length_c                    16.924843
_cell_angle_alpha                 100.249018
_cell_angle_beta                  91.490417
_cell_angle_gamma                 90.133791
_cell_volume                      1944.48802017

loop_
_atom_site_label
_atom_site_type_symbol
_atom_site_description
_atom_site_fract_x
_atom_site_fract_y
_atom_site_fract_z
_atom_type_partial_charge
O1    O     O_R   0.506180 0.438940 0.579430 -0.601187
O2    O     O_R   0.170520 0.406230 0.413590 -0.544717
O3    O     O_R   0.005180 0.561060 0.420570 -0.530390
C1    C     C_R   0.336993 0.385916 0.382200 0.988266
O4    O     O_R   0.176140 0.429310 0.578370 -0.594114
O5    O     O_R   0.010830 0.584300 0.586530 -0.600665
C2    C     C_R   0.346958 0.414151 0.605493 0.905329
O6    O     O_R   0.500520 0.415700 0.413470 -0.593834
O7    O     O_3   0.340830 0.550820 0.502480 -0.268478
V1    V     V_3+5 0.064040 0.490570 0.499540 1.223565
O8    O     O_R   0.681400 0.593770 0.586410 -0.595527
C3    C     C_R   0.852066 0.616791 0.614409 0.925008
O9    O     O_R   0.675790 0.570690 0.421630 -0.610705
C4    C     C_R   0.842217 0.586009 0.394371 1.004342
V2    V     V_3+5 0.564650 0.509430 0.500460 1.193822
O10   O     O_3   0.837730 0.449180 0.497520 -0.267778
C5    C     C_R   0.924239 0.862003 0.167665 -0.135796
C6    C     C_R   0.842841 0.635499 0.329456 -0.179129
C7    C     C_R   0.708166 0.669476 0.204776 -0.243408
C8    C     C_R   0.725214 0.614772 0.258688 0.238221
C9    C     C_R   0.958914 0.705544 0.338655 -0.156430
C10   C     C_R   0.949049 0.757573 0.281805 0.203170
C11   C     C_R   0.817897 0.740691 0.215756 0.154592
C12   C     C_R   0.803418 0.793759 0.159958 -0.256172
C13   C     C_R   0.057184 0.877415 0.232690 -0.160041
C14   C     C_R   0.067665 0.826439 0.289812 -0.073937
H1    H     H_    0.704021 0.780297 0.108847 0.128665
H2    H     H_    0.153001 0.929299 0.239363 0.129070
H3    H     H_    0.612420 0.655036 0.152611 0.140331
H4    H     H_    0.170540 0.840259 0.339587 0.154645
H5    H     H_    0.054023 0.720398 0.391043 0.134726
H6    H     H_    0.967038 0.626307 0.980045 0.120052
C15   C     C_R   0.858282 0.911763 0.720884 -0.345372
C16   C     C_R   0.845282 0.928400 0.642465 0.115802
C17   C     C_R   0.838697 0.863279 0.577096 0.384199
C18   C     C_R   0.837689 0.783642 0.591369 -0.342962
C19   C     C_R   0.855966 0.766382 0.669931 0.084061
C20   C     C_R   0.869297 0.831705 0.735936 0.112590
C21   C     C_R   0.867123 0.685372 0.683125 -0.262044
C22   C     C_R   0.896054 0.669893 0.762226 0.089452
C23   C     C_R   0.910376 0.735317 0.828358 0.110777
C24   C     C_R   0.897476 0.816186 0.815257 -0.276743
C25   C     C_R   0.910539 0.589777 0.777065 -0.141550
C26   C     C_R   0.935742 0.574621 0.854968 -0.107766
C27   C     C_R   0.948133 0.638463 0.919617 -0.127837
C28   C     C_R   0.935957 0.718024 0.906812 -0.153064
H7    H     H_    0.863984 0.962673 0.770113 0.138339
H8    H     H_    0.831752 0.735265 0.539683 0.139099
H9    H     H_    0.901081 0.537985 0.728844 0.113163
H10   H     H_    0.944587 0.512886 0.865225 0.118732
H11   H     H_    0.946000 0.765629 0.959067 0.094637
H12   H     H_    0.198162 0.466476 0.112588 0.148392
C29   C     C_R   0.410046 0.223831 0.408794 -0.155894
C30   C     C_R   0.454693 0.147318 0.424766 -0.113491
C31   C     C_R   0.487872 0.083684 0.362048 -0.071796
C32   C     C_R   0.476139 0.096061 0.282790 -0.195316
C33   C     C_R   0.430409 0.173001 0.264664 0.117523
C34   C     C_R   0.396219 0.238411 0.328968 0.135899
C35   C     C_R   0.418639 0.185189 0.184043 -0.279866
C36   C     C_R   0.371152 0.262559 0.167594 0.114046
C37   C     C_R   0.322612 0.327102 0.231067 -0.057647
C38   C     C_R   0.344931 0.316087 0.313019 -0.288957
C39   C     C_R   0.368516 0.276111 0.087408 -0.140997
C40   C     C_R   0.312580 0.349881 0.068729 -0.204360
C41   C     C_R   0.251735 0.410862 0.128778 -0.195863
C42   C     C_R   0.252741 0.400193 0.208978 0.340153
H13   H     H_    0.383625 0.270971 0.459743 0.088667
H14   H     H_    0.462449 0.137375 0.486210 0.123925
H15   H     H_    0.522696 0.024377 0.374861 0.151978
H16   H     H_    0.503764 0.044794 0.235970 0.111658
H17   H     H_    0.410264 0.229739 0.038085 0.099739
H18   H     H_    0.311047 0.358971 0.006951 0.142585
C43   C     C_R   0.400803 0.133468 0.828907 -0.194368
C44   C     C_R   0.364941 0.365364 0.670525 -0.203029
C45   C     C_R   0.492570 0.345636 0.801520 -0.231576
C46   C     C_R   0.455385 0.397533 0.745840 0.190642
C47   C     C_R   0.303043 0.284032 0.655425 -0.283726
C48   C     C_R   0.336206 0.233513 0.712530 0.174163
C49   C     C_R   0.433640 0.264336 0.785655 0.171379
C50   C     C_R   0.467398 0.213984 0.842799 -0.288044
C51   C     C_R   0.306001 0.101772 0.754582 0.179630
C52   C     C_R   0.274484 0.152438 0.697437 -0.259477
H19   H     H_    0.539646 0.238282 0.899539 0.127951
H20   H     H_    0.568021 0.368497 0.857731 0.131670
H21   H     H_    0.198532 0.128768 0.641445 0.148727
H22   H     H_    0.232805 0.259614 0.598270 0.131062
O11   O     O_R   0.265840 0.084300 0.086750 -0.582594
O12   O     O_R   0.589750 0.070740 0.921690 -0.587642
O13   O     O_R   0.755020 0.915730 0.913400 -0.588571
C53   C     C_R   0.418908 0.085180 0.894147 0.926214
O14   O     O_R   0.595830 0.093740 0.086480 -0.589001
O15   O     O_R   0.761150 0.938890 0.079360 -0.590522
C54   C     C_R   0.428864 0.115116 0.116352 0.936857
O16   O     O_R   0.259710 0.061140 0.920790 -0.602551
O17   O     O_3   0.425260 0.949200 0.997610 -0.273577
V3    V     V_3+5 0.702060 0.009430 0.000450 1.164212
O18   O     O_R   0.090530 0.929220 0.078150 -0.596962
C55   C     C_R   0.924201 0.913684 0.105121 0.934062
O19   O     O_R   0.084440 0.906220 0.913360 -0.596763
C56   C     C_R   0.913651 0.884337 0.884373 0.938568
V4    V     V_3+5 0.201450 0.990520 0.999290 1.159513
O20   O     O_3   0.928380 0.050800 0.002390 -0.268422
N1    N     N_R   0.840497 0.876683 0.495799 0.224794
O21   O     O_R   0.965549 0.925984 0.474389 -0.424389
O22   O     O_R   0.723234 0.836436 0.441959 -0.441033
N2    N     N_R   0.154138 0.459031 0.263918 0.206260
O23   O     O_R   0.983610 0.440371 0.284845 -0.442619
O24   O     O_R   0.204040 0.534843 0.271978 -0.446324
N3    N     N_2   0.236621 0.020147 0.737304 -0.127191
H23   H     H_    0.222598 0.990949 0.785312 0.179296
C57   C     C_3   0.321696 0.968537 0.669977 -0.896831
H24   H     H_    0.255873 0.907209 0.661501 0.258360
H25   H     H_    0.477313 0.962566 0.682295 0.261303
H26   H     H_    0.296432 0.992814 0.613810 0.272231
N4    N     N_2   0.510224 0.481241 0.765601 -0.112306
H27   H     H_    0.484700 0.515749 0.721926 0.169852
C58   C     C_3   0.462728 0.523751 0.844862 -0.919262
H28   H     H_    0.487207 0.589777 0.848728 0.261718
H29   H     H_    0.556052 0.503744 0.891619 0.245829
H30   H     H_    0.309593 0.513466 0.857000 0.251206
N5    N     N_2   0.633662 0.537310 0.237904 -0.085992
H31   H     H_    0.628505 0.502788 0.282290 0.204009
C59   C     C_3   0.686869 0.490690 0.161065 -0.817796
H32   H     H_    0.652251 0.425728 0.158651 0.251719
H33   H     H_    0.843788 0.495743 0.152025 0.259584
H34   H     H_    0.606254 0.512163 0.111520 0.226402
N6    N     N_2   0.851436 0.010805 0.631017 -0.088400
H35   H     H_    0.890518 0.053148 0.680801 0.183923
C60   C     C_3   0.704550 0.039348 0.580650 -0.835013
H36   H     H_    0.616375 0.086267 0.617453 0.228325
H37   H     H_    0.607005 0.990107 0.550764 0.260401
H38   H     H_    0.774635 0.067155 0.533943 0.268733

loop_
_geom_bond_atom_site_label_1
_geom_bond_atom_site_label_2
_geom_bond_distance
_ccdc_geom_bond_type
C34   C38   1.422518 A    
C31   C32   1.393865 A    
O12   V3    1.970992 S    
V4    O20   2.151859 S    
V3    O20   1.716415 S    
C6    C9    1.408258 A    
C23   C24   1.416871 A    
C4    C6    1.490866 S    
O2    C1    1.307256 A    
O17   V3    2.168207 S    
C12   H1    1.084446 S    
C1    O6    1.302284 A    
C51   C52   1.410613 A    
O15   C55   1.302996 A    
C59   H32   1.109857 S    
C27   C28   1.393283 A    
C13   H2    1.083620 S    
C9    H5    1.084479 S    
C44   C46   1.422711 A    
C36   C39   1.415114 A    
C18   C19   1.413009 A    
C43   C53   1.484667 S    
C20   C24   1.421140 A    
C17   N1    1.433564 S    
C58   H29   1.108782 S    
O5    C3    1.295457 A    
C45   H20   1.082133 S    
C59   H33   1.111273 S    
C30   H14   1.082184 S    
N2    O23   1.300120 A    
V2    O10   2.151785 S    
O18   C55   1.297493 A    
O15   V3    1.972815 S    
C46   N4    1.433994 S    
C32   C33   1.414933 A    
C16   C17   1.410076 A    
H6    C27   1.082747 S    
O14   V3    1.999348 S    
O11   V4    2.000975 S    
O8    V2    1.995273 S    
C37   C42   1.427812 A    
C22   C25   1.415010 A    
C17   C18   1.400480 A    
O16   V4    1.980341 S    
C16   N6    1.431545 S    
N4    C58   1.449688 S    
C44   C47   1.408154 A    
C23   C28   1.415709 A    
O1    V2    1.985333 S    
C5    C55   1.483358 S    
C60   H38   1.109458 S    
C35   C36   1.414265 A    
O9    C4    1.299176 A    
C42   N2    1.421437 S    
C50   H19   1.084311 S    
C43   C51   1.420380 A    
C53   O16   1.296626 A    
C2    C44   1.487357 S    
C5    C12   1.404604 A    
O13   C56   1.294431 A    
C57   H25   1.105215 S    
C58   H30   1.108998 S    
C21   C22   1.417887 A    
O4    C2    1.304607 A    
C48   C49   1.409148 A    
C25   H9    1.082130 S    
C59   H34   1.109795 S    
C13   C14   1.401296 A    
C47   C48   1.409919 A    
C28   H11   1.082087 S    
C3    C21   1.485283 S    
C49   C50   1.409026 A    
C36   C37   1.431354 A    
C7    C11   1.398644 A    
C45   C46   1.412395 A    
N6    C60   1.450059 S    
C19   C20   1.420430 A    
C24   C56   1.485486 S    
O14   C54   1.304328 A    
C48   C52   1.403730 A    
O19   C56   1.300225 A    
C11   C12   1.410968 A    
C15   C16   1.404826 A    
C8    N5    1.429191 S    
N1    O22   1.300765 A    
N5    H31   1.028527 S    
C31   H15   1.082844 S    
O3    C4    1.303560 A    
C22   C23   1.423223 A    
O19   V4    1.995385 S    
C39   H17   1.081569 S    
C47   H22   1.084384 S    
C14   H4    1.083491 S    
O6    V2    1.995343 S    
C32   H16   1.082481 S    
O9    V2    1.993486 S    
C25   C26   1.393378 A    
C15   H7    1.082190 S    
N6    H35   1.031179 S    
O2    V1    1.999490 S    
C26   C27   1.389592 A    
C60   H36   1.110096 S    
O7    V1    2.168158 S    
C26   H10   1.082652 S    
C30   C31   1.389922 A    
C57   H24   1.110114 S    
O1    C2    1.297345 A    
O12   C53   1.304262 A    
O5    V1    1.996972 S    
C29   C34   1.416168 A    
C29   C30   1.393204 A    
C52   H21   1.083547 S    
C51   N3    1.429571 S    
C15   C20   1.413859 A    
C1    C38   1.504587 S    
C5    C13   1.406399 A    
C40   C41   1.383652 A    
C7    C8    1.408333 A    
N3    C57   1.444187 S    
O7    V2    1.705128 S    
O4    V1    1.970798 S    
C19   C21   1.419043 A    
O3    V1    1.972693 S    
V1    O10   1.716382 S    
C58   H28   1.111309 S    
C33   C34   1.427077 A    
N2    O24   1.301185 A    
O13   V3    1.996897 S    
O11   C54   1.296211 A    
C43   C50   1.405632 A    
C18   H8    1.082505 S    
C57   H26   1.109167 S    
C6    C8    1.422857 A    
C40   H18   1.082973 S    
C37   C38   1.436091 A    
C29   H13   1.081601 S    
N5    C59   1.450897 S    
C33   C35   1.415663 A    
C39   C40   1.385902 A    
C41   C42   1.400230 A    
C10   C14   1.403611 A    
N3    H23   1.027476 S    
N1    O21   1.301142 A    
C10   C11   1.412539 A    
C35   C54   1.492240 S    
N4    H27   1.029403 S    
C9    C10   1.410530 A    
C45   C49   1.401699 A    
O18   V4    1.993686 S    
H12   C41   1.083185 S    
O17   V4    1.704762 S    
O8    C3    1.298746 A    
C60   H37   1.109284 S    
C7    H3    1.083663 S    
