data_str_m9_o11_o18_f0_sra.sym.98
_audit_creation_date              2012-12-11T14:21:23-0500
_audit_creation_method            fapswitch 2.2
_symmetry_space_group_name_H-M    P1
_symmetry_Int_Tables_number       1
_space_group_crystal_system       triclinic
_cell_length_a                    21.971856
_cell_length_b                    7.195157
_cell_length_c                    14.872883
_cell_angle_alpha                 90.049327
_cell_angle_beta                  106.288221
_cell_angle_gamma                 89.922977
_cell_volume                      2256.8930085

loop_
_atom_site_label
_atom_site_type_symbol
_atom_type_description
_atom_site_fract_x
_atom_site_fract_y
_atom_site_fract_z
_atom_type_partial_charge
O1    O     O_R   0.584770 0.505770 0.002090 -0.534981
O2    O     O_R   0.415230 0.005770 0.997910 -0.532941
O3    O     O_R   0.467060 0.173340 0.861950 -0.535340
O4    O     O_R   0.532940 0.673340 0.138050 -0.535169
C1    C     C_R   0.455016 0.344282 0.826136 0.687538
C2    C     C_R   0.544975 0.844367 0.173931 0.685607
O5    O     O_R   0.587510 0.175890 0.993210 -0.544708
O6    O     O_R   0.412490 0.675890 0.006790 -0.544530
O7    O     O_R   0.536540 0.008150 0.130100 -0.537678
O8    O     O_R   0.463460 0.508150 0.869900 -0.538330
C3    C     C_R   0.613291 0.344973 0.998734 0.758335
C4    C     C_R   0.387048 0.845250 0.002085 0.757766
O9    O     O_3   0.483140 0.340040 0.044760 -0.376296
O10   O     O_3   0.516860 0.840040 0.955240 -0.378136
V1    V     V_3+5 0.503130 0.064190 0.991700 1.480460
V2    V     V_3+5 0.496870 0.564190 0.008300 1.480799
C5    C     C_2   0.212348 0.719729 0.985749 0.312759
C6    C     C_2   0.790812 0.226164 0.025472 0.338232
C7    C     C_2   0.180502 0.879466 0.995119 -0.363039
C8    C     C_2   0.818763 0.380426 0.001068 -0.378324
H1    H     H_    0.204509 0.012041 0.001619 0.121866
H2    H     H_    0.790215 0.500503 0.971890 0.108423
C9    C     C_2   0.280669 0.715531 0.987887 -0.153217
C10   C     C_2   0.719838 0.214091 0.007181 -0.174560
C11   C     C_2   0.320005 0.862039 0.002095 -0.333262
C12   C     C_2   0.681794 0.361535 0.005316 -0.327821
H3    H     H_    0.299447 0.580040 0.977156 0.170863
H4    H     H_    0.698297 0.077502 0.000353 0.155644
H5    H     H_    0.303289 0.000228 0.011619 0.151360
H6    H     H_    0.701838 0.500284 0.015264 0.151889
C13   C     C_R   0.925051 0.885593 0.724809 -0.094020
C14   C     C_R   0.074445 0.385698 0.275303 -0.089275
C15   C     C_R   0.574658 0.853520 0.275106 -0.067697
C16   C     C_R   0.424824 0.352665 0.725188 -0.065835
C17   C     C_R   0.936755 0.864244 0.568400 0.002333
C18   C     C_R   0.062392 0.370544 0.431728 0.001098
C19   C     C_R   0.963100 0.859619 0.665088 -0.235339
C20   C     C_R   0.036149 0.364014 0.334999 -0.233617
C21   C     C_R   0.858914 0.908039 0.688564 0.211146
C22   C     C_R   0.140684 0.403990 0.311640 0.215437
C23   C     C_R   0.829910 0.881887 0.590663 0.046928
C24   C     C_R   0.169299 0.381169 0.409757 0.045610
C25   C     C_R   0.870218 0.878585 0.530437 0.042896
C26   C     C_R   0.128903 0.384566 0.469740 0.043678
C27   C     C_R   0.762601 0.864868 0.549892 0.059293
C28   C     C_R   0.236412 0.361274 0.450880 0.059859
C29   C     C_R   0.736637 0.872809 0.450694 0.046478
C30   C     C_R   0.262455 0.376549 0.549825 0.046426
C31   C     C_R   0.778245 0.907306 0.395830 -0.160200
C32   C     C_R   0.220888 0.420343 0.603708 -0.163559
C33   C     C_R   0.843376 0.898442 0.433780 -0.163591
C34   C     C_R   0.155706 0.411374 0.565953 -0.164360
C35   C     C_R   0.720627 0.832604 0.604615 -0.194619
C36   C     C_R   0.277928 0.318698 0.396711 -0.191352
C37   C     C_R   0.655248 0.847885 0.567025 -0.068480
C38   C     C_R   0.343378 0.329400 0.433848 -0.068522
C39   C     C_R   0.629121 0.867562 0.469712 0.076366
C40   C     C_R   0.369839 0.355529 0.530699 0.076259
C41   C     C_R   0.669489 0.856557 0.409892 0.033925
C42   C     C_R   0.329538 0.356976 0.590933 0.033257
C43   C     C_R   0.563243 0.889878 0.430596 -0.145126
C44   C     C_R   0.435983 0.371524 0.569019 -0.144978
C45   C     C_R   0.536904 0.891338 0.334124 -0.154140
C46   C     C_R   0.462728 0.377683 0.665260 -0.153471
C47   C     C_R   0.640368 0.825385 0.312471 -0.094679
C48   C     C_R   0.358654 0.332926 0.688984 -0.095594
H7    H     H_    0.872711 0.914108 0.386660 0.135471
H8    H     H_    0.126314 0.433543 0.612544 0.132079
H9    H     H_    0.486293 0.912286 0.305522 0.132788
H10   H     H_    0.513656 0.392123 0.693133 0.126335
H11   H     H_    0.014003 0.844684 0.694225 0.117685
H12   H     H_    0.985212 0.350730 0.305785 0.119002
H13   H     H_    0.761496 0.944741 0.322864 0.135087
H14   H     H_    0.237608 0.465113 0.675573 0.135836
H15   H     H_    0.737565 0.792857 0.677252 0.170101
H16   H     H_    0.260455 0.273804 0.324867 0.169522
H17   H     H_    0.531652 0.907198 0.474295 0.136169
H18   H     H_    0.467567 0.379077 0.524834 0.135074
O11   O     O_R   0.036450 0.233070 0.130130 -0.544138
O12   O     O_R   0.963550 0.733070 0.869870 -0.542897
O13   O     O_R   0.912470 0.560570 0.006790 -0.539962
O14   O     O_R   0.087530 0.060570 0.993210 -0.546407
C49   C     C_R   0.887093 0.391142 0.003920 0.732897
C50   C     C_R   0.112951 0.890439 0.996326 0.728437
O15   O     O_R   0.032920 0.562940 0.138050 -0.536391
O16   O     O_R   0.967080 0.062940 0.861950 -0.534740
O17   O     O_R   0.084790 0.730500 0.002090 -0.534600
O18   O     O_R   0.915210 0.230500 0.997910 -0.518711
C51   C     C_R   0.044614 0.394361 0.174401 0.692090
C52   C     C_R   0.955147 0.894359 0.825642 0.702735
O19   O     O_3   0.016820 0.396170 0.955260 -0.382293
O20   O     O_3   0.983180 0.896170 0.044740 -0.369237
V3    V     V_3+5 0.996880 0.672090 0.008300 1.416738
V4    V     V_3+5 0.003120 0.172090 0.991700 1.415478
N1    N     N_2   0.182206 0.542444 0.972456 -0.518551
H19   H     H_    0.161246 0.498934 0.022588 0.269571
C53   C     C_3   0.149334 0.495337 0.876584 -0.452003
H20   H     H_    0.131868 0.350054 0.873357 0.193165
H21   H     H_    0.182095 0.506012 0.831862 0.188360
H22   H     H_    0.108259 0.589585 0.849021 0.184720
N2    N     N_2   0.830111 0.073510 0.069914 -0.488902
H23   H     H_    0.869123 0.112141 0.123557 0.253547
C54   C     C_3   0.801382 0.901935 0.088141 -0.516669
H24   H     H_    0.771681 0.841264 0.021634 0.190268
H25   H     H_    0.772678 0.927024 0.137686 0.201534
H26   H     H_    0.839106 0.799573 0.120141 0.201814
N3    N     N_2   0.823488 0.976716 0.748723 -0.546874
H27   H     H_    0.837935 0.930933 0.817115 0.256395
C55   C     C_3   0.810742 0.174260 0.741032 -0.494017
H28   H     H_    0.780012 0.212867 0.786020 0.192258
H29   H     H_    0.785666 0.212178 0.667560 0.206179
H30   H     H_    0.855760 0.253766 0.764424 0.199643
N4    N     N_2   0.176834 0.465328 0.251133 -0.546109
H31   H     H_    0.162414 0.415330 0.183525 0.239955
C56   C     C_3   0.190598 0.662239 0.256056 -0.507642
H32   H     H_    0.221803 0.694866 0.210979 0.191875
H33   H     H_    0.215566 0.703559 0.329076 0.209512
H34   H     H_    0.146039 0.743654 0.231042 0.199801
C57   C     C_1   0.673987 0.736083 0.252947 0.274241
N5    N     N_1   0.700408 0.663660 0.205303 -0.383223
C58   C     C_1   0.324180 0.259955 0.751446 0.270994
N6    N     N_1   0.297092 0.201088 0.801613 -0.367460
C59   C     C_1   0.615915 0.832384 0.630139 0.283493
N7    N     N_1   0.584496 0.819928 0.680634 -0.362875
C60   C     C_1   0.382339 0.302389 0.370886 0.286370
N8    N     N_1   0.413446 0.280782 0.320503 -0.365701
C61   C     C_1   0.979361 0.852560 0.509987 0.316419
N9    N     N_1   0.013493 0.843472 0.463337 -0.363648
C62   C     C_1   0.019803 0.360061 0.490183 0.318044
N10   N     N_1   0.985695 0.351657 0.536877 -0.364379

loop_
_geom_bond_atom_site_label_1
_geom_bond_atom_site_label_2
_ccdc_geom_bond_type
C40   C44   A    
N2    H23   S    
O14   V4    S    
N3    C55   S    
N1    H19   S    
O1    C3    A    
C50   O17   A    
O2    C4    A    
C16   C48   A    
C2    O7    A    
C53   H20   S    
C15   C47   A    
C59   N7    T    
C29   C31   A    
O5    C3    A    
C5    C9    S    
C6    C10   S    
C7    H1    S    
C10   C12   D    
C62   N10   T    
C32   H14   S    
C39   C41   A    
C40   C42   A    
C56   H32   S    
C24   C28   A    
C27   C29   A    
C13   C52   S    
C43   C45   A    
C44   C46   A    
O16   V4    S    
C53   H21   S    
O15   V3    S    
C22   N4    S    
C43   H17   S    
C56   H33   S    
C32   C34   A    
N3    H27   S    
C5    N1    S    
C14   C20   A    
C17   C25   A    
C34   H8    S    
O6    C4    A    
C26   C34   A    
C30   C32   A    
C49   O18   A    
C42   C48   A    
N2    C54   S    
C23   C25   A    
C35   H15   S    
C24   C26   A    
O13   C49   A    
C30   C42   A    
C20   H12   S    
C35   C37   A    
C11   H5    S    
C36   C38   A    
C45   H9    S    
O11   V4    S    
C21   C23   A    
O16   C52   A    
C55   H30   S    
O15   C51   A    
C3    C12   S    
C31   C33   A    
C27   C35   A    
C13   C19   A    
C6    N2    S    
O4    V2    S    
C21   N3    S    
C46   H10   S    
C37   C39   A    
O13   V3    S    
C14   C51   S    
C15   C45   A    
C56   H34   S    
C1    C16   S    
C28   C36   A    
C16   C46   A    
C47   C57   S    
C48   C58   S    
C54   H25   S    
O1    V2    S    
C33   H7    S    
C38   C60   S    
C17   C61   S    
O2    V1    S    
C58   N6    T    
C36   H16   S    
O4    C2    A    
C8    H2    S    
C12   H6    S    
C9    H3    S    
C19   H11   S    
C60   N8    T    
C31   H13   S    
C18   C26   A    
C61   N9    T    
C37   C59   S    
C53   H22   S    
O3    V1    S    
N4    H31   S    
C17   C19   A    
C44   H18   S    
C10   H4    S    
C22   C24   A    
O3    C1    A    
C8    C49   S    
C57   N5    T    
N1    C53   S    
C39   C43   A    
O14   C50   A    
C2    C15   S    
C4    C11   S    
C55   H29   S    
O7    V1    S    
C1    O8    A    
O8    V2    S    
C55   H28   S    
C41   C47   A    
O19   V4    S    
C25   C33   A    
O17   V3    S    
O5    V1    S    
O20   V3    S    
C5    C7    D    
C38   C40   A    
C54   H26   S    
C6    C8    D    
C14   C22   A    
O12   C52   A    
O11   C51   A    
C18   C20   A    
C29   C41   A    
C28   C30   A    
C9    C11   D    
O6    V2    S    
O9    V2    S    
C54   H24   S    
C13   C21   A    
O18   V4    S    
C23   C27   A    
O10   V1    S    
O12   V3    S    
C18   C62   S    
C7    C50   S    
N4    C56   S    
