data_str_m2_o1_o11_f0_pcu.sym.182
_audit_creation_date              2012-12-10T17:55:29-0500
_audit_creation_method            fapswitch 2.2
_symmetry_space_group_name_H-M    P1
_symmetry_Int_Tables_number       1
_space_group_crystal_system       monoclinic
_cell_length_a                    10.841771
_cell_length_b                    9.801856
_cell_length_c                    10.924457
_cell_angle_alpha                 90.0
_cell_angle_beta                  98.078881
_cell_angle_gamma                 90.0
_cell_volume                      1149.41466177

loop_
_atom_site_label
_atom_site_type_symbol
_atom_type_description
_atom_site_fract_x
_atom_site_fract_y
_atom_site_fract_z
_atom_type_partial_charge
C1    C     C_R   0.263088 0.499663 0.501718 0.753617
C2    C     C_R   0.736912 0.499663 0.498282 0.753617
C3    C     C_R   0.498545 0.500440 0.265844 0.827224
C4    C     C_R   0.501454 0.500440 0.734156 0.827224
C5    C     C_2   0.488799 0.394280 0.932827 -0.173173
C6    C     C_2   0.511201 0.394280 0.067173 -0.173173
C7    C     C_2   0.512299 0.504051 0.867759 -0.308279
C8    C     C_2   0.487701 0.504051 0.132241 -0.308279
C9    C     C_R   0.064182 0.374288 0.501773 -0.186496
C10   C     C_R   0.935818 0.374288 0.498227 -0.186496
C11   C     C_R   0.870952 0.498271 0.496196 -0.012612
C12   C     C_R   0.129048 0.498271 0.503804 -0.012612
C13   C     C_R   0.935807 0.621274 0.495123 -0.187757
C14   C     C_R   0.064193 0.621274 0.504877 -0.187756
C15   C     C_R   0.431598 0.072331 0.404352 0.149966
C16   C     C_R   0.568402 0.072331 0.595648 0.149966
C17   C     C_R   0.421940 0.924913 0.412247 0.143904
C18   C     C_R   0.578060 0.924913 0.587753 0.143905
Cu1   Cu    Cu3+1 0.500000 0.640660 0.500000 0.903344
Cu2   Cu    Cu3+1 0.500000 0.359340 0.500000 0.912877
H1    H     H_    0.455227 0.300503 0.888235 0.154500
H2    H     H_    0.544772 0.300503 0.111765 0.154501
H3    H     H_    0.545410 0.598225 0.913485 0.147417
H4    H     H_    0.454590 0.598225 0.086515 0.147417
H5    H     H_    0.112108 0.277353 0.503687 0.142296
H6    H     H_    0.887891 0.277353 0.496313 0.142296
H7    H     H_    0.887721 0.717634 0.488046 0.163549
H8    H     H_    0.112279 0.717634 0.511954 0.163549
N1    N     N_R   0.500000 0.852070 0.500000 -0.214388
N2    N     N_R   0.500000 0.147940 0.500000 -0.195207
O1    O     O_R   0.319640 0.618740 0.499990 -0.594309
O2    O     O_R   0.680360 0.618740 0.500010 -0.594308
O3    O     O_R   0.319620 0.381170 0.499990 -0.593570
O4    O     O_R   0.680380 0.381170 0.500010 -0.593570
O5    O     O_R   0.500000 0.618750 0.321940 -0.604270
O6    O     O_R   0.500000 0.618750 0.678060 -0.604270
O7    O     O_R   0.499970 0.381180 0.321940 -0.584214
O8    O     O_R   0.500030 0.381180 0.678060 -0.584215
C19   C     C_3   0.382847 0.136373 0.278067 -0.326380
C20   C     C_3   0.266270 0.229320 0.269584 -0.280707
C21   C     C_3   0.193779 0.233380 0.138685 -0.932063
H9    H     H_    0.254104 0.273577 0.072769 0.269525
H10   H     H_    0.159974 0.130601 0.107456 0.256286
H11   H     H_    0.111853 0.301750 0.137042 0.253572
H12   H     H_    0.203849 0.195600 0.335693 0.196311
H13   H     H_    0.290575 0.336066 0.290588 0.251097
H14   H     H_    0.461257 0.180088 0.239633 0.188789
H15   H     H_    0.361209 0.059375 0.205498 0.161161
C22   C     C_3   0.617153 0.136373 0.721933 -0.326380
C23   C     C_3   0.733730 0.229319 0.730416 -0.280707
C24   C     C_3   0.806221 0.233380 0.861315 -0.932067
H16   H     H_    0.745897 0.273580 0.927230 0.269526
H17   H     H_    0.840024 0.130601 0.892545 0.256286
H18   H     H_    0.888148 0.301747 0.862958 0.253573
H19   H     H_    0.796150 0.195599 0.664307 0.196311
H20   H     H_    0.709425 0.336066 0.709412 0.251097
H21   H     H_    0.538742 0.180088 0.760367 0.188790
H22   H     H_    0.638791 0.059375 0.794502 0.161160
C25   C     C_3   0.329993 0.847033 0.317115 -0.350540
C26   C     C_3   0.192556 0.886497 0.315489 -0.416309
C27   C     C_3   0.105231 0.785468 0.239721 -0.858227
H23   H     H_    0.119062 0.790040 0.140946 0.251966
H24   H     H_    0.122905 0.679503 0.273312 0.258394
H25   H     H_    0.006960 0.812203 0.246857 0.248297
H26   H     H_    0.170398 0.893807 0.411163 0.216608
H27   H     H_    0.172701 0.985913 0.271989 0.242870
H28   H     H_    0.357720 0.850678 0.223279 0.152514
H29   H     H_    0.332260 0.739690 0.335089 0.275730
C28   C     C_3   0.670007 0.847033 0.682885 -0.350540
C29   C     C_3   0.807443 0.886497 0.684512 -0.416310
C30   C     C_3   0.894769 0.785467 0.760280 -0.858227
H30   H     H_    0.880937 0.790040 0.859055 0.251966
H31   H     H_    0.877095 0.679502 0.726688 0.258394
H32   H     H_    0.993040 0.812203 0.753144 0.248297
H33   H     H_    0.829602 0.893808 0.588838 0.216608
H34   H     H_    0.827299 0.985912 0.728012 0.242870
H35   H     H_    0.642279 0.850678 0.776720 0.152514
H36   H     H_    0.667740 0.739690 0.664911 0.275730

loop_
_geom_bond_atom_site_label_1
_geom_bond_atom_site_label_2
_ccdc_geom_bond_type
C4    O6    A    
C17   N1    A    
C21   H9    S    
C28   H35   S    
Cu1   Cu2   S    
Cu1   O1    S    
C9    H5    S    
Cu2   N2    S    
C20   H13   S    
Cu1   O6    S    
C5    C6    S    
C2    C11   S    
C16   N2    A    
C6    H2    S    
C1    O1    A    
C22   H21   S    
C2    O2    A    
C27   H24   S    
C25   H28   S    
C29   C30   S    
C9    C10   A    
Cu2   O4    S    
C10   H6    S    
C18   C28   S    
C26   H27   S    
C25   C26   S    
C13   C14   A    
C21   H10   S    
C28   H36   S    
C28   C29   S    
C1    C12   S    
C4    C7    S    
Cu1   O2    S    
C5    C7    D    
C20   H12   S    
C1    O3    A    
C24   H16   S    
C16   C22   S    
C3    C8    S    
C19   C20   S    
C30   H31   S    
C6    C8    D    
C23   H20   S    
C22   H22   S    
C26   C27   S    
C24   H17   S    
C27   H25   S    
C25   H29   S    
Cu2   O8    S    
C3    O5    A    
C23   C24   S    
C18   N1    A    
C15   C19   S    
C17   C25   S    
Cu2   O3    S    
C20   C21   S    
C12   C14   A    
C26   H26   S    
C29   H34   S    
C21   H11   S    
Cu1   N1    S    
C15   N2    A    
C19   H14   S    
C15   C17   A    
C4    O8    A    
C30   H32   S    
C23   H19   S    
C24   H18   S    
C30   H30   S    
Cu1   O5    S    
Cu2   O7    S    
C11   C13   A    
C2    O4    A    
C7    H3    S    
C8    H4    S    
C27   H23   S    
C9    C12   A    
C10   C11   A    
C5    H1    S    
C3    O7    A    
C16   C18   A    
C22   C23   S    
C29   H33   S    
C13   H7    S    
C14   H8    S    
C19   H15   S    
