data_str_m4_o4_o22_f0_acs.sym.115
_audit_creation_date              2012-12-11T15:48:34-0500
_audit_creation_method            fapswitch 2.2
_symmetry_space_group_name_H-M    P1
_symmetry_Int_Tables_number       1
_space_group_crystal_system       triclinic
_cell_length_a                    11.010371
_cell_length_b                    10.97562
_cell_length_c                    18.785059
_cell_angle_alpha                 90.155984
_cell_angle_beta                  89.734168
_cell_angle_gamma                 60.066498
_cell_volume                      1967.21949483

loop_
_atom_site_label
_atom_site_type_symbol
_atom_type_description
_atom_site_fract_x
_atom_site_fract_y
_atom_site_fract_z
_atom_type_partial_charge
C1    C     C_R   0.242120 0.643574 0.611478 0.534723
C2    C     C_3   0.564746 0.636238 0.811797 -0.287145
C3    C     C_3   0.690224 0.661972 0.815994 0.056014
C4    C     C_3   0.650721 0.619943 0.683087 0.012155
C5    C     C_3   0.798004 0.507908 0.707841 -0.242337
C6    C     C_3   0.540752 0.614117 0.732498 -0.259364
C7    C     C_R   0.675416 0.164242 0.824690 0.036156
C8    C     C_R   0.769347 0.190566 0.786828 -0.016530
C9    C     C_R   0.763488 0.198342 0.712553 0.007571
C10   C     C_R   0.569054 0.156929 0.712789 -0.119479
C11   C     C_R   0.567134 0.160987 0.785838 -0.093331
C12   C     C_R   0.630058 0.589915 0.608869 0.557825
C13   C     C_3   0.924507 0.109838 0.787207 -0.277587
C14   C     C_3   0.919335 0.113534 0.706603 -0.280197
C15   C     C_R   0.666178 0.176887 0.674714 0.022079
C16   C     C_R   0.201715 0.664058 0.839438 0.003861
C17   C     C_R   0.244940 0.537189 0.803267 0.007320
C18   C     C_R   0.249855 0.532074 0.729197 0.033402
C19   C     C_R   0.194586 0.772154 0.725694 -0.205924
C20   C     C_R   0.200946 0.772841 0.799792 -0.182814
C21   C     C_3   0.204480 0.427485 0.808978 -0.290274
C22   C     C_3   0.201147 0.427147 0.727795 -0.274379
C23   C     C_R   0.628333 0.228469 0.602595 0.533494
C24   C     C_R   0.211599 0.653208 0.688425 -0.006344
C25   C     C_R   0.651795 0.657144 0.164929 0.017780
C26   C     C_R   0.747981 0.535577 0.201687 0.025721
C27   C     C_R   0.743721 0.530004 0.274400 0.033123
C28   C     C_R   0.530587 0.752334 0.277625 -0.163726
C29   C     C_R   0.533934 0.758784 0.202758 -0.173437
C30   C     C_3   0.905755 0.454486 0.202184 -0.254828
C31   C     C_3   0.898861 0.451289 0.282334 -0.273907
C32   C     C_R   0.643221 0.641998 0.314323 0.017524
C33   C     C_R   0.633758 0.189624 0.168541 0.002590
C34   C     C_R   0.220799 0.649269 0.402114 0.557047
C35   C     C_R   0.517743 0.205251 0.207249 0.070435
C36   C     C_R   0.516004 0.215712 0.280132 0.018885
C37   C     C_R   0.728596 0.226375 0.277016 -0.156033
C38   C     C_R   0.729836 0.218113 0.202797 -0.159830
C39   C     C_3   0.452795 0.113356 0.210869 -0.038898
C40   C     C_3   0.450279 0.126985 0.291138 -0.231589
C41   C     C_R   0.627419 0.212687 0.316514 0.007650
C42   C     C_R   0.115644 0.691249 0.188995 0.018898
C43   C     C_R   0.068802 0.811378 0.231648 0.048056
C44   C     C_R   0.082531 0.802767 0.304019 0.014531
C45   C     C_R   0.639258 0.619875 0.390508 0.552981
C46   C     C_R   0.172288 0.552213 0.295288 -0.160370
C47   C     C_R   0.158197 0.562117 0.221532 -0.181046
C48   C     C_3   0.100803 0.928303 0.226825 -0.264466
C49   C     C_3   0.111784 0.922387 0.306952 -0.273897
C50   C     C_R   0.147468 0.671138 0.336050 0.015772
C51   C     C_R   0.700628 0.102887 0.896183 0.568044
C52   C     C_R   0.720887 0.685134 0.889747 0.568072
C53   C     C_R   0.123114 0.704129 0.907241 0.533888
C54   C     C_R   0.672510 0.111188 0.102354 0.539847
C55   C     C_R   0.694998 0.688075 0.096739 0.539911
C56   C     C_R   0.612336 0.237991 0.392411 0.550441
C57   C     C_R   0.088299 0.712263 0.114028 0.546412
C58   C     C_3   0.652853 0.794724 0.768849 0.169909
C59   C     C_3   0.636934 0.767083 0.689825 -0.196683
C60   C     C_3   0.817255 0.526571 0.785465 -0.240763
Cr1   Cr    Cr6+3 0.392960 0.397920 0.502240 1.005632
Cr2   Cr    Cr6+3 0.398340 0.708480 0.501250 1.001728
Cr3   Cr    Cr6+3 0.708670 0.393570 0.496460 1.003634
Cr4   Cr    Cr6+3 0.937650 0.938540 0.007610 1.006779
Cr5   Cr    Cr6+3 0.625330 0.937370 0.994520 1.008180
Cr6   Cr    Cr6+3 0.937940 0.625230 0.001190 1.000891
H1    H     H_    0.540930 0.513249 0.725748 0.130047
H2    H     H_    0.832444 0.432681 0.815515 0.132562
H3    H     H_    0.812990 0.402078 0.699345 0.148251
H4    H     H_    0.492441 0.139100 0.685971 0.119275
H5    H     H_    0.491312 0.139009 0.810441 0.136590
H6    H     H_    0.961940 0.004876 0.810160 0.171506
H7    H     H_    0.970498 0.170831 0.810465 0.122566
H8    H     H_    0.967379 0.172065 0.682752 0.129074
H9    H     H_    0.952768 0.010375 0.680907 0.136695
H10   H     H_    0.186598 0.861878 0.697751 0.140758
H11   H     H_    0.545553 0.875970 0.786330 0.130672
H12   H     H_    0.190493 0.865850 0.825641 0.135259
H13   H     H_    0.104521 0.463911 0.836942 0.157539
H14   H     H_    0.289509 0.329693 0.831974 0.126641
H15   H     H_    0.278820 0.325736 0.703661 0.142784
H16   H     H_    0.094965 0.471688 0.705311 0.111706
H17   H     H_    0.444098 0.835915 0.306612 0.120783
H18   H     H_    0.451339 0.848217 0.175490 0.114407
H19   H     H_    0.953108 0.516976 0.183542 0.180711
H20   H     H_    0.949468 0.348828 0.177141 0.129943
H21   H     H_    0.940321 0.343803 0.303824 0.133023
H22   H     H_    0.531930 0.850012 0.671348 0.101822
H23   H     H_    0.938130 0.515040 0.309256 0.146107
H24   H     H_    0.808976 0.238053 0.303398 0.131419
H25   H     H_    0.813458 0.219585 0.173104 0.121697
H26   H     H_    0.523053 0.005440 0.190705 0.160924
H27   H     H_    0.343438 0.187440 0.314793 0.154426
H28   H     H_    0.521450 0.026359 0.318256 0.112274
H29   H     H_    0.217289 0.448907 0.318840 0.151166
H30   H     H_    0.186979 0.468794 0.190044 0.162787
H31   H     H_    0.011608 0.026918 0.207131 0.142095
H32   H     H_    0.713687 0.774975 0.654471 0.139485
H33   H     H_    0.202354 0.895922 0.199529 0.134793
H34   H     H_    0.218345 0.893435 0.324848 0.161124
H35   H     H_    0.025969 0.016503 0.333875 0.129993
H36   H     H_    0.913844 0.529641 0.790501 0.118552
H37   H     H_    0.879509 0.514633 0.675820 0.129413
H38   H     H_    0.585535 0.541950 0.843190 0.129879
H39   H     H_    0.469075 0.727171 0.834747 0.113883
H40   H     H_    0.439233 0.701084 0.715976 0.145693
O1    O     O_R   0.507380 0.255700 0.581440 -0.528332
O2    O     O_R   0.524480 0.695810 0.424040 -0.504280
O3    O     O_R   0.736390 0.504290 0.414790 -0.516346
O4    O     O_R   0.691300 0.277290 0.422170 -0.509733
O5    O     O_3   0.499990 0.499990 0.499980 -0.267428
O6    O     O_R   0.089400 0.825690 0.930570 -0.529098
O7    O     O_R   0.818460 0.054440 0.929850 -0.503536
O8    O     O_R   0.606060 0.077150 0.915510 -0.521673
O9    O     O_R   0.646550 0.806680 0.917570 -0.487240
O10   O     O_R   0.837170 0.593410 0.915250 -0.542304
O11   O     O_R   0.065200 0.635530 0.931570 -0.511397
O12   O     O_R   0.280320 0.527350 0.578930 -0.497450
O13   O     O_R   0.068260 0.828890 0.091840 -0.521125
O14   O     O_R   0.798870 0.057410 0.079340 -0.508149
O15   O     O_R   0.584930 0.080350 0.076780 -0.533072
O16   O     O_R   0.626960 0.809650 0.067060 -0.512780
O17   O     O_R   0.816040 0.596610 0.076510 -0.527421
O18   O     O_R   0.045610 0.638500 0.081060 -0.513018
O19   O     O_3   0.833640 0.833710 0.001100 -0.241500
O20   O     O_R   0.260510 0.739590 0.584590 -0.534827
O21   O     O_R   0.532300 0.695080 0.573820 -0.508799
O22   O     O_R   0.744840 0.503500 0.576370 -0.526596
O23   O     O_R   0.699120 0.276560 0.571960 -0.512504
O24   O     O_R   0.498940 0.256500 0.419860 -0.521026
O25   O     O_R   0.272500 0.528080 0.429150 -0.510256
O26   O     O_R   0.252060 0.740380 0.423010 -0.524325
O27   O     O_3   0.733234 0.861587 0.779867 -0.571270
C61   C     C_3   0.876202 0.778367 0.763035 -0.096504
H41   H     H_    0.899700 0.707251 0.716930 0.090597
H42   H     H_    0.932926 0.719344 0.810577 0.156350
H43   H     H_    0.916144 0.849352 0.748950 0.141930
N1    N     N_3   0.312182 0.181792 0.180723 -0.655841
H44   H     H_    0.322187 0.179902 0.125322 0.251327
H45   H     H_    0.267394 0.119769 0.192875 0.215520

loop_
_geom_bond_atom_site_label_1
_geom_bond_atom_site_label_2
_ccdc_geom_bond_type
C44   C49   S    
C5    H37   S    
C8    C13   S    
C54   O14   A    
C32   C45   S    
C35   C36   A    
C40   H27   S    
C9    C14   S    
C61   H43   S    
C7    C8    A    
C12   O21   A    
C7    C11   A    
C48   H31   S    
C26   C27   A    
C51   O7    A    
Cr4   O13   S    
Cr6   O10   S    
C37   H24   S    
C18   C24   A    
C14   H8    S    
C28   C29   A    
C10   C15   A    
C49   H35   S    
Cr2   O21   S    
C45   O3    A    
Cr4   O6    S    
Cr2   O2    S    
C23   O23   A    
Cr5   O8    S    
C16   C53   S    
C5    H3    S    
C58   H11   S    
C59   H22   S    
C46   H29   S    
C19   C20   A    
C16   C17   A    
C31   H23   S    
Cr6   O11   S    
C47   H30   S    
Cr5   O15   S    
C30   H20   S    
C43   C48   S    
Cr3   O22   S    
C45   O2    A    
C57   O13   A    
C3    C60   S    
C15   C23   S    
Cr1   O12   S    
C55   O16   A    
C34   O26   A    
C21   C22   S    
C28   H17   S    
C37   C41   A    
Cr5   O9    S    
C36   C41   A    
C2    C6    S    
C60   H36   S    
C42   C57   S    
C56   O4    A    
C42   C47   A    
C52   O10   A    
C58   O27   S    
C25   C29   A    
C55   O17   A    
C34   C50   S    
C51   O8    A    
C31   H21   S    
Cr2   O5    S    
C27   C31   S    
C22   H15   S    
Cr2   O26   S    
C28   C32   A    
C1    O20   A    
C29   H18   S    
C4    C6    S    
C10   C11   A    
C39   C40   S    
Cr2   O20   S    
C8    C9    A    
C61   H42   S    
C25   C26   A    
C38   H25   S    
C17   C21   S    
Cr5   O19   S    
Cr3   O3    S    
C35   C39   S    
C43   C44   A    
C41   C56   S    
C37   C38   A    
C4    C59   S    
C36   C40   S    
C16   C20   A    
C23   O1    A    
C21   H13   S    
C17   C18   A    
C6    H40   S    
Cr5   O16   S    
C30   H19   S    
N1    H45   S    
Cr1   O24   S    
C10   H4    S    
C53   O6    A    
C48   C49   S    
C54   O15   A    
C13   H7    S    
C2    H38   S    
C26   C30   S    
O27   C61   S    
Cr6   O18   S    
C4    C12   S    
C42   C43   A    
Cr1   O5    S    
C22   H16   S    
C39   H26   S    
C52   O9    A    
C44   C50   A    
C33   C54   S    
C48   H33   S    
C46   C47   A    
C19   H10   S    
Cr4   O7    S    
C5    C60   S    
C27   C32   A    
C18   C22   S    
C25   C55   S    
C40   H28   S    
C4    C5    S    
C34   O25   A    
C3    C52   S    
C61   H41   S    
C12   O22   A    
C13   H6    S    
C46   C50   A    
C2    H39   S    
C33   C38   A    
Cr4   O14   S    
Cr6   O19   S    
C20   H12   S    
C14   H9    S    
Cr3   O4    S    
C2    C3    S    
C58   C59   S    
C7    C51   S    
C6    H1    S    
C57   O18   A    
C30   C31   S    
C21   H14   S    
C33   C35   A    
C19   C24   A    
C53   O11   A    
C1    O12   A    
Cr3   O23   S    
Cr3   O5    S    
Cr1   O1    S    
C39   N1    S    
N1    H44   S    
Cr1   O25   S    
C3    C58   S    
C60   H2    S    
C1    C24   S    
Cr4   O19   S    
C59   H32   S    
Cr6   O17   S    
C13   C14   S    
C11   H5    S    
C56   O24   A    
C9    C15   A    
C49   H34   S    
