data_str_m9_o7_o17_f0_sra.sym.18
_audit_creation_date              2012-12-11T17:35:11-0500
_audit_creation_method            fapswitch 2.2
_symmetry_space_group_name_H-M    P1
_symmetry_Int_Tables_number       1
_space_group_crystal_system       triclinic
_cell_length_a                    24.289645
_cell_length_b                    7.277812
_cell_length_c                    21.918324
_cell_angle_alpha                 89.999773
_cell_angle_beta                  99.622325
_cell_angle_gamma                 90.000071
_cell_volume                      3820.10989522

loop_
_atom_site_label
_atom_site_type_symbol
_atom_type_description
_atom_site_fract_x
_atom_site_fract_y
_atom_site_fract_z
_atom_type_partial_charge
O1    O     O_R   0.801940 0.607920 0.199180 -0.541146
O2    O     O_R   0.198060 0.392080 0.800820 -0.537847
O3    O     O_R   0.698060 0.107920 0.300820 -0.541153
O4    O     O_R   0.301940 0.892080 0.699180 -0.537848
O5    O     O_R   0.687840 0.274940 0.181980 -0.533985
O6    O     O_R   0.312160 0.725060 0.818020 -0.531277
O7    O     O_R   0.812160 0.774940 0.318020 -0.533978
O8    O     O_R   0.187840 0.225060 0.681980 -0.531278
C1    C     C_R   0.669897 0.446486 0.164893 0.690783
C2    C     C_R   0.331496 0.553925 0.833609 0.676363
C3    C     C_R   0.830104 0.946485 0.335106 0.690859
C4    C     C_R   0.168503 0.053925 0.666391 0.676359
O9    O     O_R   0.800890 0.278000 0.191820 -0.538050
O10   O     O_R   0.199110 0.722000 0.808180 -0.540420
O11   O     O_R   0.699110 0.778000 0.308180 -0.538044
O12   O     O_R   0.300890 0.222000 0.691820 -0.540422
O13   O     O_R   0.811910 0.110860 0.310720 -0.532758
O14   O     O_R   0.188090 0.889140 0.689280 -0.531119
O15   O     O_R   0.688090 0.610860 0.189280 -0.532775
O16   O     O_R   0.311910 0.389140 0.810720 -0.531122
C5    C     C_R   0.819466 0.448074 0.179817 0.670455
C6    C     C_R   0.181258 0.552002 0.821185 0.674714
C7    C     C_R   0.680531 0.948073 0.320178 0.670503
C8    C     C_R   0.318741 0.052002 0.678815 0.674714
O17   O     O_3   0.753490 0.442410 0.289000 -0.373203
O18   O     O_3   0.246510 0.557590 0.711000 -0.372556
O19   O     O_3   0.746510 0.942410 0.211000 -0.373213
O20   O     O_3   0.253490 0.057590 0.789000 -0.372556
V1    V     V_3+5 0.749350 0.166330 0.242770 1.373545
V2    V     V_3+5 0.250650 0.833670 0.757230 1.377687
V3    V     V_3+5 0.750650 0.666330 0.257230 1.373537
V4    V     V_3+5 0.249350 0.333670 0.742770 1.377682
C9    C     C_R   0.429383 0.200696 0.584562 -0.169384
C10   C     C_R   0.589122 0.831637 0.440900 -0.188538
C11   C     C_R   0.070601 0.700688 0.915419 -0.169357
C12   C     C_R   0.910847 0.331631 0.059066 -0.188533
H1    H     H_    0.440359 0.325598 0.563223 0.118703
H2    H     H_    0.574500 0.711941 0.462173 0.137360
H3    H     H_    0.059618 0.825591 0.936752 0.118706
H4    H     H_    0.925465 0.211933 0.037790 0.137363
C13   C     C_R   0.386403 0.201825 0.619850 -0.225562
C14   C     C_R   0.625992 0.814943 0.398157 -0.217407
C15   C     C_R   0.113586 0.701822 0.880138 -0.225555
C16   C     C_R   0.873982 0.314945 0.101815 -0.217380
H5    H     H_    0.367877 0.328772 0.629682 0.149363
H6    H     H_    0.643401 0.682755 0.390480 0.134772
H7    H     H_    0.132108 0.828774 0.870304 0.149340
H8    H     H_    0.856570 0.182762 0.109491 0.134773
C17   C     C_R   0.364856 0.039309 0.640275 -0.094369
C18   C     C_R   0.638824 0.967170 0.363754 -0.102305
C19   C     C_R   0.135140 0.539307 0.859721 -0.094375
C20   C     C_R   0.861161 0.467171 0.136227 -0.102293
C21   C     C_R   0.390058 0.871115 0.625206 0.070910
C22   C     C_R   0.614362 0.139863 0.375751 0.065712
C23   C     C_R   0.109940 0.371108 0.874791 0.070919
C24   C     C_R   0.885621 0.639864 0.124222 0.065705
C25   C     C_R   0.443119 0.876931 0.605040 0.089986
C26   C     C_R   0.592793 0.160124 0.431911 0.095345
C27   C     C_R   0.056875 0.376917 0.894948 0.089983
C28   C     C_R   0.907181 0.660117 0.068055 0.095355
C29   C     C_R   0.458896 0.039683 0.577991 0.080817
C30   C     C_R   0.573207 0.004323 0.459061 0.089852
C31   C     C_R   0.041091 0.539668 0.921991 0.080815
C32   C     C_R   0.926766 0.504313 0.040905 0.089847
C33   C     C_1   0.501016 0.035751 0.537861 -0.070861
C34   C     C_1   0.534676 0.021573 0.503009 -0.063455
C35   C     C_1   0.998965 0.535734 0.962114 -0.070861
C36   C     C_1   0.965300 0.521556 0.996961 -0.063448
C37   C     C_R   0.928782 0.885762 0.377913 -0.264752
C38   C     C_R   0.066934 0.093400 0.629042 -0.243164
C39   C     C_R   0.571219 0.385747 0.122084 -0.264745
C40   C     C_R   0.433065 0.593416 0.870958 -0.243164
C41   C     C_R   0.877285 0.955294 0.387615 -0.088519
C42   C     C_R   0.119560 0.045205 0.615677 -0.077592
C43   C     C_R   0.622714 0.455299 0.112384 -0.088475
C44   C     C_R   0.380439 0.545203 0.884323 -0.077594
C45   C     C_R   0.871853 0.030632 0.446349 0.090687
C46   C     C_R   0.124488 0.987572 0.554850 0.038933
C47   C     C_R   0.628142 0.530684 0.053654 0.090752
C48   C     C_R   0.375512 0.487554 0.945148 0.038931
C49   C     C_R   0.920574 0.046533 0.493026 0.073429
C50   C     C_R   0.075052 0.953655 0.511082 0.082510
C51   C     C_R   0.579423 0.546563 0.006975 0.073406
C52   C     C_R   0.424948 0.453632 0.988915 0.082511
C53   C     C_R   0.973059 0.985557 0.480323 0.029274
C54   C     C_R   0.022322 0.005536 0.525222 0.034807
C55   C     C_R   0.526940 0.485553 0.019675 0.029258
C56   C     C_R   0.477678 0.505530 0.974776 0.034809
C57   C     C_R   0.976596 0.904348 0.422762 0.109277
C58   C     C_R   0.018793 0.079467 0.583843 0.104554
C59   C     C_R   0.523404 0.404328 0.077236 0.109277
C60   C     C_R   0.481206 0.579483 0.916157 0.104559
C61   C     C_R   0.918845 0.123525 0.551904 -0.193562
C62   C     C_R   0.076731 0.869519 0.453391 -0.204314
C63   C     C_R   0.581151 0.623577 0.948099 -0.193547
C64   C     C_R   0.423270 0.369479 0.046605 -0.204317
C65   C     C_R   0.966942 0.136881 0.596700 -0.179842
C66   C     C_R   0.028257 0.844499 0.410222 -0.178717
C67   C     C_R   0.533055 0.636924 0.903302 -0.179851
C68   C     C_R   0.471744 0.344460 0.089774 -0.178720
H9    H     H_    0.880572 0.174813 0.564474 0.124851
H10   H     H_    0.115326 0.820725 0.440838 0.131865
H11   H     H_    0.619420 0.674891 0.935531 0.124858
H12   H     H_    0.384676 0.320670 0.059155 0.131863
H13   H     H_    0.963600 0.194756 0.641507 0.122617
H14   H     H_    0.031396 0.780524 0.366266 0.125580
H15   H     H_    0.536396 0.694817 0.858498 0.122612
H16   H     H_    0.468605 0.280471 0.133728 0.125571
C69   C     C_3   0.358100 0.691387 0.618728 -0.359061
C70   C     C_3   0.302810 0.706041 0.573330 -0.304750
C71   C     C_3   0.281952 0.520107 0.547028 -0.786828
H17   H     H_    0.273119 0.427982 0.584582 0.250010
H18   H     H_    0.242801 0.539868 0.513498 0.211283
H19   H     H_    0.313316 0.455400 0.522323 0.231337
H20   H     H_    0.270431 0.762627 0.597622 0.212866
H21   H     H_    0.308005 0.797434 0.534100 0.199110
H22   H     H_    0.383139 0.590627 0.598067 0.173710
H23   H     H_    0.351712 0.637250 0.664352 0.182269
C72   C     C_3   0.604779 0.293579 0.327494 -0.338268
C73   C     C_3   0.543311 0.356993 0.313759 -0.347137
C74   C     C_3   0.536790 0.537632 0.277741 -0.767444
H24   H     H_    0.550956 0.654003 0.308977 0.238525
H25   H     H_    0.561549 0.537433 0.239669 0.227091
H26   H     H_    0.492142 0.559768 0.257957 0.218973
H27   H     H_    0.518065 0.248997 0.286100 0.192571
H28   H     H_    0.525453 0.377317 0.356613 0.203791
H29   H     H_    0.633349 0.409402 0.342507 0.174679
H30   H     H_    0.613473 0.247094 0.282004 0.183307
C75   C     C_3   0.141901 0.191383 0.881273 -0.359055
C76   C     C_3   0.197192 0.206038 0.926669 -0.304753
C77   C     C_3   0.218044 0.020107 0.952981 -0.786817
H31   H     H_    0.226869 0.927951 0.915432 0.250000
H32   H     H_    0.257197 0.039862 0.986507 0.211283
H33   H     H_    0.186678 0.955436 0.977694 0.231336
H34   H     H_    0.229573 0.262592 0.902372 0.212873
H35   H     H_    0.192001 0.297459 0.965893 0.199108
H36   H     H_    0.116862 0.090627 0.901937 0.173713
H37   H     H_    0.148288 0.137240 0.835649 0.182261
C78   C     C_3   0.895215 0.793583 0.172476 -0.338260
C79   C     C_3   0.956684 0.857005 0.186189 -0.347130
C80   C     C_3   0.963216 0.037630 0.222215 -0.767468
H38   H     H_    0.948977 0.153990 0.191005 0.238538
H39   H     H_    0.938523 0.037315 0.260343 0.227089
H40   H     H_    0.007876 0.059875 0.241919 0.218977
H41   H     H_    0.981940 0.749002 0.213833 0.192586
H42   H     H_    0.974524 0.877360 0.143326 0.203791
H43   H     H_    0.866641 0.909404 0.157471 0.174676
H44   H     H_    0.886532 0.747096 0.217972 0.183303
C81   C     C_3   0.482938 0.712937 0.611674 -0.384540
C82   C     C_3   0.492389 0.631943 0.677456 -0.312041
C83   C     C_3   0.538907 0.488443 0.685725 -0.762146
H45   H     H_    0.529352 0.377281 0.650880 0.240685
H46   H     H_    0.579328 0.553160 0.680749 0.225533
H47   H     H_    0.542996 0.427169 0.732667 0.217758
H48   H     H_    0.504035 0.743649 0.711807 0.194660
H49   H     H_    0.453811 0.565576 0.687530 0.189303
H50   H     H_    0.467856 0.608339 0.576424 0.156951
H51   H     H_    0.524655 0.754554 0.602244 0.186882
C84   C     C_3   0.595023 0.341953 0.465583 -0.394501
C85   C     C_3   0.636406 0.332503 0.526908 -0.291773
C86   C     C_3   0.642920 0.517959 0.559709 -0.795057
H52   H     H_    0.662192 0.619112 0.531764 0.235737
H53   H     H_    0.601686 0.569531 0.567626 0.232180
H54   H     H_    0.670539 0.502739 0.605195 0.217500
H55   H     H_    0.621923 0.231068 0.558603 0.203475
H56   H     H_    0.678019 0.287624 0.517680 0.187971
H57   H     H_    0.609954 0.448845 0.437107 0.182140
H58   H     H_    0.552713 0.381067 0.474078 0.170830
C87   C     C_3   0.017059 0.212917 0.888311 -0.384543
C88   C     C_3   0.007626 0.131885 0.822534 -0.312046
C89   C     C_3   0.961091 0.988448 0.814249 -0.762176
H59   H     H_    0.970612 0.877321 0.849112 0.240692
H60   H     H_    0.920670 0.053240 0.819187 0.225531
H61   H     H_    0.957023 0.927114 0.767317 0.217769
H62   H     H_    0.996006 0.243578 0.788171 0.194667
H63   H     H_    0.046203 0.065448 0.812485 0.189299
H64   H     H_    0.032135 0.108340 0.923571 0.156936
H65   H     H_    0.975337 0.254542 0.897725 0.186892
C90   C     C_3   0.904950 0.841944 0.034381 -0.394508
C91   C     C_3   0.863576 0.832490 0.973050 -0.291774
C92   C     C_3   0.857090 0.017921 0.940231 -0.795061
H66   H     H_    0.837823 0.119131 0.968159 0.235690
H67   H     H_    0.898333 0.069425 0.932322 0.232191
H68   H     H_    0.829480 0.002692 0.894740 0.217511
H69   H     H_    0.878051 0.731002 0.941368 0.203479
H70   H     H_    0.821955 0.787684 0.982274 0.187954
H71   H     H_    0.890012 0.948835 0.062853 0.182124
H72   H     H_    0.947263 0.881062 0.025893 0.170837
H73   H     H_    0.931839 0.819878 0.334264 0.122683
H74   H     H_    0.063595 0.142772 0.674995 0.109676
H75   H     H_    0.568161 0.319866 0.165734 0.122723
H76   H     H_    0.436401 0.642804 0.825006 0.109677
C93   C     C_3   0.814214 0.084976 0.459518 -0.356868
C94   C     C_3   0.790682 0.945054 0.501163 -0.339229
C95   C     C_3   0.780658 0.756253 0.470807 -0.696928
H77   H     H_    0.752405 0.767961 0.425739 0.226034
H78   H     H_    0.820735 0.693636 0.463522 0.230041
H79   H     H_    0.760951 0.663985 0.501266 0.199167
H80   H     H_    0.819114 0.929007 0.546027 0.197352
H81   H     H_    0.750204 0.997916 0.511245 0.182163
H82   H     H_    0.816187 0.223392 0.481043 0.138757
H83   H     H_    0.783203 0.100536 0.416637 0.173206
C96   C     C_3   0.181774 0.976516 0.535689 -0.369898
C97   C     C_3   0.189424 0.127180 0.488750 -0.299710
C98   C     C_3   0.246436 0.112335 0.468612 -0.795841
H84   H     H_    0.280326 0.122873 0.509304 0.234351
H85   H     H_    0.250095 0.979168 0.444859 0.229641
H86   H     H_    0.251410 0.225489 0.435998 0.224132
H87   H     H_    0.156808 0.118643 0.446907 0.201125
H88   H     H_    0.185657 0.263762 0.510284 0.198943
H89   H     H_    0.215275 0.998111 0.575790 0.151711
H90   H     H_    0.188314 0.837965 0.517045 0.171785
C99   C     C_3   0.685774 0.585164 0.040496 -0.356874
C100  C     C_3   0.709346 0.445326 0.998855 -0.339266
C101  C     C_3   0.719392 0.256526 0.029203 -0.696912
H91   H     H_    0.747535 0.268319 0.074340 0.226081
H92   H     H_    0.679308 0.193638 0.036347 0.229959
H93   H     H_    0.739241 0.164466 0.998807 0.199186
H94   H     H_    0.680939 0.429245 0.953977 0.197344
H95   H     H_    0.749820 0.498294 0.988800 0.182157
H96   H     H_    0.683779 0.723589 0.018976 0.138761
H97   H     H_    0.716775 0.600770 0.083382 0.173228
C102  C     C_3   0.318226 0.476497 0.964312 -0.369902
C103  C     C_3   0.310580 0.627156 0.011254 -0.299708
C104  C     C_3   0.253569 0.612326 0.031392 -0.795846
H98   H     H_    0.219679 0.622876 0.990701 0.234350
H99   H     H_    0.249907 0.479158 0.055144 0.229644
H100  H     H_    0.248598 0.725479 0.064008 0.224131
H101  H     H_    0.343196 0.618602 0.053097 0.201127
H102  H     H_    0.314351 0.763741 0.989722 0.198944
H103  H     H_    0.284724 0.498099 0.924212 0.151713
H104  H     H_    0.311686 0.337945 0.982954 0.171784

loop_
_geom_bond_atom_site_label_1
_geom_bond_atom_site_label_2
_ccdc_geom_bond_type
O17   V3    S    
C51   C55   A    
C55   C56   A    
O1    C5    A    
C50   C62   A    
C4    C42   S    
O19   V1    S    
O13   V1    S    
C87   C88   S    
O3    C7    A    
C76   H34   S    
C10   C14   A    
C10   C30   A    
C96   C97   S    
C77   H33   S    
O15   V3    S    
C103  C104  S    
C39   C59   A    
C86   H52   S    
C69   H22   S    
C88   H63   S    
C98   H84   S    
C73   C74   S    
C28   C90   S    
O7    C3    A    
C89   H60   S    
C78   H43   S    
C18   C22   A    
C27   C87   S    
C32   C36   S    
O9    V1    S    
C23   C27   A    
C26   C84   S    
C80   H39   S    
C14   H6    S    
O4    C8    A    
C73   H28   S    
C92   H68   S    
C90   H71   S    
C88   C89   S    
C62   C66   A    
O1    V3    S    
C104  H100  S    
C93   H82   S    
C84   H58   S    
O2    V4    S    
C52   C64   A    
C83   H47   S    
C87   H64   S    
O3    V1    S    
C45   C93   S    
C70   C71   S    
C74   H26   S    
C2    C44   S    
C1    O15   A    
C40   C60   A    
C94   H81   S    
C75   H37   S    
C71   H17   S    
C2    O16   A    
C23   C75   S    
C25   C81   S    
C97   H87   S    
C38   C42   A    
C83   H45   S    
C37   C41   A    
O14   V2    S    
C85   H56   S    
C59   C68   A    
C11   C15   A    
C81   H51   S    
C69   C70   S    
C58   C65   A    
C19   C23   A    
C40   C44   A    
C95   H79   S    
C65   H13   S    
C72   H30   S    
C16   C20   A    
C50   C54   A    
O11   C7    A    
C94   C95   S    
O12   C8    A    
C82   H49   S    
C22   C72   S    
C97   H88   S    
C96   H89   S    
C100  H94   S    
C38   C58   A    
C99   H96   S    
O10   V2    S    
O16   V4    S    
C37   C57   A    
C13   C17   A    
C86   H53   S    
C63   H11   S    
C69   H23   S    
O5    V1    S    
C88   H62   S    
C92   H67   S    
C89   H61   S    
C31   C35   S    
C78   H44   S    
C68   H16   S    
O7    V3    S    
C55   C59   A    
C30   C34   S    
C35   C36   T    
O8    V4    S    
C99   C100  S    
C56   C60   A    
C12   H4    S    
C46   C96   S    
C102  C103  S    
C54   C58   A    
C101  H93   S    
C37   H73   S    
C48   C52   A    
C24   C78   S    
C21   C25   A    
C100  C101  S    
C7    C18   S    
C90   H72   S    
C92   H66   S    
C9    H1    S    
C93   H83   S    
C24   C28   A    
C52   C56   A    
C11   H3    S    
C101  H91   S    
C61   H9    S    
O5    C1    A    
C103  H102  S    
C49   C61   A    
C99   H97   S    
C46   C50   A    
C61   C65   A    
C13   H5    S    
C84   C85   S    
C45   C49   A    
O8    C4    A    
C51   C63   A    
C104  H98   S    
O9    C5    A    
C71   H18   S    
C85   H55   S    
C79   C80   S    
C72   C73   S    
C25   C29   A    
C89   H59   S    
C74   H24   S    
C91   H70   S    
C26   C30   A    
C14   C18   A    
O6    V2    S    
C93   C94   S    
C82   H48   S    
C80   H38   S    
C3    C41   S    
C96   H90   S    
C80   H40   S    
C43   C47   A    
C79   H42   S    
C77   H31   S    
C70   H21   S    
C87   H65   S    
C102  H103  S    
C86   H54   S    
C91   C92   S    
C38   H74   S    
C75   C76   S    
C22   C26   A    
C98   H86   S    
C21   C69   S    
C8    C17   S    
C3    O13   A    
C53   C57   A    
C10   H2    S    
C76   H35   S    
C44   C48   A    
C77   H32   S    
C53   C54   A    
C79   H41   S    
O6    C2    A    
C78   C79   S    
O11   V3    S    
O18   V4    S    
C90   C91   S    
O12   V4    S    
C67   H15   S    
C27   C31   A    
C66   H14   S    
C57   C66   A    
C28   C32   A    
C9    C13   A    
C85   C86   S    
O10   C6    A    
C64   H12   S    
C76   C77   S    
C16   H8    S    
C100  H95   S    
C81   C82   S    
C48   C102  S    
C39   C43   A    
C15   C19   A    
C81   H50   S    
C17   C21   A    
C64   C68   A    
O20   V2    S    
O2    C6    A    
C104  H99   S    
C84   H57   S    
C71   H19   S    
C63   C67   A    
C12   C32   A    
C83   H46   S    
C73   H27   S    
O4    V2    S    
C74   H25   S    
C101  H92   S    
C12   C16   A    
C91   H69   S    
C95   H77   S    
C47   C51   A    
C94   H80   S    
C29   C33   S    
C102  H104  S    
C47   C99   S    
C75   H36   S    
C97   C98   S    
C62   H10   S    
C9    C29   A    
C33   C34   T    
C42   C46   A    
C4    O14   A    
C41   C45   A    
C82   C83   S    
C11   C31   A    
C1    C43   S    
C39   H75   S    
C103  H101  S    
C98   H85   S    
C15   H7    S    
C70   H20   S    
C40   H76   S    
C5    C20   S    
C49   C53   A    
C20   C24   A    
C60   C67   A    
C6    C19   S    
C95   H78   S    
C72   H29   S    
