data_str_m3_o10_o27_f0_pcu.sym.229
_audit_creation_date              2013-03-05T15:42:19-0500
_audit_creation_method            fapswitch 2.2
_symmetry_space_group_name_H-M    P1
_symmetry_Int_Tables_number       1
_space_group_crystal_system       triclinic
_cell_length_a                    7.81663
_cell_length_b                    8.693205
_cell_length_c                    19.216997
_cell_angle_alpha                 92.854313
_cell_angle_beta                  83.769104
_cell_angle_gamma                 93.786651
_cell_volume                      1294.08038277

loop_
_atom_site_label
_atom_site_type_symbol
_atom_site_description
_atom_site_fract_x
_atom_site_fract_y
_atom_site_fract_z
_atom_type_partial_charge
O1    O     O_R   0.389250 0.738570 0.504600 -0.610013
O2    O     O_R   0.610750 0.261430 0.495400 -0.611253
O3    O     O_R   0.678400 0.711620 0.492580 -0.535984
O4    O     O_R   0.321600 0.288380 0.507420 -0.535638
C1    C     C_R   0.545037 0.793732 0.497202 0.874729
C2    C     C_R   0.454984 0.206205 0.502556 0.875287
O5    O     O_R   0.355380 0.513500 0.607880 -0.681068
O6    O     O_R   0.644620 0.486500 0.392120 -0.682717
O7    O     O_R   0.644530 0.486550 0.595850 -0.593043
O8    O     O_R   0.355470 0.513450 0.404150 -0.589994
C3    C     C_R   0.499114 0.500357 0.634411 0.857524
C4    C     C_R   0.501439 0.501599 0.365602 0.859338
Zn1   Zn    Zn3+2 0.306930 0.517990 0.508030 1.080013
Zn2   Zn    Zn3+2 0.693070 0.482010 0.491970 1.078136
C5    C     C_R   0.349599 0.542801 0.753400 -0.301521
C6    C     C_R   0.662581 0.491755 0.247729 -0.319362
H1    H     H_    0.232104 0.562747 0.731218 0.148560
H2    H     H_    0.777978 0.471954 0.271201 0.140993
C7    C     C_R   0.350784 0.554967 0.825979 0.499437
C8    C     C_R   0.670972 0.500585 0.174981 0.513231
C9    C     C_R   0.501645 0.522787 0.855151 -0.017232
C10   C     C_R   0.521598 0.535421 0.145601 0.001069
C11   C     C_R   0.649014 0.482393 0.811662 -0.249045
C12   C     C_R   0.367680 0.559284 0.188209 -0.254488
H3    H     H_    0.766357 0.458240 0.833234 0.188727
H4    H     H_    0.252121 0.585448 0.165877 0.184933
C13   C     C_R   0.647436 0.473655 0.739741 -0.182160
C14   C     C_R   0.360024 0.546141 0.259941 -0.187145
H5    H     H_    0.763171 0.442413 0.707376 0.181654
H6    H     H_    0.239382 0.564291 0.291752 0.178238
C15   C     C_R   0.498278 0.504879 0.710189 -0.083455
C16   C     C_R   0.507097 0.511207 0.290001 -0.071623
N1    N     N_R   0.617212 0.441128 0.958814 -0.178520
N2    N     N_R   0.413104 0.626792 0.041925 -0.188919
N3    N     N_R   0.623318 0.445237 0.027497 -0.120382
N4    N     N_R   0.406902 0.622511 0.973165 -0.138246
C17   C     C_R   0.521638 0.538198 0.070103 0.315770
C18   C     C_R   0.508078 0.528953 0.930582 0.306076
C19   C     C_2   0.568892 0.955908 0.500174 -0.039933
C20   C     C_2   0.431329 0.043971 0.498999 -0.042369
N5    N     N_2   0.950330 0.457950 0.481240 0.171625
N6    N     N_2   0.049670 0.542050 0.518760 0.171809
O9    O     O_3   0.199757 0.580689 0.868431 -0.606317
C21   C     C_3   0.163020 0.737121 0.866013 0.081862
H7    H     H_    0.136194 0.765227 0.812605 0.125402
H8    H     H_    0.272400 0.814995 0.882008 0.151185
C22   C     C_3   0.003959 0.767842 0.916533 -0.743648
H9    H     H_    0.026469 0.740681 0.970580 0.276226
H10   H     H_    0.975282 0.891154 0.915949 0.201820
H11   H     H_    0.891133 0.695234 0.900760 0.248497
O10   O     O_3   0.825932 0.491996 0.132267 -0.606588
C23   C     C_3   0.914371 0.361998 0.146202 0.061019
H12   H     H_    0.824851 0.259745 0.159392 0.139905
H13   H     H_    0.994597 0.391273 0.189870 0.140269
C24   C     C_3   0.033659 0.317784 0.081425 -0.744019
H14   H     H_    0.123891 0.417184 0.066031 0.268298
H15   H     H_    0.109425 0.219892 0.092584 0.202123
H16   H     H_    0.956873 0.282780 0.037269 0.265490
N7    N     N_R   0.739942 0.017557 0.509947 0.251780
O11   O     O_R   0.864450 0.995828 0.460618 -0.301085
O12   O     O_R   0.774274 0.076741 0.570786 -0.365635
N8    N     N_R   0.260517 0.982267 0.488809 0.251203
O13   O     O_R   0.135217 0.004273 0.537752 -0.300466
O14   O     O_R   0.227520 0.920982 0.428166 -0.365165
O15   O     O_3   0.031957 0.342992 0.444787 -0.477147
C25   C     C_3   0.961992 0.320292 0.380591 0.242766
H17   H     H_    0.961522 0.431943 0.354719 0.102350
H18   H     H_    0.830114 0.264315 0.388372 0.178457
C26   C     C_3   0.073068 0.214754 0.331869 -0.824086
H19   H     H_    0.070545 0.098979 0.353638 0.321581
H20   H     H_    0.022619 0.202041 0.279957 0.179039
H21   H     H_    0.208343 0.263384 0.324947 0.249070
O16   O     O_3   0.968943 0.658633 0.554236 -0.475901
C27   C     C_3   0.035676 0.680839 0.619124 0.241382
H22   H     H_    0.168215 0.735805 0.612402 0.172926
H23   H     H_    0.034278 0.569131 0.645203 0.105184
C28   C     C_3   0.922972 0.787308 0.666715 -0.812005
H24   H     H_    0.785212 0.746790 0.667649 0.256881
H25   H     H_    0.960219 0.789293 0.720810 0.182262
H26   H     H_    0.939233 0.906361 0.647976 0.312046

loop_
_geom_bond_atom_site_label_1
_geom_bond_atom_site_label_2
_geom_bond_distance
_ccdc_geom_bond_type
C25   H18   1.108744 S    
C24   H14   1.109642 S    
C13   H5    1.082815 S    
N2    C17   1.354128 A    
N5    N6    1.285064 D    
O7    Zn2   1.990047 S    
C22   H10   1.110393 S    
C28   H24   1.109172 S    
C21   H7    1.111543 S    
C5    C7    1.394490 A    
C27   H23   1.113639 S    
O1    C1    1.274803 A    
N3    C17   1.353811 A    
C12   H4    1.082969 S    
C8    O10   1.391592 S    
C25   C26   1.521645 S    
C20   N8    1.435434 S    
O16   C27   1.402907 S    
O4    Zn1   2.006265 S    
C26   H20   1.109772 S    
N8    O14   1.301429 A    
C9    C18   1.454079 S    
C21   H8    1.115180 S    
C27   C28   1.522386 S    
C7    O9    1.384487 S    
C11   C13   1.381757 A    
C21   C22   1.521754 S    
C6    C8    1.398107 A    
C25   H17   1.112744 S    
C3    C15   1.454128 S    
N7    O11   1.299097 A    
C4    C16   1.455080 S    
O2    C2    1.274703 A    
Zn1   N6    2.022687 S    
C23   H13   1.110900 S    
C22   H11   1.110633 S    
C28   H25   1.108593 S    
N7    O12   1.301379 A    
C27   H22   1.109063 S    
C13   C15   1.398717 A    
O10   C23   1.414292 S    
C14   C16   1.398311 A    
C2    C20   1.409469 S    
O4    C2    1.294863 A    
C19   C20   1.363275 D    
N5    O15   1.346851 S    
C10   C17   1.452214 S    
C26   H21   1.109284 S    
O5    C3    1.297067 A    
O9    C21   1.412333 S    
N8    O13   1.298982 A    
C22   H9    1.111310 S    
O6    C4    1.295908 A    
C19   N7    1.435268 S    
O7    C3    1.296860 A    
O3    Zn2   2.006265 S    
O8    C4    1.298331 A    
Zn2   N5    2.022686 S    
C8    C10   1.407343 A    
C9    C11   1.401396 A    
C10   C12   1.401133 A    
O1    Zn1   1.983881 S    
C23   H12   1.116170 S    
C28   H26   1.107596 S    
C5    H1    1.081030 S    
C1    C19   1.408975 S    
N6    O16   1.346242 S    
O6    Zn2   1.998490 S    
C7    C9    1.409184 A    
C12   C14   1.383372 A    
O3    C1    1.294602 A    
O8    Zn1   1.990051 S    
C23   C24   1.521331 S    
C5    C15   1.400965 A    
C6    C16   1.401699 A    
N1    C18   1.353766 A    
C24   H15   1.110512 S    
C14   H6    1.082956 S    
N4    C18   1.354538 A    
N1    N3    1.324542 A    
N2    N4    1.326080 A    
C11   H3    1.083467 S    
C26   H19   1.107184 S    
O2    Zn2   1.983881 S    
O5    Zn1   1.998488 S    
C6    H2    1.078563 S    
O15   C25   1.402825 S    
C24   H16   1.110671 S    
