data_str_m9_o2_o19_f0_sra.sym.155
_audit_creation_date              2013-03-05T16:02:29-0500
_audit_creation_method            fapswitch 2.2
_symmetry_space_group_name_H-M    P1
_symmetry_Int_Tables_number       1
_space_group_crystal_system       triclinic
_cell_length_a                    16.592374
_cell_length_b                    7.253629
_cell_length_c                    15.185338
_cell_angle_alpha                 89.999947
_cell_angle_beta                  94.7381
_cell_angle_gamma                 90.000543
_cell_volume                      1821.38462174

loop_
_atom_site_label
_atom_site_type_symbol
_atom_site_description
_atom_site_fract_x
_atom_site_fract_y
_atom_site_fract_z
_atom_type_partial_charge
O1    O     O_R   0.663460 0.361760 0.165970 -0.580739
O2    O     O_R   0.336540 0.638240 0.834030 -0.580738
O3    O     O_R   0.836540 0.861760 0.334030 -0.580772
O4    O     O_R   0.163460 0.138240 0.665970 -0.580772
O5    O     O_R   0.827100 0.689870 0.163730 -0.578618
O6    O     O_R   0.172900 0.310130 0.836270 -0.578617
O7    O     O_R   0.672900 0.189870 0.336270 -0.578527
O8    O     O_R   0.327100 0.810130 0.663730 -0.578526
H1    H     H_    0.207885 0.098135 0.503807 0.150826
H2    H     H_    0.792115 0.901864 0.496193 0.150826
H3    H     H_    0.291948 0.595977 0.996523 0.150517
H4    H     H_    0.708052 0.404026 0.003476 0.150517
C1    C     C_R   0.853285 0.522943 0.143585 0.951782
C2    C     C_R   0.146715 0.477057 0.856415 0.951781
C3    C     C_R   0.646719 0.022941 0.356419 0.951936
C4    C     C_R   0.353281 0.977059 0.643580 0.951935
O9    O     O_R   0.663490 0.691370 0.155500 -0.584546
O10   O     O_R   0.336510 0.308630 0.844500 -0.584547
O11   O     O_R   0.836510 0.191370 0.344500 -0.584573
O12   O     O_R   0.163490 0.808630 0.655500 -0.584573
O13   O     O_R   0.671770 0.863320 0.325740 -0.583494
O14   O     O_R   0.328230 0.136680 0.674260 -0.583494
O15   O     O_R   0.828230 0.363320 0.174260 -0.583705
O16   O     O_R   0.171770 0.636680 0.825740 -0.583702
C5    C     C_R   0.636265 0.522868 0.133624 0.910125
C6    C     C_R   0.363735 0.477132 0.866375 0.910125
C7    C     C_R   0.863747 0.022873 0.366364 0.910087
C8    C     C_R   0.136253 0.977127 0.633636 0.910087
H5    H     H_    0.109306 0.237934 0.242674 0.182446
H6    H     H_    0.890694 0.762061 0.757325 0.182448
H7    H     H_    0.390373 0.733558 0.258007 0.182415
H8    H     H_    0.609627 0.266434 0.741994 0.182416
O17   O     O_3   0.752910 0.528800 0.305860 -0.277830
O18   O     O_3   0.247090 0.471200 0.694140 -0.277829
O19   O     O_3   0.747090 0.028800 0.194140 -0.278048
O20   O     O_3   0.252910 0.971200 0.805860 -0.278046
V1    V     V_3+5 0.749460 0.803010 0.239640 1.198579
V2    V     V_3+5 0.250540 0.196990 0.760360 1.198582
V3    V     V_3+5 0.750540 0.303010 0.260360 1.198626
V4    V     V_3+5 0.249460 0.696990 0.739640 1.198629
C9    C     C_1   0.468849 0.994752 0.530142 0.133486
C10   C     C_1   0.531150 0.005248 0.469857 0.133487
C11   C     C_1   0.031146 0.494750 0.969853 0.134324
C12   C     C_1   0.968854 0.505250 0.030147 0.134328
C13   C     C_R   0.024899 0.135048 0.329472 -0.229960
C14   C     C_R   0.975101 0.864950 0.670528 -0.229961
C15   C     C_R   0.474931 0.632717 0.170887 -0.230551
C16   C     C_R   0.525068 0.367279 0.829113 -0.230553
C17   C     C_R   0.101751 0.187846 0.308652 -0.167608
C18   C     C_R   0.898250 0.812151 0.691347 -0.167608
C19   C     C_R   0.397992 0.684386 0.191890 -0.166654
C20   C     C_R   0.602008 0.315608 0.808111 -0.166653
C21   C     C_R   0.168012 0.175518 0.371573 0.439970
C22   C     C_R   0.831989 0.824479 0.628427 0.439971
C23   C     C_R   0.331726 0.672100 0.128972 0.440810
C24   C     C_R   0.668274 0.327898 0.871029 0.440812
C25   C     C_R   0.155879 0.109127 0.456299 -0.286887
C26   C     C_R   0.844121 0.890872 0.543701 -0.286889
C27   C     C_R   0.343940 0.606864 0.044061 -0.287683
C28   C     C_R   0.656060 0.393137 0.955939 -0.287687
C29   C     C_R   0.078245 0.055718 0.479323 0.069902
C30   C     C_R   0.921755 0.944282 0.520677 0.069902
C31   C     C_R   0.421656 0.554557 0.020864 0.069826
C32   C     C_R   0.578343 0.445444 0.979136 0.069827
C33   C     C_R   0.011412 0.068860 0.414556 0.121450
C34   C     C_R   0.988587 0.931140 0.585444 0.121450
C35   C     C_R   0.488495 0.567678 0.085629 0.121210
C36   C     C_R   0.511505 0.432321 0.914371 0.121209
C37   C     C_R   0.066893 0.986887 0.564942 -0.242849
C38   C     C_R   0.933107 0.013113 0.435058 -0.242849
C39   C     C_R   0.433102 0.486896 0.935061 -0.242561
C40   C     C_R   0.566898 0.513104 0.064939 -0.242561
C41   C     C_1   0.416030 0.986174 0.581506 -0.235636
C42   C     C_1   0.583969 0.013825 0.418494 -0.235636
C43   C     C_1   0.083963 0.486170 0.918486 -0.235664
C44   C     C_1   0.916038 0.513830 0.081514 -0.235663
H9    H     H_    0.976326 0.145994 0.277652 0.143955
H10   H     H_    0.023674 0.854004 0.722347 0.143956
H11   H     H_    0.523519 0.643634 0.222695 0.143867
H12   H     H_    0.476480 0.356360 0.777305 0.143868
N1    N     N_R   0.752531 0.770686 0.650590 0.249039
O21   O     O_R   0.741074 0.712698 0.729721 -0.370349
O22   O     O_R   0.690856 0.778861 0.591913 -0.413433
N2    N     N_R   0.247470 0.229308 0.349409 0.249039
O23   O     O_R   0.258927 0.287282 0.270277 -0.370351
O24   O     O_R   0.309143 0.221146 0.408088 -0.413434
N3    N     N_R   0.747810 0.275184 0.848683 0.249376
O25   O     O_R   0.759246 0.217171 0.769551 -0.369970
O26   O     O_R   0.809573 0.284299 0.907211 -0.413907
N4    N     N_R   0.252189 0.724815 0.151317 0.249375
O27   O     O_R   0.240751 0.782788 0.230455 -0.369969
O28   O     O_R   0.190431 0.715744 0.092783 -0.413907

loop_
_geom_bond_atom_site_label_1
_geom_bond_atom_site_label_2
_geom_bond_distance
_ccdc_geom_bond_type
C26   C30   1.416325 A    
N3    O25   1.301814 A    
C23   C27   1.403820 A    
C9    C10   1.438316 S    
C8    C37   1.489730 S    
O10   C6    1.335477 A    
C15   H11   1.081832 S    
N1    O21   1.301812 A    
H5    C17   1.082711 S    
C30   C38   1.419717 A    
C18   C22   1.398613 A    
C21   N2    1.441167 S    
O18   V4    1.776745 S    
C32   C36   1.423378 A    
O19   V1    1.776745 S    
N2    O24   1.301539 A    
C14   C34   1.413395 A    
C23   N4    1.441168 S    
O5    V1    1.976652 S    
O12   V4    2.005480 S    
O15   V3    1.959828 S    
C34   C37   1.419640 A    
C33   C38   1.419638 A    
O14   V2    1.959834 S    
C1    O15   1.327551 A    
C35   C40   1.419595 A    
C2    O16   1.327552 A    
C12   C44   1.221969 T    
H8    C20   1.082688 S    
N1    O22   1.301540 A    
O17   V3    1.776746 S    
O6    V2    1.976652 S    
O11   C7    1.335474 A    
O5    C1    1.330567 A    
O7    C3    1.330571 A    
H6    C18   1.082712 S    
O8    C4    1.330572 A    
O1    C5    1.331887 A    
C6    C39   1.489729 S    
H3    C27   1.081054 S    
C15   C35   1.413343 A    
O4    C8    1.331912 A    
C11   C43   1.221969 T    
C31   C35   1.423377 A    
C10   C42   1.221968 T    
C30   C34   1.423339 A    
C4    C41   1.462557 S    
N2    O23   1.301808 A    
H7    C19   1.082685 S    
C14   H10   1.081800 S    
C21   C25   1.403763 A    
C24   N3    1.441165 S    
C15   C19   1.392547 A    
O12   C8    1.335474 A    
C19   C23   1.398624 A    
C24   C28   1.403819 A    
C11   C12   1.438313 S    
O2    V4    1.995392 S    
O6    C2    1.330567 A    
N4    O28   1.301533 A    
C1    C44   1.462559 S    
C13   C17   1.392560 A    
O2    C6    1.331887 A    
C5    C40   1.489733 S    
O9    V1    2.005470 S    
C16   C36   1.413343 A    
C7    C38   1.489731 S    
O11   V3    2.005480 S    
O4    V2    1.995386 S    
N3    O26   1.301532 A    
C13   C33   1.413396 A    
C22   C26   1.403764 A    
C29   C37   1.419717 A    
C4    O14   1.327546 A    
H2    C26   1.081013 S    
C31   C39   1.419685 A    
C25   C29   1.416323 A    
C14   C18   1.392558 A    
C27   C31   1.416292 A    
C28   C32   1.416291 A    
O9    C5    1.335479 A    
C2    C43   1.462558 S    
C16   H12   1.081828 S    
O20   V2    1.776745 S    
O10   V2    2.005471 S    
N4    O27   1.301808 A    
C3    O13   1.327546 A    
C36   C39   1.419595 A    
C17   C21   1.398614 A    
O3    C7    1.331912 A    
O16   V4    1.959827 S    
H1    C25   1.081015 S    
C32   C40   1.419684 A    
O1    V3    1.995392 S    
C9    C41   1.221968 T    
H4    C28   1.081052 S    
C29   C33   1.423342 A    
C16   C20   1.392547 A    
C3    C42   1.462559 S    
O13   V1    1.959834 S    
O3    V1    1.995387 S    
O7    V3    1.976642 S    
C13   H9    1.081802 S    
O8    V4    1.976639 S    
C22   N1    1.441167 S    
C20   C24   1.398626 A    
