data_str_m9_o16_o17_f0_sra.sym.43
_audit_creation_date              2012-12-11T15:07:34-0500
_audit_creation_method            fapswitch 2.2
_symmetry_space_group_name_H-M    P1
_symmetry_Int_Tables_number       1
_space_group_crystal_system       triclinic
_cell_length_a                    21.649407
_cell_length_b                    7.200466
_cell_length_c                    18.754105
_cell_angle_alpha                 89.833251
_cell_angle_beta                  95.491346
_cell_angle_gamma                 89.832202
_cell_volume                      2910.054669

loop_
_atom_site_label
_atom_site_type_symbol
_atom_type_description
_atom_site_fract_x
_atom_site_fract_y
_atom_site_fract_z
_atom_type_partial_charge
O1    O     O_R   0.449650 0.506500 0.414480 -0.543917
O2    O     O_R   0.550350 0.006500 0.585520 -0.525905
O3    O     O_R   0.432010 0.173150 0.560250 -0.517925
O4    O     O_R   0.567990 0.673150 0.439750 -0.510370
C1    C     C_R   0.416008 0.344901 0.580963 0.777113
C2    C     C_R   0.583483 0.844196 0.418317 0.777367
O5    O     O_R   0.442320 0.176650 0.413480 -0.525470
O6    O     O_R   0.557680 0.676650 0.586520 -0.543696
O7    O     O_R   0.560730 0.008380 0.437700 -0.524055
O8    O     O_R   0.439270 0.508380 0.562300 -0.516921
C3    C     C_R   0.426521 0.346069 0.389382 0.741435
C4    C     C_R   0.573817 0.845446 0.610313 0.741177
O9    O     O_3   0.538840 0.339860 0.508120 -0.356680
O10   O     O_3   0.461160 0.839860 0.491880 -0.357292
V1    V     V_3+5 0.492800 0.064220 0.498490 1.610580
V2    V     V_3+5 0.507200 0.564220 0.501510 1.609416
C5    C     C_R   0.876636 0.014399 0.693381 0.424277
C6    C     C_R   0.119098 0.382447 0.307721 0.426474
H1    H     H_    0.962578 0.034939 0.759733 0.169104
H2    H     H_    0.033257 0.416691 0.241840 0.179118
H3    H     H_    0.794401 0.052516 0.579571 0.229252
H4    H     H_    0.197169 0.292312 0.421108 0.228165
C7    C     C_R   0.888620 0.944957 0.820016 -0.111078
C8    C     C_R   0.111451 0.435858 0.179917 -0.112552
C9    C     C_R   0.592021 0.787306 0.738418 -0.178450
C10   C     C_R   0.412952 0.395513 0.260340 -0.181700
C11   C     C_R   0.628437 0.768296 0.802847 -0.108688
C12   C     C_R   0.378511 0.431226 0.195620 -0.106043
C13   C     C_R   0.691307 0.809252 0.807686 -0.120522
C14   C     C_R   0.314095 0.434021 0.190987 -0.118333
C15   C     C_R   0.720030 0.874690 0.747806 0.057945
C16   C     C_R   0.281563 0.396092 0.251290 0.057186
C17   C     C_R   0.682055 0.899602 0.680884 -0.008954
C18   C     C_R   0.317118 0.352846 0.318309 -0.007688
C19   C     C_R   0.785468 0.915076 0.752806 0.032196
C20   C     C_R   0.214756 0.401384 0.246734 0.032121
C21   C     C_R   0.812396 0.975221 0.690533 -0.043665
C22   C     C_R   0.184579 0.371942 0.309859 -0.046704
C23   C     C_R   0.774784 0.001113 0.626757 -0.114357
C24   C     C_R   0.219756 0.324857 0.373583 -0.110009
C25   C     C_R   0.711274 0.969790 0.621694 0.308848
C26   C     C_R   0.283928 0.307708 0.377704 0.315899
C27   C     C_R   0.825305 0.900615 0.817741 -0.193235
C28   C     C_R   0.176488 0.431888 0.181480 -0.190369
C29   C     C_R   0.913748 0.000171 0.757845 -0.168172
C30   C     C_R   0.083432 0.413718 0.243099 -0.169596
C31   C     C_R   0.617132 0.850931 0.676866 -0.062235
C32   C     C_R   0.383980 0.358020 0.322306 -0.058833
H5    H     H_    0.808628 0.861544 0.867920 0.106117
H6    H     H_    0.195311 0.446817 0.130659 0.106286
H7    H     H_    0.543442 0.749404 0.736337 0.101673
H8    H     H_    0.463148 0.400567 0.262396 0.100432
H9    H     H_    0.716186 0.786187 0.859410 0.112567
H10   H     H_    0.291187 0.469039 0.139214 0.113909
H11   H     H_    0.607823 0.717971 0.849582 0.127723
H12   H     H_    0.402125 0.461298 0.148574 0.127572
C33   C     C_R   0.637166 0.015279 0.325499 -0.201726
C34   C     C_R   0.355897 0.214621 0.677913 -0.231253
C35   C     C_R   0.633166 0.855826 0.368585 -0.165154
C36   C     C_R   0.365027 0.357871 0.628889 -0.153641
C37   C     C_R   0.677259 0.712281 0.364433 0.607020
C38   C     C_R   0.326083 0.516237 0.627040 0.617570
C39   C     C_R   0.724590 0.728689 0.318099 -0.066745
C40   C     C_R   0.279754 0.532833 0.674514 -0.074374
C41   C     C_R   0.727611 0.888673 0.274838 -0.015801
C42   C     C_R   0.272113 0.390520 0.724670 -0.012089
C43   C     C_R   0.683662 0.032265 0.278705 0.031967
C44   C     C_R   0.310203 0.230597 0.726097 0.034954
C45   C     C_R   0.769414 0.588577 0.314811 -0.116848
C46   C     C_R   0.240729 0.689295 0.672470 -0.141909
C47   C     C_R   0.816564 0.604716 0.269061 0.403289
C48   C     C_R   0.194726 0.706600 0.719697 0.381441
C49   C     C_R   0.819130 0.762290 0.224310 0.074266
C50   C     C_R   0.187602 0.567321 0.771481 0.073914
C51   C     C_R   0.774664 0.905459 0.227729 -0.026840
C52   C     C_R   0.226253 0.407796 0.773352 -0.027338
C53   C     C_R   0.777184 0.065830 0.184208 0.031061
C54   C     C_R   0.218861 0.264521 0.823501 0.030801
C55   C     C_R   0.732864 0.207576 0.188580 0.610368
C56   C     C_R   0.257387 0.106472 0.824669 0.631758
C57   C     C_R   0.686806 0.190937 0.235630 -0.232414
C58   C     C_R   0.302373 0.089795 0.776224 -0.226592
C59   C     C_R   0.864899 0.780433 0.176287 -0.107073
C60   C     C_R   0.142522 0.582123 0.820820 -0.077672
C61   C     C_R   0.867559 0.938594 0.132340 -0.126123
C62   C     C_R   0.134429 0.439221 0.870253 -0.131100
C63   C     C_R   0.823857 0.081474 0.137195 -0.101420
C64   C     C_R   0.172730 0.280887 0.871015 -0.129057
H13   H     H_    0.603558 0.126522 0.327797 0.154020
H14   H     H_    0.385423 0.092469 0.679789 0.151292
H15   H     H_    0.768168 0.465601 0.348081 0.218016
H16   H     H_    0.245581 0.799020 0.633751 0.227740
H17   H     H_    0.899136 0.671808 0.173016 0.173673
H18   H     H_    0.112476 0.702610 0.820191 0.175650
H19   H     H_    0.825738 0.203635 0.103596 0.179595
H20   H     H_    0.166706 0.170469 0.909111 0.177569
H21   H     H_    0.653426 0.302591 0.238276 0.151021
H22   H     H_    0.331128 0.966104 0.777921 0.143454
O11   O     O_R   0.060820 0.290050 0.937800 -0.537888
O12   O     O_R   0.939180 0.790050 0.062200 -0.541945
O13   O     O_R   0.057690 0.616620 0.086540 -0.535734
O14   O     O_R   0.942310 0.116620 0.913460 -0.538152
C65   C     C_R   0.071588 0.447997 0.111916 0.710563
C66   C     C_R   0.928532 0.949070 0.888007 0.708519
O15   O     O_R   0.068010 0.619890 0.939770 -0.537540
O16   O     O_R   0.931990 0.119890 0.060230 -0.536273
O17   O     O_R   0.949640 0.787940 0.914460 -0.533100
O18   O     O_R   0.050360 0.287940 0.085540 -0.532691
C67   C     C_R   0.084501 0.451025 0.919323 0.698078
C68   C     C_R   0.916065 0.951130 0.081445 0.699964
O19   O     O_3   0.961210 0.453080 0.991940 -0.376521
O20   O     O_3   0.038790 0.953080 0.008060 -0.374979
V3    V     V_3+5 0.007200 0.728820 0.001500 1.471767
V4    V     V_3+5 0.992800 0.228820 0.998500 1.472396
F1    F     F_    0.675324 0.558956 0.406636 -0.656705
F2    F     F_    0.332373 0.653106 0.578153 -0.655623
Cl1   Cl    Cl    0.871885 0.424016 0.270594 -0.604959
Cl2   Cl    Cl    0.145994 0.903672 0.710325 -0.586598
F3    F     F_    0.734088 0.362851 0.147463 -0.698978
F4    F     F_    0.251082 0.966542 0.872117 -0.698658
Cl3   Cl    Cl    0.913249 0.086522 0.617842 -0.499031
Cl4   Cl    Cl    0.078801 0.353135 0.384468 -0.486322
Cl5   Cl    Cl    0.673189 0.039301 0.539435 -0.613836
Cl6   Cl    Cl    0.316609 0.206677 0.457668 -0.611554

loop_
_geom_bond_atom_site_label_1
_geom_bond_atom_site_label_2
_ccdc_geom_bond_type
C42   C44   A    
C39   C41   A    
O12   C68   A    
C7    C29   A    
C11   C13   A    
C58   H22   S    
O1    C3    A    
O2    C4    A    
O11   V4    S    
C64   H20   S    
C12   H12   S    
C26   Cl6   S    
C23   C25   A    
O5    C3    A    
C14   H10   S    
C50   C52   A    
O16   V4    S    
C16   C20   A    
O15   V3    S    
C19   C21   A    
C5    C29   A    
C54   C56   A    
C33   C35   A    
C28   H6    S    
C59   H17   S    
C2    O7    A    
C7    C27   A    
C36   C38   A    
O18   V4    S    
C45   C47   A    
O17   V3    S    
C38   C40   A    
C39   C45   A    
C18   C26   A    
C41   C43   A    
C55   F3    S    
C37   F1    S    
C15   C17   A    
C65   O18   A    
C40   C46   A    
C14   C16   A    
C19   C27   A    
C9    C31   A    
C10   C32   A    
C61   C63   A    
C42   C52   A    
O6    V2    S    
C49   C51   A    
C3    C32   S    
C33   C43   A    
C4    C31   S    
C6    C30   A    
O20   V3    S    
C53   C55   A    
C35   C37   A    
C47   Cl1   S    
C62   C64   A    
C5    Cl3   S    
C62   C67   S    
C17   C25   A    
C48   C50   A    
C61   C68   S    
C50   C60   A    
C47   C49   A    
C27   H5    S    
C5    C21   A    
O5    V1    S    
C63   H19   S    
C40   C42   A    
O4    V2    S    
C9    H7    S    
C38   F2    S    
O14   V4    S    
C10   H8    S    
C51   C53   A    
C7    C66   S    
H3    C23   S    
O6    C4    A    
H4    C24   S    
C37   C39   A    
O1    V2    S    
C60   H18   S    
O14   C66   A    
O2    V1    S    
C34   H14   S    
C33   H13   S    
C6    Cl4   S    
C56   C58   A    
C59   C61   A    
C43   C57   A    
C17   C31   A    
C15   C19   A    
C56   F4    S    
C20   C28   A    
O4    C2    A    
C18   C32   A    
O3    V1    S    
C55   C57   A    
O16   C68   A    
C54   C64   A    
O15   C67   A    
C1    C36   S    
C2    C35   S    
C46   H16   S    
O12   V3    S    
C52   C54   A    
O3    C1    A    
H1    C29   S    
C9    C11   A    
C10   C12   A    
C41   C51   A    
O13   C65   A    
C8    C65   S    
C44   C58   A    
C25   Cl5   S    
C20   C22   A    
C6    C22   A    
C8    C30   A    
C12   C14   A    
C21   C23   A    
O8    V2    S    
C22   C24   A    
C34   C44   A    
C13   H9    S    
C8    C28   A    
C24   C26   A    
C57   H21   S    
O19   V4    S    
C11   H11   S    
O7    V1    S    
O13   V3    S    
C1    O8    A    
C53   C63   A    
C13   C15   A    
O9    V2    S    
C48   Cl2   S    
O10   V1    S    
C60   C62   A    
C46   C48   A    
C45   H15   S    
C34   C36   A    
C49   C59   A    
C66   O17   A    
H2    C30   S    
C16   C18   A    
O11   C67   A    
