data_str_m3_o5_o29_f0_pcu.sym.76
_audit_creation_date              2013-03-05T16:48:44-0500
_audit_creation_method            fapswitch 2.2
_symmetry_space_group_name_H-M    P1
_symmetry_Int_Tables_number       1
_space_group_crystal_system       triclinic
_cell_length_a                    27.796962
_cell_length_b                    8.939968
_cell_length_c                    8.073024
_cell_angle_alpha                 90.007564
_cell_angle_beta                  90.007181
_cell_angle_gamma                 89.998238
_cell_volume                      2006.17832453

loop_
_atom_site_label
_atom_site_type_symbol
_atom_site_description
_atom_site_fract_x
_atom_site_fract_y
_atom_site_fract_z
_atom_type_partial_charge
O1    O     O_R   0.500000 0.285350 0.636850 -0.624357
O2    O     O_R   0.500000 0.714650 0.363150 -0.624593
O3    O     O_R   0.500000 0.714650 0.636850 -0.624216
O4    O     O_R   0.500000 0.285350 0.363150 -0.624418
C1    C     C_R   0.500000 0.217853 0.499993 0.920339
C2    C     C_R   0.499997 0.782147 0.500007 0.920186
O5    O     O_R   0.428760 0.500000 0.636860 -0.577856
O6    O     O_R   0.571240 0.500000 0.363140 -0.578142
O7    O     O_R   0.571240 0.500000 0.636860 -0.577876
O8    O     O_R   0.428760 0.500000 0.363140 -0.578528
C3    C     C_R   0.405543 0.500080 0.499991 0.917520
C4    C     C_R   0.594459 0.499963 0.500012 0.918301
Zn1   Zn    Zn3+2 0.500000 0.500000 0.682780 1.014813
Zn2   Zn    Zn3+2 0.500000 0.500000 0.317220 1.014284
C5    C     C_R   0.176913 0.370185 0.534188 0.551037
C6    C     C_R   0.823095 0.629738 0.534528 0.550967
C7    C     C_R   0.176864 0.630267 0.465361 0.551243
C8    C     C_R   0.823126 0.369644 0.465684 0.551041
O9    O     O_2   0.202484 0.244806 0.564536 -0.483229
O10   O     O_2   0.797532 0.755123 0.564931 -0.483237
O11   O     O_2   0.202387 0.755718 0.434968 -0.483051
O12   O     O_2   0.797593 0.244195 0.435309 -0.483104
N1    N     N_R   0.200579 0.500266 0.499781 -0.346615
N2    N     N_R   0.799422 0.499661 0.500116 -0.346642
C9    C     C_R   0.276705 0.516698 0.351135 -0.207122
C10   C     C_R   0.723307 0.483605 0.351326 -0.207926
C11   C     C_R   0.276685 0.484085 0.648639 -0.207403
C12   C     C_R   0.723311 0.515688 0.648870 -0.208008
C13   C     C_R   0.326833 0.520645 0.349908 0.427496
C14   C     C_R   0.673172 0.479676 0.350001 0.427403
C15   C     C_R   0.326823 0.480085 0.650010 0.428132
C16   C     C_R   0.673172 0.519827 0.650147 0.427636
C17   C     C_R   0.251857 0.500346 0.499848 0.169031
C18   C     C_R   0.748145 0.499618 0.500107 0.169930
C19   C     C_R   0.101155 0.500106 0.499809 -0.203708
C20   C     C_R   0.898844 0.499796 0.500043 -0.203675
C21   C     C_R   0.126445 0.366687 0.535215 -0.138150
C22   C     C_R   0.873564 0.633225 0.535495 -0.138158
C23   C     C_R   0.126392 0.633606 0.464376 -0.137968
C24   C     C_R   0.873597 0.366291 0.464647 -0.138050
C25   C     C_R   0.100579 0.234893 0.571987 0.595679
C26   C     C_R   0.899439 0.765026 0.572219 0.595698
C27   C     C_R   0.100475 0.765327 0.427664 0.595563
C28   C     C_R   0.899506 0.234562 0.427889 0.595574
C29   C     C_R   0.352529 0.500278 0.499971 -0.290198
C30   C     C_R   0.647475 0.499820 0.500052 -0.289134
H1    H     H_    0.256907 0.473445 0.763683 0.162259
H2    H     H_    0.743085 0.526097 0.763952 0.161832
H3    H     H_    0.256959 0.527582 0.236032 0.162775
H4    H     H_    0.743072 0.473085 0.236253 0.162045
C31   C     C_R   0.974875 0.363262 0.488238 0.017747
C32   C     C_R   0.025121 0.636635 0.488192 0.017791
C33   C     C_R   0.974833 0.636560 0.511668 0.017603
C34   C     C_R   0.025170 0.363341 0.511586 0.017620
C35   C     C_R   0.949570 0.499872 0.499982 0.070274
C36   C     C_R   0.050430 0.500027 0.499854 0.070288
C37   C     C_R   0.949339 0.232052 0.449623 -0.343492
C38   C     C_R   0.050647 0.767839 0.449534 -0.343558
C39   C     C_R   0.949264 0.767689 0.550365 -0.343311
C40   C     C_R   0.050748 0.232220 0.550218 -0.343397
H5    H     H_    0.967711 0.127575 0.426785 0.153164
H6    H     H_    0.032268 0.872317 0.426795 0.153126
H7    H     H_    0.967606 0.872219 0.573184 0.153286
H8    H     H_    0.032412 0.127694 0.573064 0.153285
C41   C     C_1   0.499998 0.065147 0.499989 -0.198079
C42   C     C_1   0.499997 0.934852 0.500009 -0.198122
N3    N     N_1   0.500000 0.500000 0.073640 -0.019005
N4    N     N_1   0.500000 0.500000 0.926360 -0.018927
O13   O     O_3   0.350468 0.465320 0.799857 -0.575810
C43   C     C_3   0.349613 0.313454 0.847075 -0.175192
H9    H     H_    0.365998 0.240650 0.750286 0.131140
H10   H     H_    0.312379 0.275795 0.875674 0.155590
H11   H     H_    0.371321 0.300362 0.961468 0.207314
O14   O     O_3   0.649497 0.534573 0.799911 -0.576880
C44   C     C_3   0.650638 0.686219 0.847842 -0.175030
H12   H     H_    0.634677 0.759825 0.750990 0.131074
H13   H     H_    0.687903 0.722741 0.877664 0.155942
H14   H     H_    0.628694 0.699482 0.961659 0.207539
O15   O     O_3   0.350439 0.535934 0.200091 -0.576069
C45   C     C_3   0.350410 0.688483 0.155403 -0.176255
H15   H     H_    0.371630 0.701656 0.039937 0.207119
H16   H     H_    0.367794 0.758777 0.252482 0.131637
H17   H     H_    0.313302 0.729136 0.129672 0.155434
O16   O     O_3   0.649523 0.464970 0.200186 -0.576920
C46   C     C_3   0.650217 0.313049 0.153217 -0.175688
H18   H     H_    0.628563 0.300060 0.038682 0.207671
H19   H     H_    0.633665 0.240607 0.249977 0.131378
H20   H     H_    0.687430 0.274875 0.125011 0.155686
O17   O     O_3   0.124098 0.105483 0.619307 -0.498350
C47   C     C_3   0.116056 0.080678 0.789556 -0.253564
H21   H     H_    0.077785 0.052387 0.814608 0.122963
H22   H     H_    0.127390 0.178701 0.865311 0.140035
H23   H     H_    0.138114 0.983629 0.829067 0.196279
O18   O     O_3   0.875932 0.894459 0.619550 -0.498357
C48   C     C_3   0.883986 0.919276 0.789804 -0.253692
H24   H     H_    0.922266 0.947463 0.814880 0.122975
H25   H     H_    0.872626 0.821298 0.865542 0.140081
H26   H     H_    0.861958 0.016394 0.829309 0.196180
O19   O     O_3   0.123949 0.894833 0.380424 -0.498453
C49   C     C_3   0.115768 0.919981 0.210312 -0.253787
H27   H     H_    0.127020 0.822086 0.134212 0.140016
H28   H     H_    0.137810 0.017068 0.170859 0.196201
H29   H     H_    0.077481 0.948409 0.185660 0.123069
O20   O     O_3   0.876028 0.105052 0.380646 -0.498488
C50   C     C_3   0.884071 0.080156 0.210406 -0.253770
H30   H     H_    0.872734 0.178132 0.134606 0.140047
H31   H     H_    0.862015 0.983082 0.170932 0.196186
H32   H     H_    0.922344 0.051854 0.185374 0.123038

loop_
_geom_bond_atom_site_label_1
_geom_bond_atom_site_label_2
_geom_bond_distance
_ccdc_geom_bond_type
C38   H6    1.080315 S    
O5    Zn1   2.014611 S    
C25   O17   1.382685 S    
C48   H24   1.112058 S    
O3    C2    1.258863 A    
C33   C39   1.406021 A    
C48   H26   1.109249 S    
C34   C40   1.406015 A    
C46   H18   1.109309 S    
C11   C17   1.392888 A    
O5    C3    1.279541 A    
C50   H31   1.109268 S    
C7    N1    1.364727 A    
C2    C42   1.365184 S    
C21   C25   1.411912 A    
O1    C1    1.258822 A    
C19   C21   1.413697 A    
C27   O19   1.382709 S    
C22   C26   1.411908 A    
O13   C43   1.410425 S    
C10   H4    1.083419 S    
C16   O14   1.382905 S    
C7    C23   1.403282 A    
O7    Zn1   2.014699 S    
C5    C21   1.403249 A    
C20   C24   1.413710 A    
C8    C24   1.403283 A    
C27   C38   1.396470 A    
C5    O9    1.349677 S    
C10   C18   1.392702 A    
N1    C17   1.425370 S    
Zn2   N3    1.966427 S    
C43   H9    1.114252 S    
C31   C37   1.406014 A    
O3    Zn1   1.954507 S    
C6    O10   1.349667 S    
C46   H19   1.114237 S    
C12   C18   1.392718 A    
C6    N2    1.364704 A    
C26   O18   1.382678 S    
C9    C13   1.393868 A    
O2    C2    1.258819 A    
C45   H17   1.113178 S    
O20   C50   1.410096 S    
C44   H14   1.109291 S    
C9    H3    1.083559 S    
C33   C35   1.412549 A    
C28   O20   1.382673 S    
C50   H32   1.112074 S    
C34   C36   1.412546 A    
O14   C44   1.410162 S    
C11   C15   1.394179 A    
N3    N4    1.188994 T    
C12   C16   1.394236 A    
O16   C46   1.410184 S    
C4    C30   1.473698 S    
O8    Zn2   2.014702 S    
C45   H15   1.109447 S    
C23   C27   1.411925 A    
C49   H29   1.112099 S    
N2    C18   1.425323 S    
C13   C29   1.418040 A    
C19   C23   1.413709 A    
C44   H12   1.114114 S    
C47   H22   1.114023 S    
O19   C49   1.410054 S    
C13   O15   1.382878 S    
C15   O13   1.382997 S    
C28   C37   1.396438 A    
O6    C4    1.279587 A    
C43   H11   1.109307 S    
C49   H28   1.109219 S    
C44   H13   1.112423 S    
C32   C38   1.406011 A    
C1    C41   1.365185 S    
C10   C14   1.394098 A    
C8    N2    1.364705 A    
C3    C29   1.473615 S    
O1    Zn1   1.954411 S    
C32   C33   1.410672 A    
C47   H23   1.109253 S    
C46   H20   1.112807 S    
C11   H1    1.083526 S    
C12   H2    1.083415 S    
O6    Zn2   2.014608 S    
C19   C36   1.410015 A    
C8    O12   1.349658 S    
C16   C30   1.417821 A    
C14   C30   1.417815 A    
C25   C40   1.396429 A    
O4    C1    1.258861 A    
C26   C39   1.396421 A    
C48   H25   1.114004 S    
C37   H5    1.080336 S    
C50   H30   1.114026 S    
C39   H7    1.080336 S    
C40   H8    1.080334 S    
C31   C34   1.410663 A    
C20   C22   1.413698 A    
O4    Zn2   1.954508 S    
C47   H21   1.112063 S    
C5    N1    1.364715 A    
C49   H27   1.114048 S    
C45   H16   1.114648 S    
C31   C35   1.412540 A    
C14   O16   1.382745 S    
O18   C48   1.410084 S    
O2    Zn2   1.954411 S    
O7    C4    1.279553 A    
C7    O11   1.349650 S    
O8    C3    1.279560 A    
O15   C45   1.410743 S    
C24   C28   1.411920 A    
C41   C42   1.164834 T    
C15   C29   1.417975 A    
C9    C17   1.392864 A    
C20   C35   1.410023 A    
C43   H10   1.112628 S    
O17   C47   1.410093 S    
C32   C36   1.412531 A    
C6    C22   1.403247 A    
Zn1   N4    1.966427 S    
