data_str_m9_o18_o19_f0_sra.sym.20
_audit_creation_date              2012-12-11T15:27:35-0500
_audit_creation_method            fapswitch 2.2
_symmetry_space_group_name_H-M    P1
_symmetry_Int_Tables_number       1
_space_group_crystal_system       triclinic
_cell_length_a                    23.369049
_cell_length_b                    7.300065
_cell_length_c                    15.099326
_cell_angle_alpha                 89.714315
_cell_angle_beta                  108.611019
_cell_angle_gamma                 90.250299
_cell_volume                      2441.13712955

loop_
_atom_site_label
_atom_site_type_symbol
_atom_type_description
_atom_site_fract_x
_atom_site_fract_y
_atom_site_fract_z
_atom_type_partial_charge
O1    O     O_R   0.711000 0.648610 0.341170 -0.537876
O2    O     O_R   0.289000 0.351390 0.658830 -0.537883
O3    O     O_R   0.789000 0.148610 0.158830 -0.525360
O4    O     O_R   0.211000 0.851390 0.841170 -0.525370
O5    O     O_R   0.829650 0.322030 0.336650 -0.526923
O6    O     O_R   0.170350 0.677970 0.663350 -0.526928
O7    O     O_R   0.670350 0.822030 0.163350 -0.536203
O8    O     O_R   0.329650 0.177970 0.836650 -0.536211
C1    C     C_R   0.854291 0.485832 0.356765 0.726958
C2    C     C_R   0.145709 0.514168 0.643235 0.726952
C3    C     C_R   0.645713 0.985684 0.143243 0.725993
C4    C     C_R   0.354287 0.014316 0.856757 0.725999
O9    O     O_R   0.713950 0.319280 0.352070 -0.528552
O10   O     O_R   0.286050 0.680720 0.647930 -0.528541
O11   O     O_R   0.786050 0.819280 0.147930 -0.540151
O12   O     O_R   0.213950 0.180720 0.852070 -0.540145
O13   O     O_R   0.672470 0.142870 0.174360 -0.523673
O14   O     O_R   0.327530 0.857130 0.825640 -0.523669
O15   O     O_R   0.827530 0.642870 0.325640 -0.533644
O16   O     O_R   0.172470 0.357130 0.674360 -0.533635
C5    C     C_R   0.701571 0.486852 0.375502 0.746317
C6    C     C_R   0.298431 0.513149 0.624500 0.746314
C7    C     C_R   0.798459 0.987976 0.124574 0.745858
C8    C     C_R   0.201541 0.012024 0.875426 0.745865
O17   O     O_3   0.736530 0.478650 0.191680 -0.378164
O18   O     O_3   0.263470 0.521350 0.808320 -0.378169
O19   O     O_3   0.763470 0.978650 0.308320 -0.379542
O20   O     O_3   0.236530 0.021350 0.691680 -0.379537
V1    V     V_3+5 0.752500 0.206170 0.260820 1.569962
V2    V     V_3+5 0.247500 0.793830 0.739180 1.569968
V3    V     V_3+5 0.747500 0.706170 0.239180 1.537838
V4    V     V_3+5 0.252500 0.293830 0.760820 1.537836
C9    C     C_R   0.829696 0.998514 0.055123 -0.079203
C10   C     C_R   0.170305 0.001489 0.944879 -0.079200
C11   C     C_R   0.670365 0.491905 0.445063 -0.079279
C12   C     C_R   0.329636 0.508097 0.554939 -0.079283
C13   C     C_R   0.824198 0.052982 0.895118 -0.077902
C14   C     C_R   0.175803 0.946994 0.104881 -0.077906
C15   C     C_R   0.676316 0.468964 0.606988 -0.078783
C16   C     C_R   0.323682 0.530987 0.393008 -0.078780
C17   C     C_R   0.795691 0.016533 0.961135 -0.202472
C18   C     C_R   0.204311 0.983418 0.038863 -0.202481
C19   C     C_R   0.704489 0.492120 0.539457 -0.204265
C20   C     C_R   0.295513 0.507809 0.460543 -0.204246
C21   C     C_R   0.893133 0.004776 0.083269 0.188376
C22   C     C_R   0.106868 0.995289 0.916735 0.188381
C23   C     C_R   0.607010 0.480376 0.417393 0.189168
C24   C     C_R   0.392990 0.519699 0.582605 0.189157
C25   C     C_R   0.922723 0.009334 0.014105 0.016017
C26   C     C_R   0.077278 0.990731 0.985902 0.016015
C27   C     C_R   0.577410 0.489036 0.486445 0.016161
C28   C     C_R   0.422589 0.511042 0.513553 0.016160
C29   C     C_R   0.887551 0.056117 0.921027 0.023683
C30   C     C_R   0.112450 0.943918 0.078978 0.023681
C31   C     C_R   0.613022 0.460697 0.581401 0.023146
C32   C     C_R   0.386976 0.539331 0.418596 0.023146
C33   C     C_R   0.985813 0.976768 0.033791 0.013802
C34   C     C_R   0.014190 0.023314 0.966220 0.013798
C35   C     C_R   0.513957 0.516891 0.465217 0.012949
C36   C     C_R   0.486042 0.483209 0.534784 0.012952
C37   C     C_R   0.979306 0.110726 0.883558 -0.116259
C38   C     C_R   0.020695 0.889365 0.116456 -0.116259
C39   C     C_R   0.521856 0.412649 0.621458 -0.115344
C40   C     C_R   0.478140 0.587445 0.378542 -0.115352
C41   C     C_R   0.916661 0.114397 0.857533 0.270052
C42   C     C_R   0.083340 0.885666 0.142476 0.270039
C43   C     C_R   0.584513 0.414767 0.647531 0.269269
C44   C     C_R   0.415482 0.585277 0.352465 0.269280
H1    H     H_    0.796142 0.079224 0.823991 0.187408
H2    H     H_    0.203860 0.920720 0.176004 0.187416
H3    H     H_    0.704605 0.456619 0.679053 0.188139
H4    H     H_    0.295391 0.543282 0.320941 0.188131
H5    H     H_    0.000187 0.179122 0.838291 0.197504
H6    H     H_    0.999814 0.820992 0.161730 0.197501
H7    H     H_    0.501724 0.353071 0.669965 0.197755
H8    H     H_    0.498269 0.647039 0.330035 0.197760
C45   C     C_1   0.416787 0.007239 0.918709 -0.104323
C46   C     C_1   0.583213 0.992761 0.081290 -0.104326
C47   C     C_1   0.083213 0.506897 0.581294 -0.104739
C48   C     C_1   0.916787 0.493103 0.418706 -0.104737
C49   C     C_1   0.469153 0.002527 0.969945 0.079895
C50   C     C_1   0.530847 0.997472 0.030055 0.079894
C51   C     C_1   0.030846 0.502363 0.530057 0.080757
C52   C     C_1   0.969154 0.497636 0.469943 0.080757
Br1   Br    Br    0.873881 0.215515 0.736653 -0.535790
Br2   Br    Br    0.126117 0.784548 0.263358 -0.535780
Br3   Br    Br    0.628317 0.338049 0.772930 -0.534557
Br4   Br    Br    0.371671 0.661929 0.227058 -0.534564
Br5   Br    Br    0.065281 0.939226 0.786208 -0.536576
Br6   Br    Br    0.934714 0.060928 0.213787 -0.536575
Br7   Br    Br    0.433837 0.601316 0.709552 -0.538925
Br8   Br    Br    0.566160 0.398843 0.290433 -0.538928
H9    H     H_    0.253210 0.985422 0.060206 0.155185
H10   H     H_    0.746792 0.014477 0.939788 0.155177
H11   H     H_    0.246648 0.502004 0.439433 0.156313
H12   H     H_    0.753355 0.497858 0.560569 0.156328

loop_
_geom_bond_atom_site_label_1
_geom_bond_atom_site_label_2
_ccdc_geom_bond_type
O17   V3    S    
C14   H2    S    
O1    C5    A    
C13   H1    S    
O19   V1    S    
C18   H9    S    
C9    C21   A    
C23   Br8   S    
O3    C7    A    
C10   C18   A    
C48   C52   T    
C11   C23   A    
C49   C50   S    
C25   C33   A    
C33   C38   A    
C22   Br5   S    
O7    C3    A    
C35   C40   A    
C26   C30   A    
C36   C39   A    
C40   C44   A    
O9    V1    S    
C14   C18   A    
O4    C8    A    
O1    V3    S    
O13   V1    S    
O2    V4    S    
O3    V1    S    
C28   C36   A    
C1    O15   A    
C15   C31   A    
C17   H10   S    
C2    O16   A    
C16   C32   A    
C24   Br7   S    
O2    C6    A    
C10   C22   A    
C45   C49   T    
C11   C19   A    
C16   C20   A    
C13   C29   A    
C34   C37   A    
O11   C7    A    
O15   V3    S    
C35   C36   A    
O12   C8    A    
O10   V2    S    
O5    V1    S    
C15   C19   A    
C39   C43   A    
O7    V3    S    
C38   C42   A    
O8    V4    S    
C7    C9    S    
O18   V4    S    
C23   C27   A    
C37   H5    S    
C32   C44   A    
C8    C10   S    
C1    C48   S    
C26   C34   A    
O5    C1    A    
C3    C46   S    
C46   C50   T    
C51   C52   S    
C14   C30   A    
C21   C25   A    
O8    C4    A    
C4    C45   S    
C19   H12   S    
C40   H8    S    
O9    C5    A    
C41   Br1   S    
C21   Br6   S    
O14   V2    S    
O6    V2    S    
C44   Br4   S    
C12   C20   A    
C27   C35   A    
C29   C41   A    
O16   V4    S    
C3    O13   A    
C16   H4    S    
C42   Br2   S    
C31   C43   A    
C2    C47   S    
O11   V3    S    
C5    C11   S    
O12   V4    S    
C6    C12   S    
C22   C26   A    
C43   Br3   S    
C9    C17   A    
O10   C6    A    
O20   V2    S    
C20   H11   S    
C47   C51   T    
C33   C34   A    
C39   H7    S    
C25   C29   A    
C12   C24   A    
C27   C31   A    
C13   C17   A    
O6    C2    A    
C37   C41   A    
C24   C28   A    
C4    O14   A    
C15   H3    S    
C38   H6    S    
C30   C42   A    
O4    V2    S    
C28   C32   A    
