data_str_m3_o14_o18_f0_pcu.sym.180
_audit_creation_date              2012-12-10T17:44:31-0500
_audit_creation_method            fapswitch 2.2
_symmetry_space_group_name_H-M    P1
_symmetry_Int_Tables_number       1
_space_group_crystal_system       triclinic
_cell_length_a                    9.96993
_cell_length_b                    10.802862
_cell_length_c                    15.584463
_cell_angle_alpha                 93.260796
_cell_angle_beta                  70.124176
_cell_angle_gamma                 89.291312
_cell_volume                      1575.0652024

loop_
_atom_site_label
_atom_site_type_symbol
_atom_type_description
_atom_site_fract_x
_atom_site_fract_y
_atom_site_fract_z
_atom_type_partial_charge
C1    C     C_R   0.499742 0.739838 0.497803 0.897318
C2    C     C_R   0.423501 0.416690 0.903277 0.033503
C3    C     C_R   0.277928 0.418800 0.957088 0.086610
C4    C     C_R   0.526338 0.432944 0.946319 0.075114
C5    C     C_R   0.484108 0.425611 0.042229 0.045422
C6    C     C_R   0.343192 0.389532 0.089931 -0.289844
C7    C     C_R   0.238497 0.393022 0.049128 0.093187
C8    C     C_R   0.663401 0.474254 0.897838 -0.208305
C9    C     C_R   0.756366 0.509553 0.942623 -0.259297
C10   C     C_R   0.716282 0.506676 0.036897 0.175824
C11   C     C_R   0.580505 0.463202 0.087356 0.107923
C12   C     C_R   0.412422 0.494825 0.674605 0.889671
C13   C     C_R   0.807130 0.553313 0.082116 -0.196226
C14   C     C_R   0.769265 0.548743 0.176345 -0.190450
C15   C     C_R   0.540997 0.469470 0.182246 -0.269949
C16   C     C_R   0.365720 0.862779 0.380675 -0.159754
C17   C     C_R   0.305463 0.922098 0.325249 -0.195167
C18   C     C_R   0.332405 0.045188 0.308868 -0.147887
C19   C     C_R   0.418546 0.110402 0.348995 0.222772
C20   C     C_R   0.458619 0.058044 0.419046 0.060746
C21   C     C_R   0.440538 0.929650 0.430509 0.019226
C22   C     C_R   0.503066 0.872408 0.488504 -0.158189
C23   C     C_R   0.506856 0.259612 0.491677 0.905330
C24   C     C_R   0.588511 0.939417 0.528703 0.083226
C25   C     C_R   0.617922 0.061374 0.509002 0.132247
C26   C     C_R   0.528717 0.125434 0.471452 -0.182592
C27   C     C_R   0.792202 0.656156 0.628010 -0.178902
C28   C     C_R   0.829085 0.735489 0.689380 -0.213949
C29   C     C_R   0.970000 0.741614 0.684518 -0.196361
C30   C     C_R   0.073888 0.664898 0.620632 -0.167743
C31   C     C_R   0.039242 0.580082 0.560427 0.168102
C32   C     C_R   0.894397 0.577886 0.562160 0.166029
C33   C     C_R   0.960860 0.424462 0.440943 -0.131797
C34   C     C_R   0.587627 0.504057 0.325569 0.854252
C35   C     C_R   0.103083 0.423636 0.441628 -0.113266
C36   C     C_R   0.364221 0.471267 0.772317 -0.083738
C37   C     C_R   0.635882 0.505834 0.226417 -0.043963
C38   C     C_R   0.177509 0.457124 0.918787 -0.198383
C39   C     C_R   0.224093 0.502320 0.831483 0.143935
C40   C     C_R   0.459141 0.412851 0.808188 0.089072
H1    H     H_    0.905213 0.596859 0.045355 0.131462
H2    H     H_    0.354155 0.764114 0.380132 0.186044
H3    H     H_    0.246341 0.869863 0.289463 0.148278
H4    H     H_    0.296980 0.086492 0.258122 0.135610
H5    H     H_    0.934222 0.362770 0.392420 0.135768
H6    H     H_    0.683883 0.662335 0.631685 0.221662
H7    H     H_    0.748307 0.795150 0.739220 0.156627
H8    H     H_    0.434698 0.449160 0.223757 0.156705
H9    H     H_    0.998955 0.805417 0.730939 0.157421
H10   H     H_    0.180113 0.672301 0.620864 0.207142
H11   H     H_    0.181362 0.360500 0.394060 0.132793
H12   H     H_    0.840924 0.583530 0.210306 0.151064
H13   H     H_    0.857442 0.544478 0.903482 0.159282
H14   H     H_    0.066181 0.464800 0.959442 0.171884
H15   H     H_    0.307776 0.366532 0.160342 0.137470
H16   H     H_    0.696962 0.489511 0.825870 0.178904
N1    N     N_R   0.856800 0.501200 0.500850 -0.122174
N2    N     N_R   0.142390 0.501280 0.500880 -0.123411
O1    O     O_R   0.385310 0.683220 0.500000 -0.661764
O2    O     O_R   0.614640 0.683250 0.500010 -0.608811
O3    O     O_R   0.319840 0.499980 0.632240 -0.617479
O4    O     O_R   0.549160 0.500000 0.632250 -0.636450
O5    O     O_R   0.385360 0.316750 0.499990 -0.597178
O6    O     O_R   0.614690 0.316780 0.500000 -0.614882
O7    O     O_R   0.450840 0.500000 0.367750 -0.636741
O8    O     O_R   0.680160 0.500020 0.367760 -0.617800
Zn1   Zn    Zn3+2 0.346880 0.499980 0.499990 0.923845
Zn2   Zn    Zn3+2 0.653120 0.500020 0.500010 0.924557
N3    N     N_3   0.092210 0.375260 0.102294 -0.466050
H17   H     H_    0.085261 0.287428 0.128110 0.186692
H18   H     H_    0.062607 0.440963 0.157905 0.182220
N4    N     N_3   0.639812 0.883920 0.593515 -0.470803
H19   H     H_    0.616921 0.943893 0.652158 0.185715
H20   H     H_    0.749946 0.868801 0.563832 0.213011
C41   C     C_3   0.487485 0.220920 0.300938 -0.917458
H21   H     H_    0.406037 0.296140 0.317935 0.248695
H22   H     H_    0.582594 0.248619 0.317724 0.229583
H23   H     H_    0.525819 0.199851 0.225689 0.236314
C42   C     C_3   0.748102 0.118255 0.523864 -0.841646
H24   H     H_    0.811024 0.165271 0.462043 0.247082
H25   H     H_    0.716936 0.184090 0.584642 0.253578
H26   H     H_    0.824472 0.049663 0.532963 0.218497
C43   C     C_3   0.128527 0.591040 0.807108 -0.916137
H27   H     H_    0.065290 0.539523 0.771357 0.267040
H28   H     H_    0.057229 0.644096 0.869255 0.223455
H29   H     H_    0.192890 0.662251 0.764303 0.229183
C44   C     C_3   0.578151 0.324509 0.749347 -0.885676
H30   H     H_    0.670586 0.374146 0.705560 0.260189
H31   H     H_    0.617307 0.263929 0.791703 0.236272
H32   H     H_    0.535222 0.262676 0.706323 0.236670

loop_
_geom_bond_atom_site_label_1
_geom_bond_atom_site_label_2
_ccdc_geom_bond_type
O8    Zn2   S    
C44   H30   S    
C28   H7    S    
C16   C21   A    
C34   C37   S    
C33   H5    S    
C19   C20   A    
C6    H15   S    
C4    C8    A    
C8    H16   S    
C13   H1    S    
C29   H9    S    
C35   N2    A    
C5    C6    A    
O6    Zn2   S    
C31   N2    A    
C28   C29   A    
C5    C11   A    
C3    C7    A    
C1    O1    A    
C38   C39   A    
C18   C19   A    
C23   C26   S    
N3    H18   S    
C15   C37   A    
O1    Zn1   S    
C11   C15   A    
C14   H12   S    
C43   H27   S    
C3    C38   A    
C8    C9    A    
O7    Zn1   S    
C40   C44   S    
C12   C36   S    
C9    C10   A    
C23   O5    A    
C30   H10   S    
C1    C22   S    
C21   C22   A    
C34   O8    A    
C32   N1    A    
C34   O7    A    
O5    Zn1   S    
C36   C40   A    
C24   C25   A    
N4    H20   S    
C1    O2    A    
C42   H25   S    
C16   C17   A    
C25   C26   A    
C2    C4    A    
C41   H21   S    
C17   H3    S    
C29   C30   A    
C18   H4    S    
C12   O4    A    
O3    Zn1   S    
C31   C32   A    
C38   H14   S    
C17   C18   A    
C41   H22   S    
C27   H6    S    
C23   O6    A    
C43   H28   S    
C44   H31   S    
C35   H11   S    
C22   C24   A    
C9    H13   S    
N1    Zn2   S    
C16   H2    S    
C24   N4    S    
C33   N1    A    
C27   C32   A    
C25   C42   S    
C15   H8    S    
C36   C39   A    
N4    H19   S    
C10   C13   A    
C7    N3    S    
C42   H26   S    
C6    C7    A    
O4    Zn2   S    
C19   C41   S    
C2    C3    A    
C39   C43   S    
C14   C37   A    
C12   O3    A    
C30   C31   A    
C20   C26   A    
C33   C35   A    
N3    H17   S    
C41   H23   S    
C10   C11   A    
C42   H24   S    
C2    C40   A    
N2    Zn1   S    
C4    C5    A    
C43   H29   S    
C20   C21   A    
O2    Zn2   S    
C44   H32   S    
C27   C28   A    
C13   C14   A    
