data_str_m3_o14_o16_f0_pcu.sym.217
_audit_creation_date              2012-12-10T17:42:40-0500
_audit_creation_method            fapswitch 2.2
_symmetry_space_group_name_H-M    P1
_symmetry_Int_Tables_number       1
_space_group_crystal_system       triclinic
_cell_length_a                    9.922002
_cell_length_b                    10.712692
_cell_length_c                    13.089763
_cell_angle_alpha                 93.526328
_cell_angle_beta                  71.306994
_cell_angle_gamma                 91.185724
_cell_volume                      1315.43915904

loop_
_atom_site_label
_atom_site_type_symbol
_atom_type_description
_atom_site_fract_x
_atom_site_fract_y
_atom_site_fract_z
_atom_type_partial_charge
C1    C     C_R   0.505690 0.738204 0.488390 0.891801
C2    C     C_R   0.431176 0.410948 0.976878 0.032587
C3    C     C_R   0.472764 0.409235 0.863645 0.072580
C4    C     C_R   0.539482 0.411274 0.025524 0.078630
C5    C     C_R   0.679608 0.374718 0.963949 0.187382
C6    C     C_R   0.710315 0.341190 0.854260 -0.258283
C7    C     C_R   0.608748 0.360152 0.803946 -0.195509
C8    C     C_R   0.514591 0.461443 0.130486 -0.238953
C9    C     C_R   0.757028 0.418606 0.120627 -0.192058
C10   C     C_R   0.375993 0.455744 0.815442 -0.118756
C11   C     C_R   0.306364 0.868449 0.403413 -0.201429
C12   C     C_R   0.422697 0.487269 0.702256 0.884678
C13   C     C_R   0.177177 0.922312 0.408847 0.082585
C14   C     C_R   0.139275 0.038227 0.463702 -0.203929
C15   C     C_R   0.235693 0.104465 0.503969 -0.201540
C16   C     C_R   0.373313 0.055997 0.489118 0.115046
C17   C     C_R   0.398493 0.930469 0.453441 0.077860
C18   C     C_R   0.512003 0.869994 0.473581 -0.114555
C19   C     C_R   0.618410 0.938118 0.500162 -0.203727
C20   C     C_R   0.608361 0.065406 0.514181 -0.222677
C21   C     C_R   0.487496 0.125673 0.508566 -0.117458
C22   C     C_R   0.806684 0.685847 0.618164 -0.131943
C23   C     C_R   0.495298 0.259860 0.505404 0.866936
C24   C     C_R   0.851417 0.794765 0.658302 -0.252730
C25   C     C_R   0.989838 0.804816 0.656720 -0.204287
C26   C     C_R   0.082070 0.702359 0.621930 0.015118
C27   C     C_R   0.048000 0.596693 0.559051 0.097882
C28   C     C_R   0.903288 0.593783 0.557892 0.167921
C29   C     C_R   0.948799 0.407450 0.448216 -0.112052
C30   C     C_R   0.091000 0.406697 0.449654 -0.117538
C31   C     C_R   0.577887 0.494597 0.295703 0.866294
C32   C     C_R   0.786835 0.375581 0.012638 -0.207459
C33   C     C_R   0.620711 0.463278 0.179396 -0.060575
C34   C     C_R   0.233304 0.476133 0.877999 -0.204986
C35   C     C_R   0.186643 0.449839 0.986149 -0.184261
C36   C     C_R   0.283727 0.414441 0.035736 0.007923
H1    H     H_    0.333715 0.777947 0.360682 0.158679
H2    H     H_    0.035562 0.077940 0.474906 0.135474
H3    H     H_    0.196760 0.189956 0.551165 0.171095
H4    H     H_    0.695111 0.116377 0.531032 0.163197
H5    H     H_    0.911882 0.331642 0.405466 0.154948
H6    H     H_    0.694785 0.675977 0.638160 0.216403
H7    H     H_    0.775909 0.868101 0.698032 0.161131
H8    H     H_    0.815015 0.307376 0.806183 0.143664
H9    H     H_    0.160171 0.329558 0.410381 0.173863
H10   H     H_    0.893332 0.343989 0.966973 0.136619
H11   H     H_    0.412259 0.502791 0.174253 0.168614
H12   H     H_    0.074310 0.455477 0.030930 0.144876
H13   H     H_    0.637718 0.333310 0.718817 0.180320
H14   H     H_    0.708273 0.893199 0.512507 0.181950
N1    N     N_R   0.856860 0.501200 0.500990 -0.121317
N2    N     N_R   0.142450 0.501280 0.501020 -0.125123
O1    O     O_R   0.385310 0.683220 0.500000 -0.626080
O2    O     O_R   0.614640 0.683250 0.500010 -0.631569
O3    O     O_R   0.328400 0.499950 0.653610 -0.615375
O4    O     O_R   0.557730 0.499970 0.653620 -0.645882
O5    O     O_R   0.385360 0.316750 0.499990 -0.632872
O6    O     O_R   0.614690 0.316780 0.500000 -0.632721
O7    O     O_R   0.442270 0.500030 0.346380 -0.616219
O8    O     O_R   0.671600 0.500050 0.346390 -0.601822
Zn1   Zn    Zn3+2 0.346880 0.499980 0.499990 0.939652
Zn2   Zn    Zn3+2 0.653120 0.500020 0.500010 0.935875
H15   H     H_    0.839230 0.415639 0.158390 0.158868
C37   C     C_1   0.079740 0.854950 0.364368 0.147395
N3    N     N_1   0.001285 0.800663 0.328902 -0.195102
H16   H     H_    0.018497 0.887859 0.697234 0.154981
C38   C     C_1   0.182750 0.710227 0.680107 0.265912
N4    N     N_1   0.259033 0.726928 0.730603 -0.231274
H17   H     H_    0.156280 0.507832 0.842523 0.167981
C39   C     C_1   0.227506 0.354125 0.135970 0.144058
N5    N     N_1   0.181967 0.302596 0.214741 -0.230717

loop_
_geom_bond_atom_site_label_1
_geom_bond_atom_site_label_2
_ccdc_geom_bond_type
C31   O8    A    
O6    Zn2   S    
C23   O6    A    
C2    C4    A    
C1    O2    A    
C31   C33   S    
C16   C21   A    
O5    Zn1   S    
C6    C7    A    
C1    O1    A    
C14   H2    S    
C30   H9    S    
C19   C20   A    
C34   H17   S    
C4    C8    A    
C5    C32   A    
C37   N3    T    
C6    H8    S    
C2    C3    A    
C1    C18   S    
C8    H11   S    
C10   C34   A    
C3    C10   A    
C22   H6    S    
C13   C14   A    
C27   N2    A    
C9    C33   A    
C11   C13   A    
C19   H14   S    
C15   H3    S    
C26   C27   A    
C29   C30   A    
N1    Zn2   S    
C10   C12   S    
C23   O5    A    
C26   C38   S    
O3    Zn1   S    
C22   C24   A    
C24   C25   A    
C12   O4    A    
C36   C39   S    
C17   C18   A    
C3    C7    A    
N2    Zn1   S    
C21   C23   S    
C5    C6    A    
C20   H4    S    
C28   N1    A    
O4    Zn2   S    
O7    Zn1   S    
C12   O3    A    
C13   C37   S    
C35   H12   S    
C2    C36   A    
C38   N4    T    
C39   N5    T    
C18   C19   A    
C20   C21   A    
C7    H13   S    
O1    Zn1   S    
O8    Zn2   S    
C34   C35   A    
C29   N1    A    
C31   O7    A    
C27   C28   A    
C11   H1    S    
C24   H7    S    
C30   N2    A    
C14   C15   A    
C4    C5    A    
C22   C28   A    
O2    Zn2   S    
C9    C32   A    
C29   H5    S    
C25   C26   A    
C9    H15   S    
C32   H10   S    
C11   C17   A    
C25   H16   S    
C15   C16   A    
C16   C17   A    
C8    C33   A    
C35   C36   A    
