data_str_m9_o2_o17_f0_sra.sym.22
_audit_creation_date              2012-12-11T16:26:25-0500
_audit_creation_method            fapswitch 2.2
_symmetry_space_group_name_H-M    P1
_symmetry_Int_Tables_number       1
_space_group_crystal_system       triclinic
_cell_length_a                    6.933671
_cell_length_b                    17.386497
_cell_length_c                    19.635914
_cell_angle_alpha                 108.611219
_cell_angle_beta                  89.483385
_cell_angle_gamma                 90.421915
_cell_volume                      2243.24920616

loop_
_atom_site_label
_atom_site_type_symbol
_atom_type_description
_atom_site_fract_x
_atom_site_fract_y
_atom_site_fract_z
_atom_type_partial_charge
O1    O     O_R   0.494330 0.415720 0.413720 -0.533058
O2    O     O_R   0.819330 0.430070 0.560210 -0.533505
O3    O     O_R   0.994320 0.584280 0.586280 -0.536969
C1    C     C_R   0.649995 0.411824 0.579192 0.707657
O4    O     O_R   0.823730 0.406300 0.412670 -0.542979
O5    O     O_R   0.998760 0.560340 0.437690 -0.540751
C2    C     C_R   0.655333 0.382186 0.386089 0.681010
O6    O     O_R   0.489890 0.439660 0.562310 -0.536636
O7    O     O_3   0.662340 0.550560 0.508380 -0.371802
V1    V     V_3+5 0.935370 0.490620 0.498450 1.445469
O8    O     O_R   0.328750 0.569930 0.439790 -0.547566
C3    C     C_R   0.160806 0.585237 0.418366 0.705848
O9    O     O_R   0.324340 0.593700 0.587330 -0.539385
C4    C     C_R   0.155181 0.616815 0.614726 0.692979
V2    V     V_3+5 0.435940 0.509380 0.501550 1.434982
O10   O     O_3   0.159100 0.449440 0.491620 -0.360748
H1    H     H_    0.283542 0.876693 0.574842 0.112214
C5    C     C_R   0.069408 0.586119 0.747015 -0.151711
C6    C     C_R   0.029027 0.567526 0.809235 -0.162146
C7    C     C_R   0.021324 0.628564 0.874851 -0.176802
C8    C     C_R   0.053049 0.710198 0.879718 0.344856
C9    C     C_R   0.090763 0.731199 0.815981 0.038973
C10   C     C_R   0.100740 0.667190 0.748674 0.016005
C11   C     C_R   0.121664 0.813200 0.817340 -0.185562
C12   C     C_R   0.165661 0.829725 0.752494 0.046837
C13   C     C_R   0.177795 0.765286 0.686169 0.076143
C14   C     C_R   0.144722 0.684215 0.684207 -0.162105
C15   C     C_R   0.196381 0.910357 0.752189 -0.154648
C16   C     C_R   0.239160 0.926693 0.688706 -0.114180
C17   C     C_R   0.251020 0.863672 0.624085 -0.114388
C18   C     C_R   0.220263 0.783846 0.622475 -0.139012
H2    H     H_    0.076654 0.535703 0.697554 0.119794
H3    H     H_    0.005230 0.505017 0.806609 0.133644
H4    H     H_    0.991798 0.611914 0.922584 0.125570
H5    H     H_    0.187254 0.961840 0.800787 0.085170
H6    H     H_    0.262720 0.988660 0.689677 0.108043
H7    H     H_    0.229440 0.737046 0.570712 0.090379
C19   C     C_R   0.307443 0.635312 0.322735 -0.165427
C20   C     C_R   0.153235 0.635554 0.369970 -0.069708
C21   C     C_R   0.990485 0.683555 0.370303 -0.181561
C22   C     C_R   0.981842 0.731532 0.324845 0.125900
C23   C     C_R   0.135474 0.730088 0.276850 0.099710
C24   C     C_R   0.298440 0.681374 0.275569 0.106193
C25   C     C_R   0.822268 0.781166 0.326740 -0.232469
C26   C     C_R   0.814313 0.828948 0.281505 -0.140360
C27   C     C_R   0.964906 0.827479 0.232456 0.069949
C28   C     C_R   0.126336 0.777511 0.230190 -0.005197
C29   C     C_R   0.279674 0.775375 0.181971 0.093953
C30   C     C_R   0.439863 0.725891 0.180531 -0.145871
C31   C     C_R   0.449257 0.679435 0.226944 -0.156650
C32   C     C_R   0.958500 0.876367 0.187165 0.308199
C33   C     C_R   0.110218 0.871859 0.136546 -0.178055
C34   C     C_R   0.270248 0.822132 0.135608 -0.201361
H8    H     H_    0.432844 0.598029 0.321695 0.132897
H9    H     H_    0.871494 0.684491 0.406769 0.118005
H10   H     H_    0.703088 0.783119 0.363339 0.130637
H11   H     H_    0.688554 0.866592 0.284818 0.197890
H12   H     H_    0.387217 0.818872 0.097766 0.154725
H13   H     H_    0.558879 0.723521 0.143771 0.141420
H14   H     H_    0.575107 0.642198 0.224989 0.182477
C35   C     C_R   0.465227 0.179642 0.861487 -0.155443
C36   C     C_R   0.621681 0.129787 0.865130 -0.056493
C37   C     C_R   0.782243 0.125380 0.819805 -0.221090
C38   C     C_R   0.786128 0.169350 0.770881 0.103223
C39   C     C_R   0.630263 0.220303 0.768584 0.071035
C40   C     C_R   0.469830 0.225784 0.814511 0.073845
C41   C     C_R   0.942637 0.162815 0.723804 -0.219534
C42   C     C_R   0.945157 0.206213 0.674887 -0.143936
C43   C     C_R   0.792178 0.258230 0.672568 0.059224
C44   C     C_R   0.634218 0.265496 0.720055 -0.016151
C45   C     C_R   0.479064 0.317086 0.718683 0.086473
C46   C     C_R   0.321504 0.322827 0.765400 -0.153563
C47   C     C_R   0.316512 0.277295 0.812637 -0.169473
C48   C     C_R   0.792910 0.301473 0.622727 0.287004
C49   C     C_R   0.641493 0.357111 0.624141 -0.179309
C50   C     C_R   0.484549 0.362827 0.671375 -0.229619
H15   H     H_    0.340543 0.183653 0.896150 0.157929
H16   H     H_    0.902371 0.086480 0.821565 0.115481
H17   H     H_    0.063404 0.123949 0.724693 0.126737
H18   H     H_    0.068708 0.199338 0.639334 0.175221
H19   H     H_    0.367591 0.404253 0.672325 0.149053
H20   H     H_    0.201160 0.362108 0.765021 0.127049
H21   H     H_    0.192323 0.282294 0.847669 0.145754
H22   H     H_    0.423500 0.133614 0.426294 0.119237
C51   C     C_R   0.783266 0.405532 0.254950 -0.215606
C52   C     C_R   0.828334 0.422942 0.192447 0.380697
C53   C     C_R   0.784286 0.367177 0.126445 -0.137968
C54   C     C_R   0.702022 0.292211 0.121986 0.303277
C55   C     C_R   0.675079 0.268461 0.184603 0.007272
C56   C     C_R   0.704174 0.329280 0.252579 -0.029568
C57   C     C_R   0.615200 0.188544 0.182335 -0.135417
C58   C     C_R   0.565489 0.173724 0.247538 -0.032003
C59   C     C_R   0.578246 0.237192 0.314415 0.076613
C60   C     C_R   0.647799 0.314761 0.316857 -0.111292
C61   C     C_R   0.502059 0.095979 0.247461 -0.152754
C62   C     C_R   0.450485 0.080945 0.310910 0.424967
C63   C     C_R   0.462350 0.143981 0.376382 -0.208823
C64   C     C_R   0.525708 0.220822 0.378188 -0.185131
H23   H     H_    0.810211 0.452982 0.305100 0.157691
H24   H     H_    0.805798 0.383843 0.078235 0.188372
H25   H     H_    0.491120 0.045541 0.198174 0.136022
H26   H     H_    0.534709 0.266998 0.430294 0.110321
O11   O     O_R   0.775200 0.060470 0.937800 -0.537864
O12   O     O_R   0.441110 0.093720 0.087350 -0.527477
O13   O     O_R   0.266330 0.939630 0.062280 -0.539372
C65   C     C_R   0.609554 0.119085 0.113643 0.790134
O14   O     O_R   0.445750 0.069950 0.939820 -0.539620
O15   O     O_R   0.271000 0.915700 0.913700 -0.545995
C66   C     C_R   0.614189 0.081529 0.915388 0.790813
O16   O     O_R   0.770530 0.084400 0.086380 -0.540999
O17   O     O_3   0.602830 0.949510 0.991680 -0.373476
V3    V     V_3+5 0.329710 0.009370 0.001550 1.490901
O18   O     O_R   0.940990 0.906170 0.912570 -0.532998
C67   C     C_R   0.110361 0.882445 0.885576 0.796454
O19   O     O_R   0.936350 0.929940 0.060100 -0.528493
C68   C     C_R   0.103749 0.917738 0.084096 0.750697
V4    V     V_3+5 0.829160 0.990450 0.998310 1.491371
O20   O     O_3   0.105910 0.050480 0.008320 -0.369716
O21   O     O_3   0.805446 0.928985 0.194951 -0.644440
H27   H     H_    0.852363 0.978602 0.185576 0.282796
O22   O     O_3   0.940532 0.286851 0.572592 -0.647877
H28   H     H_    0.885870 0.288190 0.526540 0.287546
Cl1   Cl    Cl    0.925996 0.517875 0.197032 -0.681939
Cl2   Cl    Cl    0.599401 0.241554 0.038830 -0.697260
O23   O     O_3   0.389224 0.003964 0.306980 -0.643725
H29   H     H_    0.358304 0.003109 0.356147 0.278885
O24   O     O_3   0.050695 0.768945 0.946453 -0.659780
H30   H     H_    0.022862 0.743664 0.984202 0.275191

loop_
_geom_bond_atom_site_label_1
_geom_bond_atom_site_label_2
_ccdc_geom_bond_type
C42   H18   S    
C53   C54   A    
C11   C67   S    
C59   C60   A    
C22   C23   A    
O13   C68   A    
C61   C62   A    
C54   Cl2   S    
O12   C65   A    
C63   C64   A    
C51   C52   A    
C33   C34   A    
C12   C15   A    
C16   H6    S    
C26   H11   S    
C13   C14   A    
C16   C17   A    
H22   C63   S    
C15   C16   A    
O18   C67   A    
O5    C3    A    
C17   C18   A    
C39   C44   A    
C5    C6    A    
O14   V3    S    
O15   C67   A    
C1    C49   S    
O8    V2    S    
C35   C40   A    
C6    C7    A    
C15   H5    S    
C35   H15   S    
C42   C43   A    
O19   V4    S    
C32   O21   S    
C44   C45   A    
O1    V2    S    
C10   C14   A    
C4    C14   S    
C8    O24   S    
O7    V1    S    
C35   C36   A    
C1    O6    A    
C7    H4    S    
C13   C18   A    
C8    C9    A    
H1    C17   S    
O14   C66   A    
C57   C65   S    
O11   V4    S    
O16   V4    S    
C56   C60   A    
C33   C68   S    
C29   C34   A    
C51   C56   A    
C48   C49   A    
C41   C42   A    
C38   C41   A    
C41   H17   S    
C11   C12   A    
C6    H3    S    
C20   C21   A    
O12   V3    S    
C52   C53   A    
C12   C13   A    
C64   H26   S    
C40   C47   A    
C27   C32   A    
C58   C61   A    
C32   C33   A    
C18   H7    S    
C19   C20   A    
O2    C1    A    
C49   C50   A    
C36   C37   A    
C51   H23   S    
C25   H10   S    
C28   C29   A    
C19   H8    S    
C34   H12   S    
C21   H9    S    
C62   C63   A    
C43   C48   A    
C7    C8    A    
O22   H28   S    
O3    C4    A    
O18   V4    S    
C21   C22   A    
O13   V3    S    
C39   C40   A    
O6    V2    S    
O9    V2    S    
O23   H29   S    
C22   C25   A    
C9    C11   A    
C5    H2    S    
C23   C24   A    
O24   H30   S    
O2    V1    S    
C57   C58   A    
C25   C26   A    
O4    C2    A    
C53   H24   S    
C65   O16   A    
O15   V3    S    
C2    C60   S    
C27   C28   A    
C29   C30   A    
O17   V3    S    
O1    C2    A    
C46   C47   A    
C50   H19   S    
O5    V1    S    
O21   H27   S    
C24   C31   A    
C61   H25   S    
C30   H13   S    
O11   C66   A    
O17   V4    S    
C31   H14   S    
C38   C39   A    
C3    C20   S    
O7    V2    S    
O4    V1    S    
O3    V1    S    
V1    O10   S    
V4    O20   S    
V3    O20   S    
O19   C68   A    
C45   C50   A    
C36   C66   S    
C5    C10   A    
C55   C57   A    
C58   C59   A    
C62   O23   S    
C23   C28   A    
C43   C44   A    
C37   C38   A    
C26   C27   A    
C19   C24   A    
C48   O22   S    
C45   C46   A    
C54   C55   A    
C30   C31   A    
C52   Cl1   S    
C9    C10   A    
C55   C56   A    
O9    C4    A    
C59   C64   A    
C47   H21   S    
C46   H20   S    
V2    O10   S    
O8    C3    A    
C37   H16   S    
