data_str_m3_o14_o22_f0_pcu.sym.17
_audit_creation_date              2012-12-10T17:47:41-0500
_audit_creation_method            fapswitch 2.2
_symmetry_space_group_name_H-M    P1
_symmetry_Int_Tables_number       1
_space_group_crystal_system       triclinic
_cell_length_a                    10.643615
_cell_length_b                    10.687126
_cell_length_c                    9.900659
_cell_angle_alpha                 90.458753
_cell_angle_beta                  90.506428
_cell_angle_gamma                 93.035254
_cell_volume                      1124.53221841

loop_
_atom_site_label
_atom_site_type_symbol
_atom_type_description
_atom_site_fract_x
_atom_site_fract_y
_atom_site_fract_z
_atom_type_partial_charge
C1    C     C_R   0.506486 0.261025 0.499707 0.840159
C2    C     C_R   0.597250 0.073078 0.595803 0.107004
C3    C     C_R   0.520854 0.129858 0.498935 -0.097983
C4    C     C_R   0.257855 0.493079 0.499563 0.857678
C5    C     C_R   0.451455 0.060463 0.402078 -0.226079
C6    C     C_R   0.450878 0.932939 0.403752 -0.219960
C7    C     C_R   0.518412 0.873340 0.503294 -0.129849
C8    C     C_R   0.331742 0.335845 0.137735 -0.173852
C9    C     C_R   0.248175 0.255105 0.066180 -0.209582
C10   C     C_R   0.248103 0.254793 0.926253 -0.193694
C11   C     C_R   0.331574 0.335246 0.857090 -0.156899
C12   C     C_3   0.879600 0.500028 0.500923 0.067276
C13   C     C_R   0.416639 0.419202 0.926292 0.171781
C14   C     C_R   0.416684 0.419345 0.070996 0.173236
C15   C     C_R   0.581059 0.575827 0.072993 -0.111253
C16   C     C_R   0.507197 0.739973 0.501048 0.890677
C17   C     C_R   0.581124 0.575717 0.929894 -0.124958
C18   C     C_R   0.742446 0.499852 0.500536 0.891018
C19   C     C_3   0.070417 0.455617 0.640774 -0.417966
C20   C     C_3   0.927802 0.459134 0.641628 -0.486523
C21   C     C_3   0.083551 0.625099 0.457557 -0.518439
C22   C     C_3   0.064806 0.395971 0.395373 -0.444171
C23   C     C_3   0.937154 0.634461 0.464612 0.924593
C24   C     C_3   0.121707 0.492661 0.499078 0.114576
C25   C     C_3   0.921222 0.789024 0.294552 0.089388
C26   C     C_3   0.804179 0.865988 0.303772 -0.271839
C27   C     C_3   0.832718 0.001955 0.263301 -1.000403
C28   C     C_3   0.965924 0.764891 0.669268 0.046788
C29   C     C_3   0.019724 0.898447 0.648022 -0.871488
C30   C     C_3   0.920966 0.400905 0.395569 -0.433349
C31   C     C_R   0.678201 0.143523 0.685924 -0.184912
C32   C     C_R   0.744371 0.085106 0.787020 -0.151026
C33   C     C_R   0.736948 0.955628 0.795800 -0.149195
C34   C     C_R   0.667620 0.884118 0.699986 -0.142870
C35   C     C_R   0.593773 0.941691 0.600616 0.085961
H1    H     H_    0.111500 0.517484 0.722209 0.188964
H2    H     H_    0.647633 0.637234 0.127905 0.155253
H3    H     H_    0.097310 0.359047 0.665451 0.175459
H4    H     H_    0.327680 0.329854 0.244948 0.195139
H5    H     H_    0.183544 0.192004 0.119792 0.140799
H6    H     H_    0.183399 0.191406 0.870775 0.140014
H7    H     H_    0.327148 0.328471 0.749790 0.198192
H8    H     H_    0.648030 0.636936 0.877573 0.128589
H9    H     H_    0.887042 0.364093 0.666080 0.184460
H10   H     H_    0.898510 0.522811 0.723439 0.192726
H11   H     H_    0.139095 0.699150 0.513672 0.139490
H12   H     H_    0.888170 0.423770 0.292066 0.221581
H13   H     H_    0.099947 0.416689 0.291956 0.197454
H14   H     H_    0.092334 0.299927 0.421290 0.161365
H15   H     H_    0.878181 0.306540 0.420210 0.169740
H16   H     H_    0.952567 0.788090 0.187844 0.131952
H17   H     H_    0.999748 0.835581 0.354339 0.145349
H18   H     H_    0.728784 0.824137 0.236785 0.210854
H19   H     H_    0.769085 0.864800 0.408680 0.255587
H20   H     H_    0.906019 0.046688 0.331170 0.261381
H21   H     H_    0.746006 0.054805 0.271843 0.281659
H22   H     H_    0.865667 0.006683 0.157208 0.257503
H23   H     H_    0.114313 0.640259 0.351388 0.170479
H24   H     H_    0.040811 0.703116 0.697999 0.137597
H25   H     H_    0.904782 0.764798 0.759047 0.152848
H26   H     H_    0.944261 0.959609 0.615214 0.277729
H27   H     H_    0.061828 0.936155 0.743982 0.214495
H28   H     H_    0.093769 0.900795 0.569918 0.231773
H29   H     H_    0.393692 0.104952 0.327616 0.156356
H30   H     H_    0.692792 0.243823 0.679269 0.159717
H31   H     H_    0.803266 0.140386 0.857278 0.135803
H32   H     H_    0.789289 0.910456 0.874084 0.122682
H33   H     H_    0.675999 0.784440 0.704282 0.173196
H34   H     H_    0.393410 0.880419 0.329648 0.162690
N1    N     N_R   0.498810 0.498800 0.142780 -0.124116
N2    N     N_R   0.498760 0.498720 0.857170 -0.122229
O1    O     O_R   0.500000 0.316780 0.614690 -0.645034
O2    O     O_3   0.889882 0.724790 0.557234 -0.669715
O3    O     O_R   0.499990 0.316750 0.385360 -0.637808
O4    O     O_R   0.314800 0.499990 0.614670 -0.641317
O5    O     O_R   0.314790 0.499970 0.385330 -0.642577
O6    O     O_R   0.500010 0.683250 0.614640 -0.620158
O7    O     O_R   0.500000 0.683220 0.385310 -0.614927
O8    O     O_R   0.685210 0.500030 0.614670 -0.642451
O9    O     O_R   0.685200 0.500010 0.385330 -0.594212
O10   O     O_3   0.891913 0.662931 0.332667 -0.678263
Zn1   Zn    Zn3+2 0.500010 0.500020 0.653130 0.921578
Zn2   Zn    Zn3+2 0.499990 0.499980 0.346870 0.938509

loop_
_geom_bond_atom_site_label_1
_geom_bond_atom_site_label_2
_ccdc_geom_bond_type
C2    C35   A    
C6    H34   S    
C22   H13   S    
C29   H28   S    
C19   C20   S    
O3    Zn2   S    
C17   H8    S    
C12   C23   S    
C26   C27   S    
C1    O3    A    
C28   C29   S    
C34   C35   A    
C19   H1    S    
C5    C6    A    
C4    C24   S    
C27   H20   S    
C11   H7    S    
C15   C17   A    
C16   O6    A    
C15   H2    S    
C4    O4    A    
O7    Zn2   S    
C18   O8    A    
C8    H4    S    
C22   C30   S    
C9    C10   A    
C20   H10   S    
N2    Zn1   S    
C30   H15   S    
C13   C14   A    
C10   H6    S    
C25   O10   S    
C14   N1    A    
C23   O2    S    
O9    Zn2   S    
C28   O2    S    
C26   H19   S    
O5    Zn2   S    
C20   H9    S    
C28   H25   S    
C29   H26   S    
C1    O1    A    
C30   H12   S    
C27   H22   S    
C34   H33   S    
C27   H21   S    
C8    C9    A    
C13   N2    A    
C25   C26   S    
C9    H5    S    
C5    H29   S    
C2    C31   A    
C1    C3    S    
C25   H16   S    
C19   H3    S    
C31   C32   A    
C12   C20   S    
C33   C34   A    
N1    Zn2   S    
C22   H14   S    
C7    C16   S    
C17   N2    A    
C21   C23   S    
C22   C24   S    
C26   H18   S    
C33   H32   S    
C32   H31   S    
C21   H11   S    
C28   H24   S    
C31   H30   S    
C15   N1    A    
C29   H27   S    
C8    C14   A    
C23   O10   S    
C12   C30   S    
C7    C35   A    
C3    C5    A    
O8    Zn1   S    
O4    Zn1   S    
C6    C7    A    
C32   C33   A    
C2    C3    A    
C25   H17   S    
C21   H23   S    
C11   C13   A    
O6    Zn1   S    
C19   C24   S    
C16   O7    A    
C4    O5    A    
C10   C11   A    
C18   O9    A    
C21   C24   S    
C12   C18   S    
O1    Zn1   S    
