data_str_m3_o14_o24_f0_pcu.sym.46
_audit_creation_date              2013-03-05T15:54:14-0500
_audit_creation_method            fapswitch 2.2
_symmetry_space_group_name_H-M    P1
_symmetry_Int_Tables_number       1
_space_group_crystal_system       triclinic
_cell_length_a                    10.498142
_cell_length_b                    10.633856
_cell_length_c                    9.986002
_cell_angle_alpha                 89.090417
_cell_angle_beta                  88.393812
_cell_angle_gamma                 92.170618
_cell_volume                      1113.39696281

loop_
_atom_site_label
_atom_site_type_symbol
_atom_site_description
_atom_site_fract_x
_atom_site_fract_y
_atom_site_fract_z
_atom_type_partial_charge
O1    O     O_R   0.500000 0.316780 0.614690 -0.664830
O2    O     O_R   0.499990 0.316750 0.385360 -0.644696
C1    C     C_R   0.504221 0.258839 0.501590 0.857457
O3    O     O_R   0.313960 0.499980 0.614650 -0.607442
O4    O     O_R   0.313940 0.499960 0.385310 -0.634480
C2    C     C_R   0.257750 0.497957 0.501543 0.902602
Zn1   Zn    Zn3+2 0.500010 0.500020 0.653130 0.975483
Zn2   Zn    Zn3+2 0.499990 0.499980 0.346870 1.057556
O5    O     O_R   0.500010 0.683250 0.614640 -0.616715
O6    O     O_R   0.500000 0.683220 0.385310 -0.540097
O7    O     O_R   0.686060 0.500040 0.614690 -0.629389
O8    O     O_R   0.686040 0.500020 0.385350 -0.536787
C3    C     C_R   0.477465 0.736523 0.499945 0.940973
C4    C     C_R   0.742203 0.498100 0.498326 0.916945
C5    C     C_3   0.035254 0.502272 0.628158 -0.035482
C6    C     C_3   0.951126 0.395128 0.569673 -0.235396
H1    H     H_    0.906708 0.313529 0.626646 0.174007
H2    H     H_    0.067877 0.507628 0.732794 0.208920
C7    C     C_3   0.877284 0.495278 0.495543 -0.120313
C8    C     C_3   0.959265 0.602273 0.553700 -0.148521
C9    C     C_3   0.049696 0.596496 0.428975 -0.142261
C10   C     C_3   0.966777 0.488878 0.374113 0.372055
C11   C     C_3   0.041979 0.388397 0.445144 -0.280719
C12   C     C_3   0.122744 0.496175 0.503427 -0.049289
H3    H     H_    0.921534 0.689022 0.597847 0.187253
H4    H     H_    0.093750 0.677819 0.371266 0.218271
H5    H     H_    0.080031 0.302299 0.399824 0.161376
H6    H     H_    0.474477 0.116302 0.289918 0.201858
C13   C     C_R   0.516610 0.099516 0.754008 -0.178636
H7    H     H_    0.578913 0.181558 0.764868 0.186238
C14   C     C_R   0.470833 0.039492 0.871281 -0.132680
H8    H     H_    0.490711 0.081711 0.966611 0.209414
C15   C     C_R   0.393255 0.930816 0.864784 -0.138077
H9    H     H_    0.347123 0.891512 0.954863 0.238073
C16   C     C_R   0.372930 0.873744 0.741731 0.328383
C17   C     C_R   0.429978 0.929694 0.623414 -0.052132
C18   C     C_R   0.482747 0.052490 0.627749 0.049465
C19   C     C_R   0.495825 0.122438 0.505393 -0.139413
C20   C     C_R   0.472416 0.063546 0.383726 -0.277015
C21   C     C_R   0.443779 0.936254 0.380396 0.328243
C22   C     C_R   0.439401 0.866824 0.500626 -0.192398
C23   C     C_R   0.334548 0.331575 0.146188 -0.128499
H10   H     H_    0.327781 0.326130 0.252692 0.189309
C24   C     C_R   0.251617 0.250601 0.079543 -0.152079
H11   H     H_    0.187175 0.186525 0.136109 0.171135
C25   C     C_R   0.250483 0.252505 0.940861 -0.169338
H12   H     H_    0.185569 0.189591 0.889380 0.166989
C26   C     C_R   0.333009 0.334704 0.867775 -0.132067
H13   H     H_    0.327073 0.331401 0.761481 0.197633
C27   C     C_R   0.418866 0.417370 0.931609 0.167621
C28   C     C_R   0.419586 0.416362 0.075726 0.116896
N1    N     N_R   0.498800 0.498800 0.142780 -0.163824
C29   C     C_R   0.573325 0.585478 0.064622 0.371212
H14   H     H_    0.634645 0.646433 0.862805 0.192231
C30   C     C_R   0.574331 0.581140 0.922482 -0.125136
N2    N     N_R   0.498760 0.498720 0.857170 -0.142260
N3    N     N_R   0.282353 0.769442 0.735792 0.211750
O9    O     O_R   0.205681 0.761777 0.635941 -0.444864
O10   O     O_R   0.262474 0.693806 0.838659 -0.373735
N4    N     N_R   0.418349 0.879530 0.254626 0.218391
O11   O     O_R   0.321929 0.800218 0.243040 -0.386338
O12   O     O_R   0.482956 0.918232 0.148393 -0.403746
N5    N     N_R   0.646424 0.688709 0.120516 0.249606
O13   O     O_R   0.674956 0.788346 0.046589 -0.348475
O14   O     O_R   0.708256 0.675714 0.229611 -0.319483
N6    N     N_R   0.927943 0.479425 0.235591 0.231507
O15   O     O_R   0.966487 0.564871 0.147435 -0.327965
O16   O     O_R   0.861800 0.381083 0.197703 -0.384280

loop_
_geom_bond_atom_site_label_1
_geom_bond_atom_site_label_2
_geom_bond_distance
_ccdc_geom_bond_type
C18   C19   1.420929 A    
C5    H2    1.110329 S    
N6    O16   1.300457 A    
C11   C12   1.531808 S    
N5    O14   1.291876 A    
C21   C22   1.398168 A    
C13   H7    1.079092 S    
C21   N4    1.429382 S    
C11   H5    1.110562 S    
O4    Zn2   1.979947 S    
C27   N2    1.376250 A    
Zn2   N1    2.038665 S    
C14   H8    1.081187 S    
Zn2   O8    2.001146 S    
C23   C28   1.410197 A    
C16   N3    1.436399 S    
C2    C12   1.416308 S    
C30   N2    1.348120 A    
C14   C15   1.391784 A    
C15   H9    1.080131 S    
C17   C22   1.408701 A    
N6    O15   1.300411 A    
C13   C14   1.389709 A    
C25   H12   1.082735 S    
C9    C10   1.529292 S    
N1    C29   1.399694 A    
N4    O12   1.295940 A    
Zn1   O7    1.979948 S    
C29   N5    1.444004 S    
N3    O9    1.300524 A    
O4    C2    1.286674 A    
C23   C24   1.391485 A    
Zn1   N2    2.037042 S    
N4    O11   1.301654 A    
O3    Zn1   2.001145 S    
C26   H13   1.066078 S    
C5    C6    1.546949 S    
C4    C7    1.419053 S    
C26   C27   1.407650 A    
C17   C18   1.400783 A    
C15   C16   1.397281 A    
C9    H4    1.110302 S    
C24   C25   1.385092 A    
O2    C1    1.307918 A    
C6    C11   1.550093 S    
C29   C30   1.420651 A    
C6    C7    1.533888 S    
C5    C8    1.546756 S    
O7    C4    1.288942 A    
C25   C26   1.390759 A    
N3    O10   1.301810 A    
O3    C2    1.289034 A    
C8    H3    1.110417 S    
C7    C8    1.532104 S    
C28   N1    1.379512 A    
C7    C10   1.517002 S    
C19   C20   1.399273 A    
C8    C9    1.548189 S    
Zn2   O6    1.991966 S    
C23   H10   1.064435 S    
C9    C12   1.532212 S    
C13   C18   1.413436 A    
C20   C21   1.376559 A    
Zn1   O5    1.979994 S    
O5    C3    1.301352 A    
C3    C22   1.456610 S    
C10   N6    1.456954 S    
O1    Zn1   1.991965 S    
H6    C20   1.083499 S    
C27   C28   1.439248 A    
H14   C30   1.081911 S    
C5    C12   1.530419 S    
O6    C3    1.305091 A    
C10   C11   1.529488 S    
O2    Zn2   1.979994 S    
C24   H11   1.082806 S    
N5    O13   1.302326 A    
C1    C19   1.449631 S    
O8    C4    1.287755 A    
C6    H1    1.110332 S    
O1    C1    1.295579 A    
C16   C17   1.421148 A    
