data_str_m9_o11_o16_f0_sra.sym.185
_audit_creation_date              2013-03-05T15:41:43-0500
_audit_creation_method            fapswitch 2.2
_symmetry_space_group_name_H-M    P1
_symmetry_Int_Tables_number       1
_space_group_crystal_system       triclinic
_cell_length_a                    6.945928
_cell_length_b                    13.672584
_cell_length_c                    20.44287
_cell_angle_alpha                 102.384929
_cell_angle_beta                  90.75506
_cell_angle_gamma                 90.414179
_cell_volume                      1895.98970576

loop_
_atom_site_label
_atom_site_type_symbol
_atom_site_description
_atom_site_fract_x
_atom_site_fract_y
_atom_site_fract_z
_atom_type_partial_charge
O1    O     O_R   0.506860 0.599390 0.449240 -0.560802
O2    O     O_R   0.180220 0.594600 0.586780 -0.575312
O3    O     O_R   0.004500 0.400610 0.550760 -0.559993
C1    C     C_R   0.350300 0.613443 0.614319 0.818640
O4    O     O_R   0.177490 0.611290 0.451970 -0.565551
O5    O     O_R   0.001750 0.417420 0.414990 -0.560020
C2    C     C_R   0.345428 0.637707 0.435492 0.829221
O6    O     O_R   0.509610 0.582580 0.585010 -0.559527
O7    O     O_3   0.337420 0.436370 0.488020 -0.266747
V1    V     V_3+5 0.064680 0.511800 0.502220 1.162145
O8    O     O_R   0.671710 0.405400 0.413220 -0.559963
C3    C     C_R   0.838724 0.385490 0.385935 0.854596
O9    O     O_R   0.674440 0.388710 0.548030 -0.560802
C4    C     C_R   0.843264 0.363262 0.565674 0.829451
V2    V     V_3+5 0.564010 0.488200 0.497780 1.167918
O10   O     O_3   0.841140 0.563630 0.511980 -0.272488
C5    C     C_R   0.851138 0.112194 0.611573 -0.026662
H1    H     H_    0.855163 0.163628 0.519653 0.097079
H2    H     H_    0.857990 0.035051 0.584752 0.137008
C6    C     C_R   0.850813 0.286284 0.605530 -0.074381
C7    C     C_R   0.850975 0.314586 0.929072 -0.156678
C8    C     C_R   0.836394 0.391766 0.894211 0.362940
C9    C     C_R   0.835084 0.367970 0.823843 -0.132478
C10   C     C_R   0.845040 0.267455 0.787237 0.000379
C11   C     C_R   0.852668 0.190107 0.823944 -0.041670
C12   C     C_R   0.845845 0.241276 0.715501 0.026453
C13   C     C_R   0.844021 0.138141 0.682145 -0.021126
C14   C     C_R   0.839803 0.062838 0.719773 0.339348
C15   C     C_R   0.850330 0.089461 0.789476 -0.124604
C16   C     C_R   0.849775 0.314150 0.675474 -0.094619
C17   C     C_R   0.852561 0.185538 0.573818 -0.101504
C18   C     C_R   0.858724 0.214751 0.894902 -0.120168
H3    H     H_    0.853159 0.393336 0.696710 0.033471
H4    H     H_    0.853728 0.331868 0.983361 0.095233
H5    H     H_    0.822463 0.429566 0.799140 0.099264
H6    H     H_    0.849936 0.029728 0.816729 0.108861
C19   C     C_2   0.001396 0.304128 0.280801 -0.029006
C20   C     C_2   0.839070 0.324103 0.316591 -0.201860
H7    H     H_    0.136313 0.331908 0.305318 0.102949
H8    H     H_    0.700029 0.301154 0.293519 0.058164
C21   C     C_2   0.006531 0.251771 0.207959 0.197107
C22   C     C_2   0.867166 0.184181 0.180923 -0.213161
H9    H     H_    0.746786 0.171785 0.211179 0.055120
C23   C     C_2   0.211134 0.769276 0.789390 -0.046528
C24   C     C_2   0.359550 0.828077 0.816884 -0.174385
H10   H     H_    0.081589 0.767084 0.818262 0.107147
H11   H     H_    0.485721 0.836120 0.787895 0.143689
C25   C     C_2   0.209900 0.709720 0.719115 -0.030422
C26   C     C_2   0.367824 0.671873 0.684429 0.045731
H12   H     H_    0.068536 0.693973 0.695749 0.102364
C27   C     C_R   0.246885 0.881929 0.390684 -0.015836
H13   H     H_    0.245642 0.827996 0.481347 0.090707
H14   H     H_    0.192429 0.953599 0.416457 0.141352
C28   C     C_R   0.347220 0.716878 0.398110 -0.074324
C29   C     C_R   0.404222 0.688898 0.076370 0.168920
C30   C     C_R   0.417524 0.615823 0.113976 -0.009081
C31   C     C_R   0.397350 0.639714 0.182840 -0.101535
C32   C     C_R   0.358808 0.738565 0.217578 0.018322
C33   C     C_R   0.333063 0.814377 0.179742 -0.047688
C34   C     C_R   0.341914 0.763035 0.288843 0.011063
C35   C     C_R   0.278293 0.859698 0.321085 -0.033054
C36   C     C_R   0.242723 0.932419 0.283747 0.326882
C37   C     C_R   0.277191 0.912011 0.214563 0.080533
C38   C     C_R   0.382536 0.693545 0.329499 -0.089947
C39   C     C_R   0.278602 0.810679 0.428454 -0.101186
C40   C     C_R   0.363569 0.788889 0.108495 -0.105714
H15   H     H_    0.436029 0.619559 0.309556 0.044639
H16   H     H_    0.408963 0.577615 0.207158 0.057301
H17   H     H_    0.447465 0.539102 0.089513 0.101329
O11   O     O_R   0.203230 0.917310 0.915020 -0.555181
O12   O     O_R   0.535500 0.888690 0.048040 -0.569233
O13   O     O_R   0.711080 0.082610 0.085000 -0.576437
C41   C     C_R   0.367837 0.864834 0.067108 0.854676
O14   O     O_R   0.532630 0.905370 0.913230 -0.558808
O15   O     O_R   0.708190 0.099410 0.949230 -0.560730
C42   C     C_R   0.363396 0.886041 0.886246 0.822302
O16   O     O_R   0.206120 0.900510 0.050790 -0.543632
O17   O     O_3   0.375360 0.063570 0.011990 -0.283068
V3    V     V_3+5 0.648170 0.988200 0.997780 1.151299
O18   O     O_R   0.038240 0.111390 0.951940 -0.563639
C43   C     C_R   0.869063 0.137399 0.934811 0.825098
O19   O     O_R   0.041120 0.094710 0.086750 -0.552937
C44   C     C_R   0.873589 0.118517 0.112709 0.810430
V4    V     V_3+5 0.148810 0.011930 0.002180 1.149966
O20   O     O_3   0.871750 0.936430 0.988010 -0.263665
N1    N     N_2   0.159587 0.272734 0.166210 -0.416376
H18   H     H_    0.115891 0.280705 0.119211 0.199148
C45   C     C_3   0.314314 0.340459 0.195004 -0.258847
H19   H     H_    0.418851 0.347058 0.155488 0.111296
H20   H     H_    0.392608 0.310612 0.234046 0.112778
H21   H     H_    0.256658 0.415936 0.216387 0.101035
N2    N     N_2   0.553451 0.679950 0.716058 -0.426082
H22   H     H_    0.664658 0.690759 0.685339 0.246691
C46   C     C_3   0.594332 0.602248 0.752201 -0.227136
H23   H     H_    0.738900 0.615847 0.776403 0.149503
H24   H     H_    0.593235 0.527727 0.717302 0.089793
H25   H     H_    0.486239 0.602642 0.791834 0.135146
N3    N     N_R   0.173905 0.029382 0.316185 0.060947
O21   O     O_R   0.995321 0.052978 0.308219 -0.395562
O22   O     O_R   0.286255 0.091627 0.356828 -0.382365
N4    N     N_R   0.820294 0.958563 0.688246 0.073891
O23   O     O_R   0.917816 0.892092 0.711324 -0.397268
O24   O     O_R   0.679290 0.928567 0.645986 -0.383192
N5    N     N_2   0.434035 0.659844 0.005913 -0.398021
H26   H     H_    0.495462 0.712783 0.983445 0.218601
C47   C     C_3   0.272668 0.608098 0.967907 -0.143970
H27   H     H_    0.311995 0.584562 0.914378 0.111733
H28   H     H_    0.146653 0.658596 0.971809 0.144483
H29   H     H_    0.233815 0.539961 0.986448 0.139819
N6    N     N_2   0.253071 0.991366 0.180649 -0.411981
H30   H     H_    0.122264 0.026149 0.189191 0.237575
C48   C     C_3   0.412421 0.061540 0.189374 -0.151503
H31   H     H_    0.397821 0.110130 0.152694 0.157553
H32   H     H_    0.550704 0.020730 0.181164 0.108178
H33   H     H_    0.413625 0.109993 0.240376 0.141802
N7    N     N_R   0.821033 0.494238 0.930298 0.073799
O25   O     O_R   0.816731 0.515852 0.995453 -0.393568
O26   O     O_R   0.808555 0.566850 0.898465 -0.420848

loop_
_geom_bond_atom_site_label_1
_geom_bond_atom_site_label_2
_geom_bond_distance
_ccdc_geom_bond_type
C29   C30   1.388058 A    
N4    O23   1.300690 A    
C21   C22   1.360300 D    
C30   H17   1.083777 S    
C27   C35   1.409952 A    
O18   V4    2.021719 S    
O12   V3    2.030935 S    
C28   C39   1.390012 A    
C6    C16   1.398692 A    
C30   C31   1.384496 A    
C21   N1    1.437093 S    
C15   H6    1.082857 S    
C12   C13   1.428505 A    
C36   C37   1.405740 A    
O14   C42   1.292984 A    
C24   C42   1.468344 S    
C14   C15   1.393773 A    
C10   C12   1.433116 A    
O13   V3    2.005094 S    
C33   C40   1.441934 A    
O5    C3    1.299821 A    
N1    C45   1.447094 S    
C47   H27   1.110742 S    
C32   C34   1.429735 A    
V2    O10   2.163650 S    
N3    O21   1.300873 A    
N7    O25   1.301797 A    
C27   C39   1.383843 A    
N6    H30   1.028090 S    
C48   H31   1.107509 S    
C36   N3    1.437428 S    
O8    V2    2.009066 S    
C14   N4    1.437762 S    
C9    C10   1.419536 A    
O1    V2    2.024561 S    
O11   V4    2.006835 S    
O7    V1    2.156639 S    
C1    O6    1.295104 A    
C11   C18   1.417052 A    
C25   H12   1.085880 S    
N4    O24   1.301426 A    
O1    C2    1.293873 A    
O9    C4    1.294153 A    
C3    C20   1.484514 S    
C46   H23   1.110157 S    
C48   H32   1.110805 S    
N5    H26   1.029670 S    
C23   H10   1.086336 S    
C24   H11   1.082383 S    
C11   C15   1.404932 A    
C7    C18   1.395397 A    
C5    C13   1.411467 A    
C38   H15   1.077063 S    
C4    C6    1.463509 S    
C10   C11   1.422847 A    
O12   C41   1.294448 A    
O17   V3    2.156704 S    
O15   C43   1.292764 A    
C7    H4    1.083872 S    
O16   V4    2.028403 S    
C32   C33   1.430945 A    
C40   C41   1.473767 S    
C29   N5    1.427900 S    
C34   C35   1.420880 A    
C27   H14   1.081676 S    
O2    C1    1.301846 A    
C19   C20   1.349680 D    
C18   C43   1.469350 S    
C45   H21   1.110627 S    
N2    C46   1.445943 S    
V4    O20   2.163631 S    
C46   H24   1.111360 S    
O3    C4    1.294403 A    
C25   C26   1.358357 D    
C45   H20   1.109406 S    
C12   C16   1.418790 A    
O6    V2    2.006390 S    
O19   V4    2.009085 S    
O14   V3    2.006181 S    
O9    V2    2.021806 S    
O11   C42   1.297189 A    
C5    C17   1.390507 A    
C22   H9    1.080274 S    
C26   N2    1.427593 S    
O2    V1    2.006177 S    
V3    O20   1.707646 S    
C29   C40   1.416121 A    
C23   C24   1.343103 D    
O4    C2    1.288824 A    
C16   H3    1.076542 S    
N1    H18   1.031895 S    
C33   C37   1.430554 A    
C22   C44   1.489237 S    
O18   C43   1.295580 A    
O5    V1    2.005090 S    
O8    C3    1.299025 A    
N5    C47   1.445783 S    
N3    O22   1.301372 A    
C46   H25   1.111045 S    
C1    C26   1.486634 S    
C34   C38   1.417569 A    
C37   N6    1.417095 S    
O7    V2    1.712903 S    
O4    V1    2.030967 S    
C19   H7    1.083735 S    
O3    V1    2.029631 S    
V1    O10   1.707708 S    
C20   H8    1.083400 S    
C31   C32   1.414625 A    
C47   H28   1.111825 S    
C8    N7    1.442031 S    
N2    H22   1.031406 S    
C5    H2    1.081069 S    
N7    O26   1.301356 A    
C19   C21   1.508524 S    
C35   C36   1.398712 A    
C9    H5    1.074374 S    
N6    C48   1.443429 S    
O13   C44   1.300720 A    
O17   V4    1.711674 S    
C45   H19   1.110729 S    
C28   C38   1.395544 A    
O19   C44   1.299735 A    
C13   C14   1.411562 A    
C41   O16   1.295685 A    
C8    C9    1.405048 A    
H1    C17   1.083721 S    
C31   H16   1.074958 S    
C2    C28   1.452857 S    
C7    C8    1.397824 A    
O15   V3    2.029767 S    
C6    C17   1.391119 A    
C48   H33   1.108781 S    
H13   C39   1.084035 S    
C23   C25   1.491562 S    
C47   H29   1.111267 S    
