data_str_m9_o10_o29_f0_sra.sym.94
_audit_creation_date              2012-12-11T14:08:47-0500
_audit_creation_method            fapswitch 2.2
_symmetry_space_group_name_H-M    P1
_symmetry_Int_Tables_number       1
_space_group_crystal_system       triclinic
_cell_length_a                    28.182091
_cell_length_b                    7.1916
_cell_length_c                    17.18627
_cell_angle_alpha                 89.998482
_cell_angle_beta                  101.769357
_cell_angle_gamma                 90.00032
_cell_volume                      3409.98670595

loop_
_atom_site_label
_atom_site_type_symbol
_atom_type_description
_atom_site_fract_x
_atom_site_fract_y
_atom_site_fract_z
_atom_type_partial_charge
O1    O     O_R   0.000700 0.436510 0.857920 -0.533173
O2    O     O_R   0.999300 0.563490 0.142080 -0.533188
O3    O     O_R   0.999300 0.936510 0.642080 -0.533187
O4    O     O_R   0.000700 0.063490 0.357920 -0.533168
O5    O     O_R   0.930080 0.766380 0.721890 -0.542226
O6    O     O_R   0.069920 0.233620 0.278110 -0.542277
O7    O     O_R   0.069920 0.266380 0.778110 -0.542276
O8    O     O_R   0.930080 0.733620 0.221890 -0.542229
C1    C     C_R   0.910558 0.597676 0.709106 0.696534
C2    C     C_R   0.089453 0.402391 0.290856 0.696773
C3    C     C_R   0.089452 0.097609 0.790865 0.696782
C4    C     C_R   0.910557 0.902326 0.209114 0.696538
O9    O     O_R   0.996180 0.766230 0.862310 -0.542947
O10   O     O_R   0.003820 0.233770 0.137690 -0.542931
O11   O     O_R   0.003820 0.266230 0.637690 -0.542928
O12   O     O_R   0.996180 0.733770 0.362310 -0.542948
O13   O     O_R   0.065870 0.936460 0.783500 -0.539465
O14   O     O_R   0.934130 0.063540 0.216500 -0.539389
O15   O     O_R   0.934130 0.436460 0.716500 -0.539388
O16   O     O_R   0.065870 0.563540 0.283500 -0.539462
C5    C     C_R   0.998482 0.596462 0.894493 0.761761
C6    C     C_R   0.001517 0.403538 0.105507 0.761812
C7    C     C_R   0.001517 0.096465 0.605506 0.761810
C8    C     C_R   0.998482 0.903535 0.394493 0.761755
O17   O     O_3   0.022790 0.603020 0.723980 -0.378049
O18   O     O_3   0.977210 0.396980 0.276020 -0.378028
O19   O     O_3   0.977210 0.103020 0.776020 -0.378029
O20   O     O_3   0.022790 0.896980 0.223980 -0.378049
V1    V     V_3+5 0.995770 0.877900 0.754830 1.412517
V2    V     V_3+5 0.004230 0.122100 0.245170 1.412470
V3    V     V_3+5 0.004230 0.377900 0.745170 1.412470
V4    V     V_3+5 0.995770 0.622100 0.254830 1.412520
C9    C     C_2   0.001708 0.082682 0.519550 -0.329736
C10   C     C_2   0.998291 0.917318 0.480450 -0.329731
C11   C     C_2   0.998292 0.582681 0.980449 -0.329740
C12   C     C_2   0.001708 0.417319 0.019551 -0.329746
H1    H     H_    0.004503 0.211566 0.487836 0.153659
H2    H     H_    0.995496 0.788434 0.512163 0.153658
H3    H     H_    0.995497 0.711565 0.012159 0.153662
H4    H     H_    0.004502 0.288435 0.987841 0.153660
C13   C     C_R   0.682953 0.913937 0.030050 0.592926
C14   C     C_R   0.317906 0.103406 0.967094 0.591375
C15   C     C_R   0.317913 0.396644 0.466972 0.591344
C16   C     C_R   0.682966 0.585919 0.529919 0.592950
O21   O     O_2   0.712020 0.877305 0.978480 -0.506476
O22   O     O_2   0.289576 0.162270 0.016727 -0.508886
O23   O     O_2   0.289580 0.337908 0.516624 -0.508894
O24   O     O_2   0.712038 0.622441 0.478346 -0.506482
N1    N     N_R   0.702813 0.940342 0.108654 -0.561874
N2    N     N_R   0.297318 0.055963 0.890671 -0.559943
N3    N     N_R   0.297327 0.443987 0.390535 -0.559951
N4    N     N_R   0.702819 0.559638 0.608535 -0.561872
C17   C     C_R   0.674341 0.977936 0.162473 0.574955
C18   C     C_R   0.325116 0.995193 0.839005 0.574682
C19   C     C_R   0.325127 0.504627 0.338849 0.574685
C20   C     C_R   0.674341 0.522156 0.662356 0.574945
C21   C     C_R   0.778579 0.758165 0.140469 -0.079890
C22   C     C_R   0.221854 0.240264 0.855994 -0.077971
C23   C     C_R   0.221857 0.259712 0.355906 -0.077974
C24   C     C_R   0.778593 0.741799 0.640249 -0.079909
C25   C     C_R   0.829049 0.748669 0.165021 -0.189098
C26   C     C_R   0.171362 0.250628 0.831675 -0.189983
C27   C     C_R   0.171364 0.249362 0.331626 -0.189962
C28   C     C_R   0.829061 0.751301 0.664837 -0.189139
C29   C     C_R   0.832468 0.084024 0.178659 -0.191433
C30   C     C_R   0.167180 0.914432 0.824262 -0.192133
C31   C     C_R   0.167187 0.585558 0.324180 -0.192130
C32   C     C_R   0.832464 0.416006 0.678739 -0.191460
C33   C     C_R   0.781990 0.092954 0.154520 -0.082886
C34   C     C_R   0.217630 0.904550 0.848312 -0.080987
C35   C     C_R   0.217640 0.595426 0.348188 -0.081009
C36   C     C_R   0.781988 0.407071 0.654565 -0.082864
C37   C     C_R   0.754758 0.930283 0.135033 0.383395
C38   C     C_R   0.245318 0.067180 0.864547 0.380238
C39   C     C_R   0.245326 0.432789 0.364422 0.380271
C40   C     C_R   0.754764 0.569707 0.634928 0.383333
C41   C     C_R   0.602151 0.965622 0.056175 -0.048861
C42   C     C_R   0.397928 0.025712 0.943215 -0.047915
C43   C     C_R   0.397939 0.474182 0.443067 -0.047943
C44   C     C_R   0.602159 0.534324 0.556040 -0.048876
C45   C     C_R   0.632559 0.926245 0.002427 -0.028396
C46   C     C_R   0.368275 0.089263 0.994675 -0.026201
C47   C     C_R   0.368282 0.410761 0.494546 -0.026263
C48   C     C_R   0.632573 0.573589 0.502289 -0.028329
C49   C     C_R   0.612275 0.902114 0.921849 -0.087700
C50   C     C_R   0.389351 0.138154 0.072764 -0.092716
C51   C     C_R   0.389356 0.361969 0.572650 -0.092680
C52   C     C_R   0.612294 0.597585 0.421699 -0.087676
C53   C     C_R   0.623053 0.990945 0.137787 -0.075770
C54   C     C_R   0.376311 0.978050 0.863866 -0.075793
C55   C     C_R   0.376325 0.521728 0.363702 -0.075797
C56   C     C_R   0.623054 0.509138 0.637664 -0.075752
C57   C     C_R   0.856764 0.911663 0.184188 -0.052359
C58   C     C_R   0.143258 0.087674 0.815689 -0.052811
C59   C     C_R   0.143261 0.412322 0.315647 -0.052811
C60   C     C_R   0.856767 0.588339 0.684155 -0.052346
H5    H     H_    0.852376 0.212477 0.193008 0.135737
H6    H     H_    0.147000 0.785855 0.812490 0.135682
H7    H     H_    0.147008 0.714139 0.312410 0.135679
H8    H     H_    0.852365 0.287583 0.693207 0.135764
H9    H     H_    0.764021 0.226767 0.150379 0.119548
H10   H     H_    0.235235 0.769957 0.854910 0.121878
H11   H     H_    0.235248 0.730014 0.354759 0.121854
H12   H     H_    0.764013 0.273282 0.650518 0.119597
H13   H     H_    0.634936 0.874974 0.879194 0.179761
H14   H     H_    0.367488 0.190917 0.112957 0.179038
H15   H     H_    0.367492 0.309303 0.612860 0.179039
H16   H     H_    0.634959 0.624641 0.379041 0.179693
C61   C     C_R   0.479159 0.953401 0.918984 0.033342
C62   C     C_R   0.520573 0.026074 0.081385 0.034265
C63   C     C_R   0.520578 0.473977 0.581252 0.034277
C64   C     C_R   0.479174 0.546354 0.418818 0.033344
C65   C     C_R   0.469836 0.051806 0.052212 0.041232
C66   C     C_R   0.530527 0.947872 0.946205 0.040489
C67   C     C_R   0.530542 0.551902 0.446048 0.040507
C68   C     C_R   0.469842 0.448212 0.552077 0.041207
C69   C     C_R   0.449130 0.010202 0.971488 0.067125
C70   C     C_R   0.550925 0.979818 0.027904 0.067882
C71   C     C_R   0.550934 0.520103 0.527762 0.067891
C72   C     C_R   0.449141 0.489686 0.471337 0.067113
C73   C     C_R   0.456707 0.902031 0.840795 -0.220136
C74   C     C_R   0.541936 0.042850 0.162894 -0.222262
C75   C     C_R   0.541933 0.457372 0.662771 -0.222235
C76   C     C_R   0.456726 0.597573 0.340606 -0.220182
C77   C     C_R   0.406647 0.914030 0.813085 -0.052159
C78   C     C_R   0.591866 0.026777 0.191145 -0.051005
C79   C     C_R   0.591862 0.473440 0.691026 -0.050960
C80   C     C_R   0.406664 0.585591 0.312897 -0.052172
O25   O     O_2   0.303074 0.953111 0.763873 -0.505997
O26   O     O_2   0.695840 0.002130 0.239376 -0.504139
O27   O     O_2   0.695832 0.498093 0.739271 -0.504145
O28   O     O_2   0.303086 0.546628 0.263707 -0.505978
C81   C     C_R   0.562510 0.913179 0.894188 -0.175538
C82   C     C_R   0.438937 0.120543 0.100946 -0.174514
C83   C     C_R   0.438942 0.379570 0.600828 -0.174478
C84   C     C_R   0.562530 0.586484 0.394029 -0.175589
H17   H     H_    0.154415 0.386430 0.825908 0.132757
H18   H     H_    0.846304 0.613561 0.168316 0.132579
H19   H     H_    0.846324 0.886381 0.668038 0.132583
H20   H     H_    0.154414 0.113561 0.325888 0.132752
H21   H     H_    0.242785 0.367035 0.868232 0.123602
H22   H     H_    0.757937 0.631513 0.125575 0.121242
H23   H     H_    0.757958 0.868422 0.625243 0.121304
H24   H     H_    0.242788 0.132936 0.368147 0.123565
H25   H     H_    0.477277 0.846565 0.799671 0.117650
H26   H     H_    0.520273 0.064068 0.207105 0.117805
H27   H     H_    0.520263 0.436299 0.706985 0.117782
H28   H     H_    0.477300 0.652898 0.299458 0.117672
H29   H     H_    0.550506 0.898180 0.830901 0.119708
H30   H     H_    0.452004 0.166943 0.161078 0.121230
H31   H     H_    0.452008 0.333248 0.660973 0.121248
H32   H     H_    0.550531 0.601368 0.330736 0.119702
C85   C     C_1   0.388407 0.857458 0.731628 0.391195
N5    N     N_1   0.374106 0.812029 0.666439 -0.309816
C86   C     C_1   0.609023 0.047324 0.276021 0.387806
N6    N     N_1   0.622464 0.063976 0.343945 -0.311426
C87   C     C_1   0.609012 0.453028 0.775911 0.387763
N7    N     N_1   0.622447 0.436484 0.843842 -0.311451
C88   C     C_1   0.388430 0.641990 0.231414 0.391149
N8    N     N_1   0.374134 0.687277 0.166202 -0.309835

loop_
_geom_bond_atom_site_label_1
_geom_bond_atom_site_label_2
_ccdc_geom_bond_type
O17   V3    S    
C47   C51   A    
C22   C26   A    
C87   N7    T    
O19   V1    S    
O13   V1    S    
C27   H20   S    
O1    C5    A    
O3    C7    A    
C11   C12   D    
C14   C46   A    
C44   C48   A    
O4    V2    S    
O15   V3    S    
C62   C70   A    
C61   C69   A    
C68   C83   A    
C42   C54   A    
O7    C3    A    
C76   H28   S    
C41   C53   A    
C32   C60   A    
C21   H22   S    
C83   H31   S    
C63   C71   A    
N3    C39   S    
C18   C54   A    
N2    C38   S    
C24   H23   S    
C52   H16   S    
C25   C57   A    
C25   H18   S    
C31   C35   A    
C67   C84   A    
C82   H30   S    
C27   C59   A    
O1    V3    S    
C15   C47   A    
O2    V4    S    
C14   O22   S    
C21   C37   A    
O3    V1    S    
C34   C38   A    
C19   C55   A    
C73   C77   A    
C1    O15   A    
C2    O16   A    
C7    C9    S    
C50   C82   A    
O2    C6    A    
C33   C37   A    
C63   C68   A    
O14   V2    S    
C79   C87   S    
C43   C55   A    
C31   H7    S    
C76   C80   A    
C78   C86   S    
C16   N4    A    
O11   C7    A    
C44   C71   A    
O12   C8    A    
C31   C59   A    
C50   H14   S    
O10   V2    S    
C49   H13   S    
C13   N1    A    
C84   H32   S    
C77   C85   S    
O5    V1    S    
C53   C78   A    
O7    V3    S    
C55   C80   A    
C63   C75   A    
O8    V4    S    
C51   C83   A    
C12   H4    S    
C42   C69   A    
C81   H29   S    
C28   C60   A    
C41   C70   A    
C64   C72   A    
O18   V4    S    
C36   H12   S    
N4    C40   S    
C46   C50   A    
O11   V3    S    
C24   C40   A    
C8    C10   S    
C68   C72   A    
C32   C36   A    
C44   C56   A    
C11   H3    S    
C32   H8    S    
O5    C1    A    
C54   C77   A    
C42   C46   A    
C75   C79   A    
C88   N8    T    
C1    C60   S    
C41   C45   A    
O8    C4    A    
C13   C45   A    
C43   C72   A    
C9    C10   D    
O9    C5    A    
C36   C40   A    
N2    C18   A    
C21   C25   A    
C62   C65   A    
C52   C84   A    
C66   C70   A    
C61   C66   A    
C14   N2    A    
C65   C69   A    
C3    C58   S    
O6    V2    S    
C75   H27   S    
C23   H24   S    
C67   C71   A    
C65   C82   A    
C26   C58   A    
C17   C53   A    
C73   H25   S    
N1    C37   S    
C4    C57   S    
C56   C79   A    
C23   C39   A    
C22   C38   A    
O16   V4    S    
O9    V1    S    
C29   C33   A    
C18   O25   S    
C35   H11   S    
C3    O13   A    
C10   H2    S    
C48   C52   A    
C17   O26   S    
C16   C48   A    
O6    C2    A    
C34   H10   S    
C64   C76   A    
C5    C11   S    
C33   H9    S    
O12   V4    S    
C6    C12   S    
C23   C27   A    
C30   C58   A    
C24   C28   A    
O10   C6    A    
O20   V2    S    
C30   H6    S    
C29   H5    S    
C62   C74   A    
C35   C39   A    
C22   H21   S    
C15   N3    A    
C30   C34   A    
C2    C59   S    
O4    C8    A    
N1    C17   A    
C29   C57   A    
C66   C81   A    
C74   C78   A    
N3    C19   A    
C74   H26   S    
C26   H17   S    
C9    H1    S    
C20   O27   S    
C43   C47   A    
N4    C20   A    
C20   C56   A    
C51   H15   S    
C19   O28   S    
C4    O14   A    
C86   N6    T    
C13   O21   S    
C61   C73   A    
C85   N5    T    
C15   O23   S    
C64   C67   A    
C45   C49   A    
C16   O24   S    
C80   C88   S    
C49   C81   A    
C28   H19   S    
