data_str_m9_o4_o16_f0_sra.sym.77
_audit_creation_date              2012-12-11T17:00:24-0500
_audit_creation_method            fapswitch 2.2
_symmetry_space_group_name_H-M    P1
_symmetry_Int_Tables_number       1
_space_group_crystal_system       triclinic
_cell_length_a                    6.963257
_cell_length_b                    13.555845
_cell_length_c                    20.282889
_cell_angle_alpha                 103.091946
_cell_angle_beta                  90.346675
_cell_angle_gamma                 90.18129
_cell_volume                      1864.74142502

loop_
_atom_site_label
_atom_site_type_symbol
_atom_type_description
_atom_site_fract_x
_atom_site_fract_y
_atom_site_fract_z
_atom_type_partial_charge
O1    O     O_R   0.506770 0.599700 0.449550 -0.532683
O2    O     O_R   0.179980 0.595740 0.587960 -0.546829
O3    O     O_R   0.004580 0.400300 0.550450 -0.538456
C1    C     C_R   0.348255 0.616583 0.615445 0.688137
O4    O     O_R   0.177380 0.611700 0.452380 -0.550075
O5    O     O_R   0.001970 0.416370 0.413900 -0.542019
C2    C     C_R   0.345488 0.638089 0.435486 0.761541
O6    O     O_R   0.509390 0.583630 0.586100 -0.539811
O7    O     O_3   0.337530 0.435890 0.487530 -0.369587
V1    V     V_3+5 0.064660 0.511890 0.502310 1.402582
O8    O     O_R   0.671950 0.404260 0.412040 -0.534316
C3    C     C_R   0.840281 0.383365 0.384591 0.696082
O9    O     O_R   0.674540 0.388300 0.547620 -0.541415
C4    C     C_R   0.843731 0.361832 0.564401 0.693231
V2    V     V_3+5 0.564030 0.488110 0.497690 1.428211
O10   O     O_3   0.841030 0.564110 0.512470 -0.375506
C5    C     C_R   0.919637 0.112637 0.611451 -0.159230
H1    H     H_    0.912745 0.162347 0.518309 0.102097
H2    H     H_    0.962961 0.989404 0.694875 0.123832
H3    H     H_    0.951829 0.035215 0.586039 0.110448
C6    C     C_R   0.855287 0.284732 0.604238 -0.030808
C7    C     C_R   0.817302 0.315399 0.930284 -0.168987
C8    C     C_R   0.794866 0.390913 0.894668 -0.119510
C9    C     C_R   0.809836 0.368417 0.824365 -0.159136
C10   C     C_R   0.849192 0.268621 0.787568 0.077652
C11   C     C_R   0.875623 0.191901 0.824655 0.069517
C12   C     C_R   0.862566 0.242296 0.715365 0.072662
C13   C     C_R   0.903829 0.140426 0.682222 0.142801
C14   C     C_R   0.930750 0.067063 0.719808 -0.207153
C15   C     C_R   0.917347 0.092300 0.789827 -0.199529
C16   C     C_R   0.837437 0.313457 0.674646 -0.216162
C17   C     C_R   0.896759 0.184570 0.572765 -0.173334
C18   C     C_R   0.857839 0.216214 0.896077 -0.075796
H4    H     H_    0.807145 0.392117 0.695838 0.089522
H5    H     H_    0.802040 0.334236 0.984844 0.100858
H6    H     H_    0.789396 0.431002 0.800558 0.103940
H7    H     H_    0.763886 0.467587 0.921736 0.116922
H8    H     H_    0.940990 0.032856 0.816613 0.117607
C19   C     C_R   0.710355 0.181910 0.227068 0.118474
C20   C     C_R   0.866878 0.183748 0.184307 -0.113230
C21   C     C_R   0.021891 0.247958 0.210577 -0.186266
H9    H     H_    0.144517 0.252962 0.179170 0.138424
C22   C     C_R   0.014370 0.311627 0.275921 -0.186374
H10   H     H_    0.131912 0.363584 0.292991 0.143311
C23   C     C_R   0.851253 0.313262 0.316951 -0.114050
C24   C     C_R   0.702707 0.245098 0.291767 0.104793
C25   C     C_3   0.495440 0.266981 0.284311 -0.412283
C26   C     C_3   0.503828 0.198789 0.213964 -0.410826
H11   H     H_    0.470006 0.347853 0.284076 0.192055
H12   H     H_    0.404525 0.235881 0.319738 0.173336
H13   H     H_    0.483554 0.239948 0.172840 0.169790
H14   H     H_    0.416785 0.128853 0.208745 0.169153
C27   C     C_R   0.504254 0.753297 0.704915 0.098193
C28   C     C_R   0.351624 0.686444 0.683254 -0.110352
C29   C     C_R   0.193585 0.691581 0.727135 -0.171537
H15   H     H_    0.072740 0.641027 0.712558 0.130459
C30   C     C_R   0.195573 0.756714 0.792069 -0.189863
H16   H     H_    0.076862 0.754559 0.825752 0.131745
C31   C     C_R   0.356120 0.818204 0.815185 -0.112569
C32   C     C_R   0.506862 0.817160 0.769428 0.119717
C33   C     C_3   0.715221 0.799023 0.778464 -0.408778
C34   C     C_3   0.712196 0.730087 0.708188 -0.410151
H17   H     H_    0.741703 0.758011 0.819283 0.168194
H18   H     H_    0.802895 0.868433 0.781660 0.169999
H19   H     H_    0.737288 0.649106 0.708144 0.164304
H20   H     H_    0.797170 0.760117 0.670762 0.174212
C35   C     C_R   0.272745 0.884808 0.386089 -0.164317
H21   H     H_    0.253656 0.833838 0.478249 0.126640
H22   H     H_    0.249770 0.009127 0.303212 0.121648
H23   H     H_    0.231270 0.961282 0.410593 0.123494
C36   C     C_R   0.349031 0.715110 0.395375 -0.119389
C37   C     C_R   0.381039 0.681660 0.068213 -0.164145
C38   C     C_R   0.376868 0.604661 0.103164 -0.148768
C39   C     C_R   0.361736 0.627483 0.173463 -0.142756
C40   C     C_R   0.355465 0.729119 0.211134 0.080380
C41   C     C_R   0.342138 0.806876 0.174293 0.068325
C42   C     C_R   0.351209 0.756199 0.283692 -0.031136
C43   C     C_R   0.303032 0.857635 0.316099 0.093317
C44   C     C_R   0.283339 0.931517 0.278569 -0.181869
C45   C     C_R   0.307540 0.907149 0.209070 -0.198040
C46   C     C_R   0.393346 0.687793 0.326047 0.365636
C47   C     C_R   0.287842 0.812927 0.424853 -0.256744
C48   C     C_R   0.360488 0.782457 0.102944 -0.077400
H24   H     H_    0.395693 0.662476 0.013636 0.101514
H25   H     H_    0.346445 0.563680 0.196346 0.172790
H26   H     H_    0.384159 0.526443 0.075530 0.121496
H27   H     H_    0.291258 0.967137 0.182369 0.116066
O11   O     O_R   0.203450 0.916320 0.913910 -0.542079
O12   O     O_R   0.535520 0.888300 0.047620 -0.539125
O13   O     O_R   0.710860 0.083650 0.086100 -0.537334
C49   C     C_R   0.367155 0.861176 0.063924 0.688111
O14   O     O_R   0.532860 0.904250 0.912040 -0.542211
O15   O     O_R   0.708190 0.099710 0.949550 -0.536426
C50   C     C_R   0.364243 0.883034 0.884676 0.695716
O16   O     O_R   0.206120 0.900260 0.050460 -0.538917
O17   O     O_3   0.375280 0.064080 0.012470 -0.371211
V3    V     V_3+5 0.648180 0.988110 0.997690 1.415085
O18   O     O_R   0.038220 0.111740 0.952370 -0.540813
C51   C     C_R   0.869064 0.138279 0.935661 0.687796
O19   O     O_R   0.040880 0.095790 0.087940 -0.546385
C52   C     C_R   0.872724 0.117769 0.115064 0.693913
V4    V     V_3+5 0.148800 0.011950 0.002300 1.405792
O20   O     O_3   0.871820 0.935920 0.987530 -0.371382
O21   O     O_3   0.475446 0.594045 0.301439 -0.579464
C53   C     C_3   0.676037 0.606916 0.298137 -0.256607
H28   H     H_    0.738651 0.640675 0.348904 0.150379
H29   H     H_    0.714156 0.653956 0.261692 0.145556
H30   H     H_    0.742286 0.531394 0.279937 0.155686

loop_
_geom_bond_atom_site_label_1
_geom_bond_atom_site_label_2
_ccdc_geom_bond_type
C29   H15   S    
O17   V4    S    
C21   H9    S    
C1    O6    A    
C25   H11   S    
C42   C43   A    
C7    H5    S    
C6    C16   A    
C9    H6    S    
C4    C6    S    
C13   C14   A    
C45   H27   S    
O5    C3    A    
C30   C31   A    
V2    O10   S    
C5    H3    S    
C15   H8    S    
C38   C39   A    
C33   H17   S    
C20   C52   S    
C28   C29   A    
O8    V2    S    
C26   H13   S    
C8    C9    A    
O1    V2    S    
C31   C50   S    
O12   C49   A    
O7    V1    S    
O15   C51   A    
O13   V3    S    
O16   V4    S    
C36   C47   A    
C31   C32   A    
O9    C4    A    
C21   C22   A    
V4    O20   S    
C35   C43   A    
C41   C48   A    
O14   C50   A    
O21   C53   S    
C53   H30   S    
C27   C32   A    
O14   V3    S    
C25   H12   S    
C6    C17   A    
O11   C50   A    
C39   C40   A    
C34   H20   S    
C12   C16   A    
C9    C10   A    
C19   C20   A    
O4    C2    A    
C43   C44   A    
C3    C23   S    
C10   C11   A    
O18   V4    S    
O12   V3    S    
C32   C33   S    
C18   C51   S    
C33   H18   S    
O2    C1    A    
C40   C41   A    
O13   C52   A    
C14   C15   A    
C8    H7    S    
C53   H29   S    
C27   C34   S    
C11   C18   A    
C25   C26   S    
C42   C46   A    
O17   V3    S    
O19   V4    S    
C16   H4    S    
C37   H24   S    
C40   C42   A    
V3    O20   S    
O3    C4    A    
C19   C24   A    
C20   C21   A    
C11   C15   A    
O6    V2    S    
O9    V2    S    
C22   H10   S    
H22   C44   S    
H1    C17   S    
O2    V1    S    
O15   V3    S    
C7    C18   A    
C24   C25   S    
C34   H19   S    
C1    C28   S    
O1    C2    A    
C5    C13   A    
C41   C45   A    
C37   C38   A    
O5    V1    S    
O11   V4    S    
O8    C3    A    
C27   C28   A    
C10   C12   A    
C48   C49   S    
C53   H28   S    
C35   H23   S    
H21   C47   S    
C29   C30   A    
O7    V2    S    
O4    V1    S    
C22   C23   A    
O3    V1    S    
V1    O10   S    
C2    C36   S    
C30   H16   S    
O19   C52   A    
C39   H25   S    
C33   C34   S    
C38   H26   S    
C37   C48   A    
C49   O16   A    
C44   C45   A    
C23   C24   A    
C26   H14   S    
C35   C47   A    
O18   C51   A    
C12   C13   A    
C5    C17   A    
C7    C8    A    
C19   C26   S    
C36   C46   A    
C46   O21   S    
H2    C14   S    
