data_str_m3_o14_o17_f0_pcu.sym.100
_audit_creation_date              2012-12-10T17:43:31-0500
_audit_creation_method            fapswitch 2.2
_symmetry_space_group_name_H-M    P1
_symmetry_Int_Tables_number       1
_space_group_crystal_system       triclinic
_cell_length_a                    14.966651
_cell_length_b                    10.647455
_cell_length_c                    9.96832
_cell_angle_alpha                 91.275107
_cell_angle_beta                  89.934149
_cell_angle_gamma                 93.367718
_cell_volume                      1585.38306758

loop_
_atom_site_label
_atom_site_type_symbol
_atom_type_description
_atom_site_fract_x
_atom_site_fract_y
_atom_site_fract_z
_atom_type_partial_charge
C1    C     C_R   0.514706 0.264184 0.498888 0.944482
C2    C     C_R   0.181587 0.445601 0.587754 -0.215229
C3    C     C_R   0.231757 0.518984 0.498983 -0.169232
C4    C     C_R   0.327434 0.507256 0.499955 0.966902
C5    C     C_R   0.190381 0.595599 0.406575 -0.096859
C6    C     C_R   0.613038 0.150540 0.719757 -0.123780
C7    C     C_R   0.628009 0.095632 0.841986 -0.081437
C8    C     C_R   0.597525 0.972019 0.861387 -0.106868
C9    C     C_R   0.557551 0.900605 0.756043 -0.106765
C10   C     C_R   0.551624 0.949688 0.624812 0.084723
C11   C     C_R   0.570104 0.080140 0.613803 0.071287
C12   C     C_R   0.907574 0.582964 0.397772 0.027236
C13   C     C_R   0.543361 0.137336 0.496590 -0.155868
C14   C     C_R   0.538372 0.069321 0.377103 -0.194917
C15   C     C_R   0.535949 0.940492 0.377856 -0.030026
C16   C     C_R   0.507792 0.741709 0.501657 0.923095
C17   C     C_R   0.529643 0.878063 0.503426 -0.182821
C18   C     C_R   0.347452 0.398462 0.134087 -0.095830
C19   C     C_R   0.266326 0.399863 0.064816 -0.180002
C20   C     C_R   0.268420 0.391312 0.925623 -0.229017
C21   C     C_R   0.351556 0.388736 0.861081 -0.006612
C22   C     C_R   0.426005 0.450012 0.926959 0.101405
C23   C     C_R   0.948827 0.364811 0.677574 -0.189717
C24   C     C_R   0.425272 0.451905 0.070728 0.146657
C25   C     C_R   0.572319 0.542130 0.073902 -0.086854
C26   C     C_R   0.572868 0.543487 0.931790 -0.050700
C27   C     C_R   0.672791 0.502113 0.499719 0.862551
C28   C     C_R   0.814363 0.579940 0.403768 -0.190934
C29   C     C_R   0.768198 0.506139 0.497959 -0.049497
C30   C     C_R   0.812365 0.435109 0.588771 -0.255583
C31   C     C_R   0.904538 0.436813 0.586308 0.126401
C32   C     C_R   0.952829 0.511567 0.491619 0.065611
C33   C     C_2   0.538986 0.878182 0.243815 0.932252
C34   C     C_R   0.041241 0.367142 0.676944 -0.181573
C35   C     C_2   0.354067 0.283530 0.213546 1.018192
C36   C     C_2   0.364956 0.268549 0.789115 0.973265
C37   C     C_2   0.657493 0.589417 0.869851 0.968768
C38   C     C_2   0.246098 0.683415 0.323115 0.941133
C39   C     C_2   0.914737 0.729797 0.197985 0.918420
C40   C     C_R   0.089771 0.442758 0.586207 0.115662
C41   C     C_R   0.046230 0.515284 0.492551 0.061054
C42   C     C_R   0.096045 0.592390 0.402047 0.014102
C43   C     C_R   0.050323 0.664573 0.310927 -0.216940
C44   C     C_R   0.956931 0.658031 0.304717 -0.047207
H1    H     H_    0.636047 0.247873 0.708059 0.147050
H2    H     H_    0.244865 0.313205 0.327543 0.295979
H3    H     H_    0.203842 0.372054 0.113816 0.156932
H4    H     H_    0.208110 0.353626 0.876421 0.150417
H5    H     H_    0.423507 0.103299 0.791339 0.355119
H6    H     H_    0.774792 0.377817 0.660451 0.154406
H7    H     H_    0.791182 0.575966 0.858264 0.362102
H8    H     H_    0.074688 0.310161 0.747781 0.154251
H9    H     H_    0.336479 0.831182 0.319526 0.382338
H10   H     H_    0.086749 0.724640 0.241100 0.213764
H11   H     H_    0.917127 0.888928 0.091522 0.353757
H12   H     H_    0.531490 0.809591 0.784640 0.200685
H13   H     H_    0.535842 0.116528 0.282397 0.222289
H14   H     H_    0.911982 0.306873 0.749363 0.161779
H15   H     H_    0.214254 0.387618 0.656407 0.194821
H16   H     H_    0.776399 0.637222 0.339159 0.196344
H17   H     H_    0.660387 0.150233 0.923004 0.153482
H18   H     H_    0.605625 0.930783 0.958400 0.175366
H19   H     H_    0.476215 0.838329 0.067685 0.334377
H20   H     H_    0.631049 0.576725 0.129748 0.208602
N1    N     N_R   0.499150 0.498800 0.142780 -0.135216
N2    N     N_R   0.499120 0.498720 0.857170 -0.168340
O1    O     O_R   0.500000 0.316780 0.614690 -0.623267
O2    O     O_R   0.469151 0.890459 0.152944 -0.769354
O3    O     O_2   0.409030 0.208544 0.180643 -0.562611
O4    O     O_R   0.292636 0.250715 0.314563 -0.740761
O5    O     O_2   0.318265 0.234407 0.693110 -0.629886
O6    O     O_R   0.426543 0.188120 0.839757 -0.771454
O7    O     O_2   0.659416 0.677612 0.793748 -0.628212
O8    O     O_R   0.736919 0.535554 0.904932 -0.792542
O9    O     O_2   0.243111 0.674377 0.200689 -0.609287
O10   O     O_R   0.303044 0.775269 0.385968 -0.787703
O11   O     O_2   0.851704 0.682334 0.133052 -0.609571
O12   O     O_R   0.499990 0.316750 0.385360 -0.607462
O13   O     O_R   0.950428 0.850049 0.167215 -0.783957
O14   O     O_R   0.367850 0.499980 0.614680 -0.613950
O15   O     O_R   0.367840 0.499960 0.385350 -0.645121
O16   O     O_R   0.500010 0.683250 0.614640 -0.617126
O17   O     O_R   0.500000 0.683220 0.385310 -0.593038
O18   O     O_R   0.632160 0.500040 0.614650 -0.622800
O19   O     O_R   0.632150 0.500020 0.385320 -0.631615
O20   O     O_2   0.603411 0.818464 0.212364 -0.648591
Zn1   Zn    Zn3+2 0.500010 0.500020 0.653130 0.991251
Zn2   Zn    Zn3+2 0.499990 0.499980 0.346870 1.007817

loop_
_geom_bond_atom_site_label_1
_geom_bond_atom_site_label_2
_ccdc_geom_bond_type
C23   H14   S    
C37   O8    S    
C6    H1    S    
C27   C29   S    
C41   C42   A    
C19   C20   A    
O18   Zn1   S    
C5    C42   A    
C7    C8    A    
C21   C36   S    
C38   O10   S    
C12   C28   A    
C34   C40   A    
C39   O11   D    
C27   O18   A    
C4    O14   A    
O14   Zn1   S    
C30   C31   A    
C19   H3    S    
C10   C17   A    
O16   Zn1   S    
C18   C19   A    
C27   O19   A    
C7    H17   S    
C22   N2    A    
C4    O15   A    
C35   O4    S    
C8    C9    A    
H5    O6    S    
C32   C41   A    
H7    O8    S    
C18   C24   A    
C13   C14   A    
C9    C10   A    
C36   O5    D    
O17   Zn2   S    
C30   H6    S    
C21   C22   A    
C12   C32   A    
C1    O12   A    
C38   O9    D    
C28   H16   S    
C26   N2    A    
C25   N1    A    
C6    C11   A    
C2    H15   S    
C16   C17   S    
C25   C26   A    
C16   O17   A    
C25   H20   S    
C23   C31   A    
C43   C44   A    
C29   C30   A    
H11   O13   S    
C43   H10   S    
C31   C32   A    
C23   C34   A    
C16   O16   A    
C9    H12   S    
C20   H4    S    
C24   N1    A    
C40   C41   A    
C22   C24   A    
H9    O10   S    
C1    C13   S    
C42   C43   A    
C39   C44   S    
C3    C4    S    
N2    Zn1   S    
N1    Zn2   S    
C18   C35   S    
O19   Zn2   S    
O12   Zn2   S    
C15   C17   A    
C14   H13   S    
C37   O7    D    
H19   O2    S    
C28   C29   A    
O1    Zn1   S    
C3    C5    A    
C26   C37   S    
C6    C7    A    
C34   H8    S    
C2    C3    A    
C12   C44   A    
C11   C13   A    
C1    O1    A    
H2    O4    S    
O15   Zn2   S    
C10   C11   A    
C2    C40   A    
C20   C21   A    
C35   O3    D    
C8    H18   S    
C14   C15   A    
C5    C38   S    
C15   C33   S    
C33   O20   D    
C36   O6    S    
C33   O2    S    
C39   O13   S    
