data_str_m3_o38_o40_f0_fof.sym.56
_audit_creation_date              2012-10-26T21:33:01-0400
_audit_creation_method            fapswitch 2.2
_symmetry_space_group_name_H-M    P1
_symmetry_Int_Tables_number       1
_space_group_crystal_system       triclinic
_cell_length_a                    28.338466
_cell_length_b                    18.35558
_cell_length_c                    16.977593
_cell_angle_alpha                 90.380748
_cell_angle_beta                  61.009886
_cell_angle_gamma                 89.492468
_cell_volume                      7723.78814421

loop_
_atom_site_label
_atom_site_type_symbol
_atom_type_description
_atom_site_fract_x
_atom_site_fract_y
_atom_site_fract_z
_atom_type_partial_charge
C1    C     C_R   0.701071 0.267161 0.676116 0.986387
C2    C     C_R   0.978446 0.617178 0.414616 -0.275600
C3    C     C_R   0.070893 0.896635 0.936612 0.952921
C4    C     C_R   0.571751 0.602737 0.936458 0.940029
C5    C     C_R   0.428244 0.397253 0.063515 0.974739
C6    C     C_R   0.421616 0.593478 0.070726 0.964408
C7    C     C_R   0.570893 0.396635 0.936612 0.952926
C8    C     C_R   0.546587 0.997996 0.511624 0.030195
C9    C     C_R   0.452825 0.001755 0.491218 0.027855
C10   C     C_R   0.046587 0.497996 0.511624 0.030194
C11   C     C_R   0.952825 0.501755 0.491218 0.027854
C12   C     C_R   0.538185 0.055319 0.463869 0.037347
C13   C     C_R   0.919005 0.394840 0.583022 -0.245886
C14   C     C_R   0.461243 0.944094 0.538709 0.018624
C15   C     C_R   0.490184 0.058693 0.456428 0.042637
C16   C     C_R   0.508795 0.941506 0.547879 0.042789
C17   C     C_R   0.038185 0.555319 0.463869 0.037346
C18   C     C_R   0.961243 0.444094 0.538709 0.018624
C19   C     C_R   0.990184 0.558693 0.456428 0.042638
C20   C     C_R   0.008795 0.441507 0.547879 0.042789
C21   C     C_R   0.605265 0.937472 0.562967 -0.026646
C22   C     C_R   0.394258 0.062877 0.439864 -0.029562
C23   C     C_R   0.369085 0.945381 0.512843 -0.063485
C24   C     C_R   0.080817 0.603451 0.417158 -0.277223
C25   C     C_R   0.631006 0.054196 0.487479 -0.033644
C26   C     C_R   0.105265 0.437472 0.562967 -0.026646
C27   C     C_R   0.894258 0.562877 0.439864 -0.029562
C28   C     C_R   0.869085 0.445381 0.512844 -0.063483
C29   C     C_R   0.131006 0.554196 0.487479 -0.033644
C30   C     C_R   0.656668 0.935842 0.559673 -0.057313
C31   C     C_R   0.343216 0.064188 0.441711 -0.057496
C32   C     C_R   0.329847 0.939945 0.483134 -0.089551
C33   C     C_R   0.670346 0.059874 0.516873 -0.075912
C34   C     C_R   0.156668 0.435842 0.559673 -0.057313
C35   C     C_R   0.519703 0.884601 0.592927 -0.284509
C36   C     C_R   0.843216 0.564188 0.441711 -0.057496
C37   C     C_R   0.829847 0.439945 0.483134 -0.089546
C38   C     C_R   0.170347 0.559874 0.516873 -0.075912
C39   C     C_R   0.682881 0.000025 0.551809 -0.285520
C40   C     C_R   0.317354 0.999929 0.448427 -0.294449
C41   C     C_R   0.182881 0.500025 0.551809 -0.285520
C42   C     C_R   0.817354 0.499929 0.448427 -0.294449
C43   C     C_R   0.593757 0.996842 0.521706 -0.027562
C44   C     C_R   0.405977 0.002990 0.480121 -0.023344
C45   C     C_R   0.093757 0.496842 0.521706 -0.027562
C46   C     C_R   0.478446 0.117178 0.414616 -0.275600
C47   C     C_R   0.905977 0.502990 0.480121 -0.023346
C48   C     C_R   0.065507 0.383493 0.604245 0.397576
C49   C     C_R   0.933165 0.618205 0.401955 0.406100
C50   C     C_R   0.871953 0.399106 0.576443 0.424382
C51   C     C_R   0.127919 0.600243 0.423660 0.407451
C52   C     C_R   0.565507 0.883493 0.604245 0.397577
C53   C     C_R   0.433165 0.118206 0.401955 0.406100
C54   C     C_R   0.371953 0.899106 0.576443 0.424378
C55   C     C_R   0.627919 0.100243 0.423660 0.407452
C56   C     C_R   0.419005 0.894840 0.583021 -0.245884
C57   C     C_R   0.580817 0.103451 0.417158 -0.277223
C58   C     C_R   0.714724 0.259828 0.960535 0.129508
C59   C     C_R   0.275283 0.734157 0.052664 0.149775
C60   C     C_R   0.279913 0.264918 0.044968 0.160434
C61   C     C_R   0.300706 0.737429 0.323402 0.962067
C62   C     C_R   0.718518 0.737852 0.956510 0.148925
C63   C     C_R   0.214724 0.759828 0.960535 0.129508
C64   C     C_R   0.775283 0.234157 0.052664 0.149774
C65   C     C_R   0.779913 0.764918 0.044968 0.160429
C66   C     C_R   0.218518 0.237851 0.956510 0.148934
C67   C     C_R   0.767579 0.229796 0.915424 -0.105787
C68   C     C_R   0.224882 0.769886 0.095919 -0.128481
C69   C     C_R   0.260768 0.194809 0.043958 -0.121285
C70   C     C_R   0.737588 0.808016 0.957624 -0.139137
C71   C     C_R   0.267578 0.729796 0.915424 -0.105787
C72   C     C_R   0.297168 0.270865 0.324402 0.945253
C73   C     C_R   0.724882 0.269886 0.095919 -0.128480
C74   C     C_R   0.760768 0.694809 0.043958 -0.121274
C75   C     C_R   0.237588 0.308015 0.957624 -0.139133
C76   C     C_R   0.797807 0.220045 0.959808 -0.084459
C77   C     C_R   0.196746 0.785667 0.049286 -0.080494
C78   C     C_R   0.230839 0.181328 0.999573 -0.079051
C79   C     C_R   0.767524 0.821515 0.002045 -0.070925
C80   C     C_R   0.297807 0.720045 0.959808 -0.084459
C81   C     C_R   0.696746 0.285667 0.049286 -0.080494
C82   C     C_R   0.730838 0.681328 0.999573 -0.079025
C83   C     C_R   0.702761 0.729297 0.675646 0.939139
C84   C     C_R   0.267525 0.321515 0.002045 -0.070926
C85   C     C_R   0.629329 0.304091 0.955755 0.316760
C86   C     C_R   0.339338 0.650003 0.076436 0.410729
C87   C     C_R   0.363868 0.313043 0.044969 0.448263
C88   C     C_R   0.635084 0.688601 0.955612 0.437510
C89   C     C_R   0.129329 0.804091 0.955755 0.316759
C90   C     C_R   0.839338 0.150003 0.076436 0.410730
C91   C     C_R   0.863868 0.813043 0.044969 0.448263
C92   C     C_R   0.135084 0.188601 0.955612 0.437510
C93   C     C_R   0.611152 0.339820 0.901625 -0.137900
C94   C     C_R   0.201071 0.767161 0.676116 0.986387
C95   C     C_R   0.376332 0.643109 0.110141 -0.182948
C96   C     C_R   0.387004 0.341607 0.097024 -0.173696
C97   C     C_R   0.612688 0.658830 0.903061 -0.202228
C98   C     C_R   0.111152 0.839820 0.901625 -0.137899
C99   C     C_R   0.876332 0.143109 0.110141 -0.182948
C100  C     C_R   0.887004 0.841607 0.097025 -0.173696
C101  C     C_R   0.112688 0.158831 0.903061 -0.202229
C102  C     C_R   0.633982 0.325128 0.811458 -0.261937
C103  C     C_R   0.368677 0.681860 0.185111 -0.262347
C104  C     C_R   0.366302 0.323444 0.186265 -0.202132
C105  C     C_R   0.800706 0.237429 0.323402 0.962067
C106  C     C_R   0.633716 0.676477 0.813603 -0.233669
C107  C     C_R   0.133982 0.825128 0.811458 -0.261934
C108  C     C_R   0.868677 0.181860 0.185111 -0.262348
C109  C     C_R   0.866302 0.823444 0.186265 -0.202132
C110  C     C_R   0.133716 0.176477 0.813603 -0.233669
C111  C     C_R   0.677418 0.279038 0.771916 -0.022485
C112  C     C_R   0.324829 0.727442 0.226601 -0.044924
C113  C     C_R   0.319566 0.284298 0.228743 -0.042290
C114  C     C_R   0.680099 0.716375 0.771478 -0.036103
C115  C     C_R   0.177418 0.779038 0.771916 -0.022485
C116  C     C_R   0.797168 0.770865 0.324402 0.945253
C117  C     C_R   0.824829 0.227442 0.226601 -0.044924
C118  C     C_R   0.819566 0.784299 0.228743 -0.042291
C119  C     C_R   0.180099 0.216375 0.771478 -0.036103
C120  C     C_R   0.702059 0.252517 0.821341 -0.132032
C121  C     C_R   0.297824 0.750753 0.179531 -0.143618
C122  C     C_R   0.291821 0.263958 0.181860 -0.254961
C123  C     C_R   0.707239 0.737946 0.818942 -0.262510
C124  C     C_R   0.202059 0.752517 0.821341 -0.132031
C125  C     C_R   0.797824 0.250753 0.179531 -0.143618
C126  C     C_R   0.791821 0.763958 0.181860 -0.254958
C127  C     C_R   0.202761 0.229297 0.675646 0.939140
C128  C     C_R   0.207240 0.237946 0.818942 -0.262510
C129  C     C_R   0.681313 0.270895 0.913171 -0.046684
C130  C     C_R   0.305010 0.712270 0.102237 -0.000384
C131  C     C_R   0.312985 0.279461 0.090200 -0.039584
C132  C     C_R   0.685750 0.722894 0.910802 -0.052696
C133  C     C_R   0.181313 0.770895 0.913171 -0.046684
C134  C     C_R   0.805010 0.212270 0.102237 -0.000384
C135  C     C_R   0.812985 0.779461 0.090201 -0.039585
C136  C     C_R   0.185751 0.222894 0.910802 -0.052695
C137  C     C_R   0.696839 0.127188 0.517322 0.968513
C138  C     C_R   0.019703 0.384601 0.592927 -0.284510
C139  C     C_R   0.303136 0.872785 0.482864 0.973444
C140  C     C_R   0.309127 0.129590 0.462743 0.933947
C141  C     C_R   0.690763 0.870309 0.537837 0.953463
C142  C     C_R   0.196839 0.627188 0.517322 0.968514
C143  C     C_R   0.803136 0.372785 0.482864 0.973445
C144  C     C_R   0.809127 0.629590 0.462743 0.933947
C145  C     C_R   0.190762 0.370309 0.537837 0.953463
C146  C     C_R   0.071752 0.102737 0.936458 0.940022
C147  C     C_R   0.928244 0.897253 0.063515 0.974735
C148  C     C_R   0.921616 0.093478 0.070726 0.964403
H1    H     H_    0.716898 0.001233 0.564468 0.193007
H2    H     H_    0.504310 0.163640 0.390228 0.155296
H3    H     H_    0.418506 0.857537 0.632068 0.191667
H4    H     H_    0.581122 0.139005 0.366713 0.170992
H5    H     H_    0.660901 0.318593 0.084230 0.197374
H6    H     H_    0.338742 0.699572 0.921358 0.174957
H7    H     H_    0.281009 0.376349 0.003124 0.180315
H8    H     H_    0.717384 0.626492 0.998479 0.168602
H9    H     H_    0.160901 0.818593 0.084230 0.197374
H10   H     H_    0.838742 0.199572 0.921358 0.174957
H11   H     H_    0.781009 0.876349 0.003124 0.180316
H12   H     H_    0.283539 0.998743 0.435243 0.193341
H13   H     H_    0.217385 0.126491 0.998479 0.168601
H14   H     H_    0.787294 0.214554 0.845217 0.164364
H15   H     H_    0.206538 0.786036 0.165905 0.152692
H16   H     H_    0.269792 0.150243 0.076225 0.149319
H17   H     H_    0.728602 0.852552 0.925271 0.152575
H18   H     H_    0.287294 0.714554 0.845217 0.164364
H19   H     H_    0.706538 0.286036 0.165905 0.152692
H20   H     H_    0.769792 0.650243 0.076225 0.149320
H21   H     H_    0.228602 0.352552 0.925271 0.152574
H22   H     H_    0.618284 0.350797 0.771376 0.200803
H23   H     H_    0.216898 0.501233 0.564468 0.193006
H24   H     H_    0.393252 0.670556 0.216729 0.203314
H25   H     H_    0.385437 0.342897 0.224243 0.217578
H26   H     H_    0.615135 0.656037 0.775191 0.217314
H27   H     H_    0.118284 0.850797 0.771376 0.200803
H28   H     H_    0.893251 0.170556 0.216729 0.203316
H29   H     H_    0.885437 0.842897 0.224243 0.217578
H30   H     H_    0.115135 0.156038 0.775191 0.217315
H31   H     H_    0.737213 0.217968 0.787063 0.179655
H32   H     H_    0.268552 0.794752 0.207511 0.165365
H33   H     H_    0.253081 0.237562 0.216925 0.182841
H34   H     H_    0.783539 0.498743 0.435243 0.193341
H35   H     H_    0.745795 0.764837 0.784169 0.182955
H36   H     H_    0.237213 0.717968 0.787063 0.179655
H37   H     H_    0.768552 0.294752 0.207511 0.165366
H38   H     H_    0.753081 0.737563 0.216925 0.182845
H39   H     H_    0.245795 0.264836 0.784169 0.182954
H40   H     H_    0.052455 0.225204 0.622326 0.335249
H41   H     H_    0.016293 0.720670 0.256685 0.390050
H42   H     H_    0.754828 0.450430 0.685785 0.352855
H43   H     H_    0.148064 0.733319 0.315411 0.335698
H44   H     H_    0.552455 0.725204 0.622327 0.335249
H45   H     H_    0.992787 0.339615 0.621572 0.169895
H46   H     H_    0.516293 0.220670 0.256685 0.390050
H47   H     H_    0.254830 0.950430 0.685780 0.352853
H48   H     H_    0.648064 0.233319 0.315411 0.335698
H49   H     H_    0.604582 0.160595 0.046965 0.377152
H50   H     H_    0.258475 0.531685 0.013207 0.378108
H51   H     H_    0.398782 0.247965 0.818000 0.384635
H52   H     H_    0.586554 0.617234 0.182135 0.378649
H53   H     H_    0.104582 0.660595 0.046965 0.377151
H54   H     H_    0.758475 0.031685 0.013207 0.378108
H55   H     H_    0.898782 0.747965 0.818000 0.384635
H56   H     H_    0.004311 0.663640 0.390227 0.155296
H57   H     H_    0.086586 0.117259 0.182139 0.378647
H58   H     H_    0.918506 0.357537 0.632069 0.191667
H59   H     H_    0.081123 0.639005 0.366713 0.170992
H60   H     H_    0.492787 0.839615 0.621572 0.169894
O1    O     O_R   0.746490 0.236330 0.638080 -0.581028
O2    O     O_R   0.325830 0.813840 0.483730 -0.609940
O3    O     O_R   0.325830 0.186160 0.483730 -0.590644
O4    O     O_R   0.674170 0.813840 0.516270 -0.588280
O5    O     O_R   0.174170 0.686160 0.516270 -0.606970
O6    O     O_R   0.825830 0.313840 0.483730 -0.609940
O7    O     O_R   0.825830 0.686160 0.483730 -0.590644
O8    O     O_R   0.174170 0.313840 0.516270 -0.588280
O9    O     O_R   0.739960 0.127620 0.525000 -0.645258
O10   O     O_R   0.260040 0.872380 0.475000 -0.651744
O11   O     O_R   0.260040 0.127620 0.475000 -0.645022
O12   O     O_R   0.253510 0.763670 0.361920 -0.557409
O13   O     O_R   0.739960 0.872380 0.525000 -0.642065
O14   O     O_R   0.239960 0.627620 0.525000 -0.645258
O15   O     O_R   0.760040 0.372380 0.475000 -0.651744
O16   O     O_R   0.760040 0.627620 0.475000 -0.645022
O17   O     O_R   0.239960 0.372380 0.525000 -0.642065
O18   O     O_R   0.680700 0.294870 0.629350 -0.637485
O19   O     O_R   0.319300 0.705130 0.370650 -0.630048
O20   O     O_R   0.319300 0.294870 0.370650 -0.571945
O21   O     O_R   0.680700 0.705130 0.629350 -0.565850
O22   O     O_R   0.180700 0.794870 0.629350 -0.637485
O23   O     O_R   0.253510 0.236330 0.361920 -0.648765
O24   O     O_R   0.819300 0.205130 0.370650 -0.630047
O25   O     O_R   0.819300 0.794870 0.370650 -0.571945
O26   O     O_R   0.180700 0.205130 0.629350 -0.565849
O27   O     O_R   0.062020 0.072840 0.007170 -0.546383
O28   O     O_R   0.937980 0.927160 0.992830 -0.528545
O29   O     O_R   0.937980 0.072840 0.992830 -0.568446
O30   O     O_R   0.062020 0.927160 0.007170 -0.578046
O31   O     O_R   0.562020 0.572840 0.007170 -0.546404
O32   O     O_R   0.437980 0.427160 0.992830 -0.528544
O33   O     O_R   0.437980 0.572840 0.992830 -0.568445
O34   O     O_R   0.746490 0.763670 0.638080 -0.650663
O35   O     O_R   0.562020 0.427160 0.007170 -0.578049
O36   O     O_R   0.947860 0.073950 0.109290 -0.622854
O37   O     O_R   0.052140 0.926050 0.890710 -0.628924
O38   O     O_R   0.052140 0.073950 0.890710 -0.636536
O39   O     O_R   0.947860 0.926050 0.109290 -0.626252
O40   O     O_R   0.447860 0.573950 0.109290 -0.622859
O41   O     O_R   0.552140 0.426050 0.890710 -0.628923
O42   O     O_R   0.552140 0.573950 0.890710 -0.636533
O43   O     O_R   0.447860 0.426050 0.109290 -0.626252
O44   O     O_2   0.102763 0.342723 0.718162 -0.298923
O45   O     O_R   0.246490 0.736330 0.638080 -0.581029
O46   O     O_2   0.008506 0.319070 0.763867 -0.278994
O47   O     O_3   0.080873 0.237225 0.638124 -0.521957
O48   O     O_2   0.918415 0.755994 0.365122 -0.305885
O49   O     O_2   0.898439 0.659700 0.284747 -0.290920
O50   O     O_3   0.998045 0.684878 0.237028 -0.426087
O51   O     O_2   0.817799 0.287932 0.674413 -0.308644
O52   O     O_2   0.814108 0.399415 0.755147 -0.303529
O53   O     O_3   0.757033 0.397240 0.674030 -0.596120
O54   O     O_2   0.187204 0.603253 0.245110 -0.236267
O55   O     O_2   0.236534 0.612826 0.328614 -0.307073
O56   O     O_R   0.753510 0.263670 0.361920 -0.557409
O57   O     O_3   0.178014 0.724979 0.328779 -0.561518
O58   O     O_2   0.602763 0.842723 0.718162 -0.298923
O59   O     O_2   0.508506 0.819070 0.763866 -0.278994
O60   O     O_3   0.580873 0.737226 0.638125 -0.521956
O61   O     O_2   0.418415 0.255994 0.365122 -0.305886
O62   O     O_2   0.398439 0.159700 0.284747 -0.290920
O63   O     O_3   0.498045 0.184878 0.237028 -0.426088
O64   O     O_2   0.317799 0.787933 0.674413 -0.308644
O65   O     O_2   0.314108 0.899415 0.755147 -0.303527
O66   O     O_3   0.257033 0.897240 0.674031 -0.596118
O67   O     O_R   0.753510 0.736330 0.361920 -0.648763
O68   O     O_2   0.687204 0.103253 0.245110 -0.236267
O69   O     O_2   0.736534 0.112826 0.328614 -0.307073
O70   O     O_3   0.678014 0.224979 0.328779 -0.561517
O71   O     O_2   0.565523 0.332063 0.133089 -0.298446
O72   O     O_2   0.528753 0.255852 0.058179 -0.249091
O73   O     O_3   0.601147 0.198318 0.091501 -0.519615
O74   O     O_2   0.364529 0.568349 0.927804 -0.303902
O75   O     O_2   0.331420 0.504341 0.070607 -0.305789
O76   O     O_3   0.262093 0.576157 0.043117 -0.504566
O77   O     O_2   0.390050 0.380779 0.889469 -0.278009
O78   O     O_R   0.246490 0.263670 0.638080 -0.650663
O79   O     O_2   0.459841 0.302724 0.892631 -0.289043
O80   O     O_3   0.381076 0.240356 0.883861 -0.557026
O81   O     O_2   0.614547 0.754254 0.112827 -0.287132
O82   O     O_2   0.538499 0.698611 0.106571 -0.295603
O83   O     O_3   0.609237 0.613054 0.115896 -0.571627
O84   O     O_2   0.065523 0.832063 0.133089 -0.298444
O85   O     O_2   0.028753 0.755852 0.058179 -0.249092
O86   O     O_3   0.101148 0.698318 0.091501 -0.519614
O87   O     O_2   0.864529 0.068349 0.927804 -0.303902
O88   O     O_2   0.831420 0.004341 0.070607 -0.305788
O89   O     O_R   0.674170 0.186160 0.516270 -0.606970
O90   O     O_3   0.762093 0.076157 0.043117 -0.504566
O91   O     O_2   0.890049 0.880779 0.889469 -0.278009
O92   O     O_2   0.959841 0.802724 0.892631 -0.289043
O93   O     O_3   0.881076 0.740356 0.883861 -0.557028
O94   O     O_2   0.114548 0.254254 0.112826 -0.287170
O95   O     O_2   0.038499 0.198610 0.106573 -0.295568
O96   O     O_3   0.109238 0.113055 0.115896 -0.571628
S1    S     S_3+6 0.064509 0.321092 0.684691 0.038289
S2    S     S_3+6 0.325491 0.572305 0.027089 0.048551
S3    S     S_3+6 0.400405 0.310972 0.924736 0.037380
S4    S     S_3+6 0.597809 0.690910 0.075825 0.026655
S5    S     S_3+6 0.079134 0.773643 0.062584 0.027063
S6    S     S_3+6 0.825491 0.072305 0.027089 0.048551
S7    S     S_3+6 0.900404 0.810972 0.924736 0.037380
S8    S     S_3+6 0.097809 0.190910 0.075825 0.026654
S9    S     S_3+6 0.934640 0.681528 0.322311 0.060650
S10   S     S_3+6 0.814067 0.369343 0.672566 -0.002161
S11   S     S_3+6 0.185174 0.634059 0.328993 0.035254
S12   S     S_3+6 0.564509 0.821092 0.684691 0.038289
S13   S     S_3+6 0.434640 0.181528 0.322311 0.060650
S14   S     S_3+6 0.314067 0.869344 0.672566 -0.002160
S15   S     S_3+6 0.685174 0.134059 0.328993 0.035254
S16   S     S_3+6 0.579134 0.273643 0.062584 0.027063
Zn1   Zn    Zn3+2 0.792340 0.208750 0.507670 1.049226
Zn2   Zn    Zn3+2 0.494040 0.500000 0.919480 1.135715
Zn3   Zn    Zn3+2 0.005960 0.000000 0.080520 1.116809
Zn4   Zn    Zn3+2 0.994040 0.000000 0.919480 1.135715
Zn5   Zn    Zn3+2 0.207660 0.791250 0.492330 1.041621
Zn6   Zn    Zn3+2 0.207660 0.208750 0.492330 1.041996
Zn7   Zn    Zn3+2 0.792340 0.791250 0.507670 1.062487
Zn8   Zn    Zn3+2 0.292340 0.708750 0.507670 1.049223
Zn9   Zn    Zn3+2 0.707660 0.291250 0.492330 1.041622
Zn10  Zn    Zn3+2 0.707660 0.708750 0.492330 1.042001
Zn11  Zn    Zn3+2 0.292340 0.291250 0.507670 1.062486
Zn12  Zn    Zn3+2 0.505960 0.500000 0.080520 1.116769

loop_
_geom_bond_atom_site_label_1
_geom_bond_atom_site_label_2
_ccdc_geom_bond_type
C28   C47   A    
C72   O23   A    
H55   O93   S    
C36   C42   A    
C92   S8    S    
C61   O19   A    
C124  C133  A    
C63   C133  S    
C6    O40   A    
H57   O96   S    
O21   Zn10  S    
C16   C35   A    
O40   Zn12  S    
C110  H30   S    
C57   H4    S    
C62   C70   A    
O46   S1    D    
H44   O60   S    
C37   C42   A    
C123  H35   S    
C85   C129  A    
C113  C122  A    
C33   C137  S    
C71   H18   S    
C116  O25   A    
C75   H21   S    
O24   Zn1   S    
C8    C43   A    
C6    O33   A    
C91   C100  A    
O15   Zn9   S    
C52   S12   S    
C88   C97   A    
C119  C128  A    
C24   C51   A    
C70   C79   A    
C100  C109  A    
C8    C16   A    
C83   C114  S    
C102  C111  A    
O42   Zn2   S    
C73   C81   A    
C109  C118  A    
C121  H32   S    
C7    C93   S    
C64   C134  S    
C62   C132  S    
C32   C139  S    
C101  C110  A    
O62   S13   D    
C145  O17   A    
C72   C113  S    
C29   C45   A    
C103  C112  A    
C59   C80   A    
O65   S14   D    
O9    Zn1   S    
H47   O66   S    
O91   S7    D    
C56   H3    S    
C65   C135  S    
C66   C136  S    
H41   O50   S    
C63   C71   A    
C55   C57   A    
O12   Zn5   S    
O41   Zn2   S    
C138  H45   S    
O4    Zn10  S    
C68   C77   A    
O96   S8    S    
C2    C19   A    
O67   Zn10  S    
C25   C55   A    
C142  O5    A    
O19   Zn8   S    
C94   C115  S    
O16   Zn10  S    
C24   H59   S    
O82   S4    D    
C48   C138  A    
C128  C136  A    
C9    C15   A    
O37   Zn4   S    
O90   S6    S    
C139  O10   A    
C90   C134  A    
C46   C53   A    
O56   Zn9   S    
C4    O31   A    
C116  C118  S    
C36   C144  S    
C86   C95   A    
O1    Zn1   S    
O60   S12   S    
O51   S10   D    
C58   C67   A    
C86   S2    S    
O61   S13   D    
C137  O9    A    
O83   S4    S    
C13   H58   S    
C54   S14   S    
H49   O73   S    
C90   S6    S    
C140  O3    A    
C141  O13   A    
O23   Zn6   S    
C1    O18   A    
C102  H22   S    
C11   C18   A    
C65   C79   A    
C5    O32   A    
C123  C132  A    
C128  H39   S    
O33   Zn2   S    
C137  O89   A    
C67   H14   S    
C121  C130  A    
C25   C43   A    
C99   C108  A    
C41   H23   S    
C83   O34   A    
O44   S1    D    
C30   C141  S    
O5    Zn5   S    
C48   S1    S    
C120  H31   S    
C124  H36   S    
C75   C84   A    
C51   S11   S    
C58   C129  S    
C20   C138  A    
C81   H5    S    
O29   Zn4   S    
C125  H37   S    
C87   C131  A    
C26   C45   A    
C85   C93   A    
H52   O83   S    
C29   C38   A    
C64   C73   A    
C147  O28   A    
C4    C97   S    
H43   O57   S    
O64   S14   D    
O55   S11   D    
C95   C103  A    
O14   Zn8   S    
C89   C133  A    
C1    O1    A    
C120  C129  A    
C105  O24   A    
C38   C41   A    
C70   H17   S    
C10   C20   A    
C86   C130  A    
C65   C74   A    
O47   S1    S    
C145  O8    A    
C35   H60   S    
O18   Zn9   S    
O25   Zn7   S    
C8    C12   A    
C10   C45   A    
O63   S13   S    
O10   Zn5   S    
O32   Zn2   S    
H50   O76   S    
C12   C57   A    
O71   S16   D    
C88   S4    S    
C114  C123  A    
C90   C99   A    
C94   O22   A    
C29   C51   A    
C27   C47   A    
C146  O27   A    
O11   Zn6   S    
C108  C117  A    
C110  C119  A    
O28   Zn4   S    
C39   H1    S    
C89   C98   A    
C112  C121  A    
O86   S5    S    
C60   C69   A    
C30   C39   A    
C3    O30   A    
C104  C113  A    
C78   H13   S    
O72   S16   D    
C6    C95   S    
O52   S10   D    
O30   Zn3   S    
C148  O36   A    
C15   C46   A    
C31   C140  S    
C61   C112  S    
C117  C125  A    
C27   C49   A    
C25   C33   A    
C119  C127  S    
C125  C134  A    
C122  C131  A    
C11   C47   A    
C69   H16   S    
O7    Zn7   S    
C73   H19   S    
O35   Zn12  S    
C74   H20   S    
C42   H34   S    
H51   O80   S    
C11   C19   A    
O53   S10   S    
C7    O41   A    
H42   O53   S    
C74   C82   A    
O74   S2    D    
C79   H11   S    
O20   Zn11  S    
O87   S6    D    
C100  C147  S    
C31   C40   A    
C13   C18   A    
O8    Zn6   S    
O84   S5    D    
O70   S15   S    
C122  H33   S    
C127  O26   A    
O75   S2    D    
C26   C48   A    
O26   Zn6   S    
O85   S5    D    
C62   C82   A    
C105  C117  S    
C92   C136  A    
C34   C41   A    
O17   Zn11  S    
C60   C131  S    
C139  O2    A    
C66   C78   A    
C148  O29   A    
C126  H38   S    
C58   C81   A    
C83   O21   A    
C23   C44   A    
C55   S15   S    
O57   S11   S    
C116  O67   A    
O58   S12   D    
C9    C14   A    
C140  O11   A    
C12   C15   A    
O27   Zn3   S    
C106  H26   S    
O43   Zn12  S    
C97   C106  A    
C126  C135  A    
O88   S6    D    
O6    Zn1   S    
C94   O45   A    
O59   S12   D    
C5    C96   S    
O77   S3    D    
C68   H15   S    
C115  C124  A    
C37   C143  S    
C53   S13   S    
O54   S11   D    
C40   H12   S    
O79   S3    D    
C93   C102  A    
C80   H6    S    
C104  H25   S    
C27   C36   A    
C21   C30   A    
C146  O38   A    
C23   C32   A    
O68   S15   D    
C1    C111  S    
O92   S7    D    
C107  H27   S    
C105  O56   A    
C66   C75   A    
C108  H28   S    
C34   C145  S    
H48   O70   S    
C98   C107  A    
O89   Zn9   S    
O48   S9    D    
C109  H29   S    
C91   C135  A    
C72   O20   A    
O94   S8    D    
C35   C52   A    
C3    O37   A    
C3    C98   S    
O95   S8    D    
C14   C56   A    
C99   C148  S    
C59   C130  S    
O2    Zn8   S    
C5    O43   A    
C61   O12   A    
O50   S9    S    
O81   S4    D    
C76   H10   S    
C33   C39   A    
C106  C114  A    
C28   C37   A    
O13   Zn7   S    
C143  O15   A    
C84   H7    S    
C10   C17   A    
C87   S3    S    
C21   C43   A    
C28   C50   A    
C26   C34   A    
C22   C44   A    
O45   Zn8   S    
H53   O86   S    
O38   Zn4   S    
C82   H8    S    
C147  O39   A    
C38   C142  S    
C127  O78   A    
C69   C78   A    
O76   S2    S    
C71   C80   A    
C22   C53   A    
O39   Zn3   S    
C54   C56   A    
C101  C146  S    
H54   O90   S    
C17   C24   A    
O69   S15   D    
C22   C31   A    
C2    H56   S    
O66   S14   S    
C13   C50   A    
C111  C120  A    
O73   S16   S    
O31   Zn12  S    
O80   S3    S    
C2    C49   A    
O49   S9    D    
C59   C68   A    
C87   C96   A    
C64   C76   A    
C141  O4    A    
C107  C115  A    
C143  O6    A    
C92   C101  A    
O3    Zn11  S    
C46   H2    S    
O34   Zn7   S    
C103  H24   S    
C14   C16   A    
C88   C132  A    
C49   S9    S    
C23   C54   A    
C63   C77   A    
C9    C44   A    
O36   Zn3   S    
H40   O47   S    
C89   S5    S    
C144  O7    A    
C67   C76   A    
C91   S7    S    
C96   C104  A    
C4    O42   A    
C85   S16   S    
O78   Zn11  S    
C60   C84   A    
C17   C19   A    
C18   C20   A    
C32   C40   A    
C144  O16   A    
C50   S10   S    
O93   S7    S    
O22   Zn5   S    
C7    O35   A    
H46   O63   S    
C118  C126  A    
C142  O14   A    
C21   C52   A    
C77   H9    S    
