data_str_m3_o10_o17_f0_pcu.sym.76
_audit_creation_date              2012-12-10T16:52:09-0500
_audit_creation_method            fapswitch 2.2
_symmetry_space_group_name_H-M    P1
_symmetry_Int_Tables_number       1
_space_group_crystal_system       triclinic
_cell_length_a                    7.797968
_cell_length_b                    8.620803
_cell_length_c                    14.93103
_cell_angle_alpha                 91.945873
_cell_angle_beta                  85.649315
_cell_angle_gamma                 92.880185
_cell_volume                      999.120067814

loop_
_atom_site_label
_atom_site_type_symbol
_atom_type_description
_atom_site_fract_x
_atom_site_fract_y
_atom_site_fract_z
_atom_type_partial_charge
C1    C     C_R   0.544023 0.793720 0.497770 1.035549
C2    C     C_R   0.554101 0.635529 0.812589 0.298285
C3    C     C_R   0.494799 0.501289 0.232575 -0.268726
C4    C     C_R   0.505200 0.498714 0.767425 -0.268726
C5    C     C_R   0.545508 0.637819 0.188880 0.300958
C6    C     C_R   0.454488 0.362185 0.811121 0.300957
C7    C     C_R   0.562442 0.635216 0.094500 0.035081
C8    C     C_R   0.437548 0.364792 0.905501 0.035079
C9    C     C_R   0.498673 0.500440 0.047126 -0.090486
C10   C     C_R   0.501317 0.499568 0.952874 -0.090486
C11   C     C_R   0.432463 0.366429 0.094227 0.028859
C12   C     C_R   0.455977 0.206280 0.502230 1.035547
C13   C     C_R   0.567527 0.633580 0.905773 0.028860
C14   C     C_R   0.644133 0.760575 0.046465 0.065703
C15   C     C_R   0.355851 0.239436 0.953535 0.065704
C16   C     C_R   0.646972 0.759526 0.952613 0.054957
C17   C     C_R   0.353012 0.240485 0.047387 0.054957
C18   C     C_2   0.565103 0.954722 0.509355 -0.068512
C19   C     C_2   0.434897 0.045278 0.490644 -0.068512
C20   C     C_R   0.501699 0.499709 0.672395 1.043625
C21   C     C_R   0.498301 0.500292 0.327605 1.043626
C22   C     C_R   0.445895 0.364476 0.187411 0.298282
Cl1   Cl    Cl    0.416773 0.192221 0.250609 -0.575098
Cl2   Cl    Cl    0.583227 0.807781 0.749387 -0.575097
Cl3   Cl    Cl    0.577478 0.809372 0.256678 -0.593750
Cl4   Cl    Cl    0.422525 0.190629 0.743325 -0.593749
H1    H     H_    0.865078 0.887345 0.070477 0.173450
H2    H     H_    0.805552 0.064508 0.504707 0.212288
H3    H     H_    0.312120 0.918426 0.392682 0.267547
H4    H     H_    0.194448 0.935492 0.495294 0.212287
H5    H     H_    0.993927 0.403052 0.347666 0.204356
H6    H     H_    0.986883 0.253774 0.417251 0.190007
H7    H     H_    0.006085 0.596959 0.652334 0.204357
H8    H     H_    0.013105 0.746230 0.582743 0.190006
H9    H     H_    0.682911 0.990899 0.078455 0.213041
H10   H     H_    0.134899 0.112678 0.929523 0.173449
H11   H     H_    0.317059 0.009114 0.921546 0.213039
H12   H     H_    0.870738 0.883838 0.918405 0.178747
H13   H     H_    0.689749 0.988896 0.924933 0.206302
H14   H     H_    0.129240 0.116182 0.081596 0.178747
H15   H     H_    0.310223 0.011116 0.075068 0.206301
H16   H     H_    0.687879 0.081574 0.607318 0.267549
N1    N     N_2   0.950330 0.457950 0.475660 -0.021742
N2    N     N_3   0.966164 0.631716 0.591197 -0.283271
N3    N     N_2   0.049670 0.542050 0.524340 -0.021742
N4    N     N_3   0.734403 0.885336 0.092136 -0.361613
N5    N     N_3   0.265573 0.114680 0.907865 -0.361617
N6    N     N_3   0.741160 0.882448 0.904839 -0.369062
N7    N     N_3   0.258818 0.117568 0.095161 -0.369066
N8    N     N_3   0.718596 0.009279 0.551396 -0.416128
N9    N     N_3   0.281403 0.990721 0.448605 -0.416127
N10   N     N_3   0.033836 0.368285 0.408803 -0.283272
O1    O     O_R   0.389250 0.738570 0.505970 -0.663763
O2    O     O_R   0.610750 0.261430 0.494030 -0.663764
O3    O     O_R   0.678390 0.711620 0.490370 -0.589176
O4    O     O_R   0.321610 0.288380 0.509630 -0.589174
O5    O     O_R   0.355420 0.513510 0.639950 -0.614381
O6    O     O_R   0.644580 0.486490 0.360050 -0.614379
O7    O     O_R   0.644560 0.486560 0.624350 -0.605641
O8    O     O_R   0.355440 0.513440 0.375650 -0.605645
Zn1   Zn    Zn3+2 0.306940 0.517990 0.510420 1.012600
Zn2   Zn    Zn3+2 0.693060 0.482010 0.489580 1.012601

loop_
_geom_bond_atom_site_label_1
_geom_bond_atom_site_label_2
_ccdc_geom_bond_type
O6    Zn2   S    
C2    C4    A    
H4    N9    S    
O5    Zn1   S    
H11   N5    S    
N1    N3    D    
C9    C10   A    
H9    N4    S    
C11   C22   A    
H12   N6    S    
C15   N5    S    
H5    N10   S    
H13   N6    S    
C16   N6    S    
C1    O3    A    
N3    Zn1   S    
C21   O6    A    
C14   N4    S    
C12   O4    A    
H6    N10   S    
C20   O7    A    
C9    C11   A    
C1    C18   S    
C6    Cl4   S    
O1    Zn1   S    
H16   N8    S    
C5    Cl3   S    
C12   C19   S    
H1    N4    S    
C8    C15   A    
C5    C7    A    
C22   Cl1   S    
C2    Cl2   S    
C8    C10   A    
C14   C16   A    
N1    N10   S    
C3    C21   S    
H14   N7    S    
C4    C20   S    
O3    Zn2   S    
C19   N9    S    
C21   O8    A    
H8    N2    S    
N2    N3    S    
C18   N8    S    
H10   N5    S    
C4    C6    A    
C18   C19   D    
H3    N9    S    
C13   C16   A    
C17   N7    S    
C7    C9    A    
C2    C13   A    
C1    O1    A    
O4    Zn1   S    
C11   C17   A    
C3    C22   A    
C6    C8    A    
O2    Zn2   S    
C3    C5    A    
C20   O5    A    
C15   C17   A    
H7    N2    S    
H2    N8    S    
H15   N7    S    
C7    C14   A    
C12   O2    A    
N1    Zn2   S    
O8    Zn1   S    
O7    Zn2   S    
C10   C13   A    
