data_str_m9_o2_o25_f0_sra.sym.80
_audit_creation_date              2012-12-11T16:33:30-0500
_audit_creation_method            fapswitch 2.2
_symmetry_space_group_name_H-M    P1
_symmetry_Int_Tables_number       1
_space_group_crystal_system       triclinic
_cell_length_a                    6.952652
_cell_length_b                    18.242945
_cell_length_c                    20.24819
_cell_angle_alpha                 68.460125
_cell_angle_beta                  90.654008
_cell_angle_gamma                 90.915951
_cell_volume                      2388.51049413

loop_
_atom_site_label
_atom_site_type_symbol
_atom_type_description
_atom_site_fract_x
_atom_site_fract_y
_atom_site_fract_z
_atom_type_partial_charge
O1    O     O_R   0.488960 0.443750 0.941980 -0.544024
O2    O     O_R   0.823890 0.406510 0.087590 -0.545875
O3    O     O_R   0.999680 0.556250 0.058020 -0.535994
C1    C     C_R   0.654112 0.381067 0.113271 0.702808
O4    O     O_R   0.818360 0.434410 0.944340 -0.541502
O5    O     O_R   0.994110 0.584350 0.913750 -0.537557
C2    C     C_R   0.648994 0.422312 0.922176 0.707943
O6    O     O_R   0.494530 0.415650 0.086250 -0.537167
O7    O     O_3   0.662590 0.549160 0.990130 -0.362239
V1    V     V_3+5 0.935320 0.490880 0.001830 1.442531
O8    O     O_R   0.324180 0.593490 0.912410 -0.530194
C3    C     C_R   0.155737 0.616409 0.884638 0.824598
O9    O     O_R   0.329720 0.565590 0.055660 -0.523375
C4    C     C_R   0.162773 0.577932 0.077472 0.784751
V2    V     V_3+5 0.435990 0.509120 0.998170 1.462484
O10   O     O_3   0.158850 0.450840 0.009870 -0.380806
C5    C     C_3   0.022054 0.707222 0.308383 0.291987
C6    C     C_3   0.211461 0.678875 0.288645 0.310509
C7    C     C_1   0.158520 0.621875 0.124225 -0.164690
C8    C     C_1   0.104259 0.873801 0.378827 -0.204069
C9    C     C_3   0.950017 0.732007 0.230439 -0.301735
C10   C     C_3   0.143367 0.703796 0.210827 0.021883
C11   C     C_3   0.041801 0.815144 0.214904 0.083550
C12   C     C_3   0.110740 0.789812 0.293356 0.036490
C13   C     C_3   0.232472 0.786106 0.195626 0.346913
C14   C     C_3   0.302551 0.761063 0.273451 -0.039318
C15   C     C_1   0.154150 0.658432 0.163582 0.106572
C16   C     C_1   0.103686 0.835812 0.340473 0.037741
H1    H     H_    0.808178 0.719031 0.211259 0.170851
C17   C     C_R   0.213705 0.781153 0.876186 0.302393
C18   C     C_R   0.263196 0.858884 0.871116 0.025632
C19   C     C_R   0.251338 0.921393 0.804740 0.357301
C20   C     C_R   0.206334 0.905301 0.744471 -0.198775
C21   C     C_R   0.171068 0.827946 0.746980 -0.062939
C22   C     C_R   0.179202 0.763723 0.813534 -0.000144
C23   C     C_R   0.118590 0.815303 0.684125 -0.097416
C24   C     C_R   0.076769 0.737935 0.687138 0.013793
C25   C     C_R   0.106519 0.671770 0.751117 -0.003520
C26   C     C_R   0.149284 0.684785 0.815534 -0.137930
C27   C     C_R   0.009023 0.725659 0.626032 -0.198151
C28   C     C_R   0.958833 0.650836 0.627581 0.146766
C29   C     C_R   0.995139 0.584689 0.689346 0.213102
C30   C     C_R   0.090952 0.594640 0.747693 0.086794
H2    H     H_    0.197567 0.955546 0.695094 0.147789
H3    H     H_    0.987433 0.774732 0.576613 0.124716
C31   C     C_R   0.541995 0.095533 0.257099 0.092877
C32   C     C_R   0.413323 0.085499 0.207158 0.171952
C33   C     C_R   0.379700 0.149495 0.143706 0.160776
C34   C     C_R   0.490480 0.219312 0.129638 0.095090
C35   C     C_R   0.572327 0.236610 0.187904 -0.006213
C36   C     C_R   0.582046 0.173290 0.255009 -0.019359
C37   C     C_R   0.645147 0.312692 0.182341 -0.096554
C38   C     C_R   0.703388 0.326067 0.244698 -0.037823
C39   C     C_R   0.681217 0.266194 0.313548 -0.012601
C40   C     C_R   0.626135 0.187870 0.318147 -0.108738
C41   C     C_R   0.778848 0.400792 0.238791 -0.205188
C42   C     C_R   0.831583 0.418520 0.297237 0.277601
C43   C     C_R   0.789392 0.364322 0.365515 0.326156
C44   C     C_R   0.712733 0.288926 0.374154 0.073956
H4    H     H_    0.802689 0.447571 0.188114 0.160903
O11   O     O_R   0.770540 0.084530 0.414050 -0.540443
O12   O     O_R   0.445710 0.065660 0.555720 -0.537095
O13   O     O_R   0.270420 0.915650 0.586190 -0.535587
C45   C     C_R   0.614438 0.076143 0.579199 0.721593
O14   O     O_R   0.441140 0.093540 0.412470 -0.537906
O15   O     O_R   0.265820 0.943740 0.441930 -0.536513
C46   C     C_R   0.611621 0.119688 0.387305 0.729066
O16   O     O_R   0.775150 0.056440 0.558310 -0.539407
O17   O     O_3   0.602370 0.950960 0.510050 -0.368790
V3    V     V_3+5 0.329450 0.009140 0.498150 1.431024
O18   O     O_R   0.935790 0.934280 0.444060 -0.540294
C47   C     C_R   0.102684 0.919992 0.423913 0.722832
O19   O     O_R   0.940370 0.906390 0.587310 -0.539652
C48   C     C_R   0.109042 0.883458 0.614896 0.688501
V4    V     V_3+5 0.828810 0.990710 0.501460 1.415899
O20   O     O_3   0.105780 0.049100 0.489960 -0.367026
C49   C     C_3   0.684221 0.320429 0.713707 -0.246590
C50   C     C_3   0.506098 0.276618 0.698828 0.142709
H5    H     H_    0.727430 0.380708 0.679042 0.153064
C51   C     C_1   0.623349 0.119759 0.626268 -0.163909
C52   C     C_1   0.638160 0.376205 0.877046 -0.173386
C53   C     C_3   0.806632 0.245245 0.727494 -0.189380
C54   C     C_3   0.626871 0.202283 0.712647 0.054506
C55   C     C_3   0.747557 0.215758 0.806392 0.370217
C56   C     C_3   0.629150 0.290087 0.793417 0.091986
C57   C     C_3   0.571078 0.170889 0.792415 -0.302989
C58   C     C_3   0.454160 0.246686 0.777896 0.341412
C59   C     C_1   0.626245 0.156371 0.665643 0.035447
C60   C     C_1   0.632537 0.337500 0.839338 0.053749
H6    H     H_    0.526508 0.109942 0.825704 0.153625
H7    H     H_    0.952962 0.243988 0.706847 0.140804
O21   O     O_3   0.298490 0.607052 0.327084 -0.631231
H8    H     H_    0.323891 0.608227 0.374955 0.304699
O22   O     O_3   0.282620 0.999487 0.795723 -0.653431
H9    H     H_    0.269920 0.006151 0.841767 0.289196
C61   C     C_3   0.872211 0.642549 0.561838 -0.721255
H10   H     H_    0.962889 0.603746 0.544144 0.225731
H11   H     H_    0.724776 0.617058 0.573202 0.207293
H12   H     H_    0.861669 0.700218 0.517063 0.215745
C62   C     C_3   0.206648 0.526020 0.796718 -0.748715
H13   H     H_    0.250111 0.485756 0.769787 0.216991
H14   H     H_    0.345334 0.547274 0.811023 0.197005
H15   H     H_    0.122655 0.491577 0.844619 0.214194
O23   O     O_3   0.819990 0.383744 0.424760 -0.650164
H16   H     H_    0.801245 0.441115 0.411485 0.295639
C63   C     C_3   0.665400 0.026394 0.300137 -0.725613
H17   H     H_    0.809759 0.046969 0.310268 0.205702
H18   H     H_    0.593557 0.990497 0.350557 0.220123
H19   H     H_    0.693586 0.987915 0.269748 0.191490
C64   C     C_3   0.318923 0.006408 0.220030 -0.797803
H20   H     H_    0.160478 0.012129 0.220820 0.211460
H21   H     H_    0.360640 0.984837 0.177763 0.204071
H22   H     H_    0.359771 0.961375 0.271791 0.220889
C65   C     C_3   0.237348 0.140891 0.089570 -0.740554
H23   H     H_    0.096735 0.119034 0.115245 0.209121
H24   H     H_    0.207564 0.197850 0.045996 0.224458
H25   H     H_    0.292653 0.098873 0.066417 0.215138
C66   C     C_3   0.535930 0.266454 0.053173 -0.739734
H26   H     H_    0.531319 0.229080 0.020495 0.218088
H27   H     H_    0.427752 0.313100 0.031700 0.226616
H28   H     H_    0.685926 0.289124 0.047380 0.188416
O24   O     O_3   0.913505 0.665252 0.368459 -0.642880
H29   H     H_    0.870905 0.616371 0.361667 0.307747
O25   O     O_3   0.921092 0.490381 0.285091 -0.645472
H30   H     H_    0.003714 0.486071 0.326480 0.315303
C67   C     C_3   0.657165 0.237009 0.448396 -0.692251
H31   H     H_    0.653685 0.267860 0.486408 0.238025
H32   H     H_    0.509057 0.213450 0.448971 0.184036
H33   H     H_    0.766403 0.190776 0.468504 0.202685
C68   C     C_3   0.365255 0.311631 0.637683 -0.735131
H34   H     H_    0.292638 0.362815 0.643186 0.215263
H35   H     H_    0.443846 0.331255 0.586588 0.218537
H36   H     H_    0.255986 0.266464 0.638158 0.205897
O26   O     O_3   0.269924 0.248763 0.803709 -0.621913
H37   H     H_    0.199097 0.204925 0.796236 0.303959
O27   O     O_3   0.873380 0.184377 0.863927 -0.624546
H38   H     H_    0.912096 0.132653 0.863118 0.285773
C69   C     C_3   0.498497 0.776645 0.299752 -0.711393
H39   H     H_    0.605196 0.739395 0.287884 0.248571
H40   H     H_    0.538927 0.839698 0.273513 0.197213
H41   H     H_    0.494746 0.761163 0.358091 0.219516
O28   O     O_3   0.343203 0.826514 0.135676 -0.640121
H42   H     H_    0.395006 0.873699 0.143260 0.287965
C70   C     C_3   0.940716 0.890731 0.170382 -0.735111
H43   H     H_    0.876637 0.883933 0.122471 0.225666
H44   H     H_    0.825105 0.903364 0.201804 0.201609
H45   H     H_    0.044727 0.940526 0.153019 0.208861
C71   C     C_3   0.929755 0.504067 0.692521 -0.798396
H46   H     H_    0.774981 0.506205 0.678131 0.203554
H47   H     H_    0.014642 0.485935 0.655096 0.214999
H48   H     H_    0.941559 0.458201 0.746483 0.226676
O29   O     O_3   0.193001 0.722630 0.942185 -0.656738
H49   H     H_    0.133856 0.745646 0.974372 0.285618
C72   C     C_3   0.338088 0.874326 0.935429 -0.763340
H50   H     H_    0.467731 0.913192 0.920999 0.213840
H51   H     H_    0.225262 0.902859 0.955731 0.211675
H52   H     H_    0.384788 0.819807 0.978929 0.247956

loop_
_geom_bond_atom_site_label_1
_geom_bond_atom_site_label_2
_ccdc_geom_bond_type
C50   C58   S    
C50   C68   S    
C19   O22   S    
C67   H31   S    
O19   V4    S    
O19   C48   A    
C68   H35   S    
C13   O28   S    
C6    C14   S    
C71   H48   S    
C1    O6    A    
C29   C71   S    
C65   H23   S    
O15   V3    S    
C38   C39   A    
O11   V4    S    
C44   C67   S    
C63   H18   S    
C17   C22   A    
C1    C37   S    
C45   O16   A    
C23   C24   A    
C55   C57   S    
C24   C27   A    
O5    C3    A    
C25   C26   A    
C28   C61   S    
C63   H17   S    
V2    O10   S    
C61   H12   S    
C41   C42   A    
O12   V3    S    
C21   C22   A    
C28   C29   A    
C66   H26   S    
C62   H13   S    
O12   C45   A    
C64   H20   S    
O8    V2    S    
C50   C54   S    
O15   C47   A    
C32   C33   A    
O14   C46   A    
C10   C13   S    
C61   H11   S    
C35   C37   A    
C11   C12   S    
O1    V2    S    
C7    C15   T    
O7    V1    S    
C72   H51   S    
C52   C60   T    
C49   H5    S    
C54   C59   S    
C49   C56   S    
O1    C2    A    
O9    C4    A    
C45   C51   S    
C58   O26   S    
O22   H9    S    
C70   H45   S    
O4    V1    S    
O23   H16   S    
C20   C21   A    
C66   H27   S    
C39   C44   A    
C56   C58   S    
C27   H3    S    
C5    C12   S    
C55   C56   S    
C71   H46   S    
C72   H52   S    
C70   H44   S    
C57   H6    S    
O4    C2    A    
C56   C60   S    
C57   C58   S    
O27   H38   S    
C8    C16   T    
C67   H33   S    
C35   C36   A    
C13   C14   S    
C49   C50   S    
C9    H1    S    
C31   C36   A    
C62   H15   S    
C5    C9    S    
C53   H7    S    
C41   H4    S    
O16   V4    S    
C66   H28   S    
O2    C1    A    
V4    O20   S    
C24   C25   A    
O11   C46   A    
C17   O29   S    
C34   C66   S    
O13   V3    S    
C61   H10   S    
C62   H14   S    
C5    C6    S    
C31   C32   A    
C30   C62   S    
C64   H22   S    
C72   H50   S    
O3    C4    A    
C23   C48   S    
C27   C28   A    
C2    C52   S    
C53   C54   S    
O6    V2    S    
C53   C55   S    
C10   C15   S    
C9    C11   S    
V3    O20   S    
C11   C70   S    
C68   H36   S    
C43   O23   S    
C29   C30   A    
O2    V1    S    
C18   C72   S    
C37   C38   A    
C33   C65   S    
C38   C41   A    
C39   C40   A    
C33   C34   A    
C67   H32   S    
C6    C10   S    
C20   H2    S    
C4    C7    S    
C18   C19   A    
C12   C16   S    
C71   H47   S    
C70   H43   S    
C14   C69   S    
C69   H41   S    
O5    V1    S    
C65   H24   S    
O8    C3    A    
O26   H37   S    
C69   H40   S    
O13   C48   A    
C32   C64   S    
C6    O21   S    
C19   C20   A    
C3    C26   S    
O9    V2    S    
C68   H34   S    
C43   C44   A    
C25   C30   A    
C51   C59   T    
O3    V1    S    
V1    O10   S    
C42   O25   S    
O18   V4    S    
C12   C14   S    
C42   C43   A    
C17   C18   A    
C40   C46   S    
C49   C53   S    
C22   C26   A    
C31   C63   S    
O21   H8    S    
C21   C23   A    
O17   V4    S    
C36   C40   A    
C11   C13   S    
O7    V2    S    
O17   V3    S    
C64   H21   S    
C65   H25   S    
C69   H39   S    
C5    O24   S    
O18   C47   A    
C54   C57   S    
O29   H49   S    
C34   C35   A    
O28   H42   S    
C8    C47   S    
O24   H29   S    
C9    C10   S    
O14   V3    S    
O25   H30   S    
C55   O27   S    
C63   H19   S    
