data_str_m2_o41_o41_f0_fof.sym.41
_audit_creation_date              2012-10-26T17:13:05-0400
_audit_creation_method            fapswitch 2.2
_symmetry_space_group_name_H-M    P1
_symmetry_Int_Tables_number       1
_space_group_crystal_system       triclinic
_cell_length_a                    16.783676
_cell_length_b                    16.782546
_cell_length_c                    16.798315
_cell_angle_alpha                 67.781373
_cell_angle_beta                  67.794195
_cell_angle_gamma                 67.821133
_cell_volume                      3900.56006567

loop_
_atom_site_label
_atom_site_type_symbol
_atom_type_description
_atom_site_fract_x
_atom_site_fract_y
_atom_site_fract_z
_atom_type_partial_charge
C1    C     C_R   0.308359 0.009293 0.431593 -0.021017
C2    C     C_R   0.325224 0.450090 0.955635 -0.017146
C3    C     C_R   0.526995 0.401407 0.031090 -0.065199
C4    C     C_R   0.009232 0.458921 0.586656 -0.060390
C5    C     C_R   0.030334 0.527413 0.402406 -0.066797
C6    C     C_3   0.197719 0.182420 0.764447 -0.005574
C7    C     C_3   0.786837 0.871557 0.211224 -0.079051
C8    C     C_3   0.187020 0.759919 0.201518 -0.024474
C9    C     C_3   0.857126 0.221549 0.786791 -0.071438
C10   C     C_3   0.763027 0.197397 0.185770 -0.008791
C11   C     C_3   0.162094 0.750181 0.954620 -0.052484
C12   C     C_3   0.153674 0.002674 0.721835 -0.053076
C13   C     C_R   0.056415 0.674045 0.544805 -0.016365
C14   C     C_3   0.864844 0.908160 0.349200 -0.072765
C15   C     C_3   0.716990 0.144194 0.021823 -0.060164
C16   C     C_3   0.358931 0.864340 0.884612 -0.055653
C17   C     C_3   0.001421 0.728738 0.158721 -0.119951
C18   C     C_3   0.904754 0.351776 0.865812 -0.068993
C19   C     C_3   0.411518 0.218476 0.725757 -0.120951
C20   C     C_3   0.588834 0.792264 0.289350 -0.143266
C21   C     C_3   0.218407 0.726427 0.413206 -0.120492
C22   C     C_3   0.790509 0.288863 0.587055 -0.141643
C23   C     C_3   0.725468 0.411656 0.218648 -0.120780
C24   C     C_R   0.958522 0.323790 0.449936 -0.019811
C25   C     C_3   0.290640 0.586107 0.785055 -0.102273
C26   C     C_3   0.192144 0.195203 0.430787 -0.102777
C27   C     C_3   0.735051 0.191424 0.402933 -0.125098
C28   C     C_3   0.423613 0.194388 0.197042 -0.102165
C29   C     C_3   0.401815 0.737418 0.186485 -0.125830
C30   C     C_3   0.195790 0.431557 0.191590 -0.112338
C31   C     C_3   0.189825 0.401185 0.736012 -0.123560
C32   C     C_R   0.448901 0.000750 0.450103 -0.008609
C33   C     C_R   0.540069 0.032272 0.541316 -0.002471
C34   C     C_R   0.000676 0.449310 0.449546 -0.010196
C35   C     C_R   0.032131 0.540654 0.540675 -0.001963
C36   C     C_R   0.449921 0.449024 0.999560 -0.008781
C37   C     C_R   0.541032 0.539972 0.031583 -0.004816
C38   C     C_R   0.028642 0.828066 0.564515 0.555980
C39   C     C_R   0.677426 0.046031 0.546720 -0.022939
C40   C     C_R   0.971621 0.171856 0.435446 0.562962
C41   C     C_R   0.828043 0.564439 0.028695 0.559797
C42   C     C_R   0.172009 0.435656 0.971024 0.570023
C43   C     C_R   0.564498 0.028670 0.828119 0.555877
C44   C     C_R   0.435305 0.971902 0.171905 0.562845
C45   C     C_R   0.430507 0.168829 0.984827 0.566640
C46   C     C_R   0.565501 0.828607 0.025685 0.540627
C47   C     C_R   0.984811 0.430556 0.168879 0.569932
C48   C     C_R   0.026184 0.565331 0.828606 0.547869
C49   C     C_R   0.168779 0.984889 0.430601 0.564931
C50   C     C_R   0.009254 0.431080 0.308806 -0.020305
C51   C     C_R   0.828568 0.026210 0.565350 0.543400
C52   C     C_R   0.402466 0.988046 0.402809 -0.078567
C53   C     C_R   0.587641 0.043585 0.588269 -0.061241
C54   C     C_R   0.987736 0.402316 0.402976 -0.079896
C55   C     C_R   0.043496 0.587728 0.588100 -0.061220
C56   C     C_R   0.402842 0.402803 0.986439 -0.076553
C57   C     C_R   0.588049 0.587663 0.042795 -0.062608
C58   C     C_R   0.262889 0.987476 0.389837 -0.028426
C59   C     C_R   0.729887 0.041523 0.599164 -0.039959
C60   C     C_R   0.987129 0.389722 0.263161 -0.028450
C61   C     C_R   0.045520 0.546302 0.677927 -0.023636
C62   C     C_R   0.041406 0.598937 0.730062 -0.040405
C63   C     C_R   0.389446 0.263066 0.987002 -0.028242
C64   C     C_R   0.599172 0.729982 0.040550 -0.041516
C65   C     C_R   0.598205 0.045646 0.728837 -0.029403
C66   C     C_R   0.399368 0.961270 0.270212 -0.038835
C67   C     C_R   0.728630 0.598084 0.045486 -0.028508
C68   C     C_R   0.270603 0.399877 0.959128 -0.035418
C69   C     C_R   0.045647 0.728611 0.598319 -0.029858
C70   C     C_R   0.960534 0.270173 0.399651 -0.038900
C71   C     C_R   0.449141 0.082897 0.700733 0.298723
C72   C     C_R   0.430417 0.308607 0.009526 -0.022147
C73   C     C_R   0.544526 0.934862 0.299711 0.331137
C74   C     C_R   0.083635 0.699960 0.449502 0.301212
C75   C     C_R   0.932618 0.300007 0.545015 0.327827
C76   C     C_R   0.699879 0.449008 0.083505 0.301397
C77   C     C_R   0.304043 0.545172 0.925765 0.299291
C78   C     C_R   0.262833 0.054980 0.499026 0.301630
C79   C     C_R   0.710311 0.052547 0.453372 0.299305
C80   C     C_R   0.495562 0.262972 0.057892 0.302635
C81   C     C_R   0.453816 0.711455 0.047959 0.309594
C82   C     C_R   0.055482 0.498049 0.263459 0.311014
C83   C     C_R   0.546754 0.677815 0.044122 -0.024224
C84   C     C_R   0.050957 0.452983 0.711167 0.298119
C85   C     C_R   0.308351 0.967157 0.308100 -0.202665
C86   C     C_R   0.689393 0.040055 0.689325 -0.191175
C87   C     C_R   0.966494 0.308075 0.308643 -0.202971
C88   C     C_R   0.040057 0.689153 0.689434 -0.189622
C89   C     C_R   0.308027 0.308595 0.965960 -0.202336
C90   C     C_R   0.689181 0.689272 0.039811 -0.190590
C91   C     C_R   0.674552 0.014630 0.417743 -0.021815
C92   C     C_R   0.308041 0.052168 0.555737 -0.020689
C93   C     C_R   0.012420 0.417831 0.675543 -0.023070
C94   C     C_R   0.544513 0.056126 0.674575 -0.016476
C95   C     C_R   0.053483 0.554157 0.308869 -0.016068
C96   C     C_R   0.419915 0.675401 0.008777 -0.014804
C97   C     C_R   0.552179 0.307611 0.056605 -0.021623
C98   C     C_R   0.589121 0.961655 0.337672 -0.000941
C99   C     C_R   0.400911 0.069216 0.655629 -0.019439
C100  C     C_R   0.343695 0.591183 0.949488 -0.009070
C101  C     C_R   0.653831 0.400542 0.071259 -0.014644
C102  C     C_R   0.958609 0.338205 0.590184 -0.005864
C103  C     C_R   0.070324 0.654471 0.401396 -0.018190
C104  C     C_R   0.723171 0.986485 0.339010 0.259514
C105  C     C_R   0.449508 0.959534 0.323882 -0.018329
C106  C     C_R   0.260757 0.075151 0.637014 0.262319
C107  C     C_R   0.982486 0.340004 0.724549 0.261203
C108  C     C_R   0.076336 0.635335 0.261652 0.274184
C109  C     C_R   0.346700 0.725886 0.972411 0.261648
C110  C     C_R   0.631919 0.259831 0.082682 0.260232
C111  C     C_R   0.680053 0.961266 0.298232 0.307338
C112  C     C_R   0.306738 0.084630 0.686735 0.253490
C113  C     C_R   0.310711 0.684788 0.939692 0.276288
C114  C     C_R   0.683511 0.306128 0.089093 0.253836
C115  C     C_R   0.955721 0.300095 0.681902 0.304620
C116  C     C_R   0.674175 0.544409 0.055995 -0.015945
C117  C     C_R   0.085991 0.685253 0.307264 0.257664
C118  C     C_R   0.541573 0.989782 0.416211 -0.069507
C119  C     C_R   0.447808 0.041319 0.576636 -0.064667
C120  C     C_R   0.988468 0.415935 0.542374 -0.069800
C121  C     C_R   0.042044 0.575553 0.448390 -0.066584
C122  C     C_R   0.417947 0.542184 0.985056 -0.062705
C123  C     C_R   0.575304 0.447456 0.042540 -0.065536
C124  C     C_R   0.585864 0.010465 0.459189 -0.060899
C125  C     C_R   0.401723 0.029427 0.528717 -0.061624
C126  C     C_R   0.460294 0.586154 0.007050 -0.060687
Cu1   Cu    Cu3+1 0.995180 0.995180 0.424630 1.027626
Cu2   Cu    Cu3+1 0.004820 0.004820 0.575370 1.036830
Cu3   Cu    Cu3+1 0.995180 0.424630 0.995180 1.029325
Cu4   Cu    Cu3+1 0.004820 0.575370 0.004820 0.980904
Cu5   Cu    Cu3+1 0.424630 0.995180 0.995180 1.046050
Cu6   Cu    Cu3+1 0.575370 0.004820 0.004820 1.016974
H1    H     H_    0.271555 0.959594 0.271719 0.162658
H2    H     H_    0.772099 0.816250 0.272717 0.086597
H3    H     H_    0.852149 0.881284 0.200223 0.131249
H4    H     H_    0.792161 0.850615 0.153768 0.133378
H5    H     H_    0.186703 0.756823 0.136978 0.177271
H6    H     H_    0.237820 0.700616 0.229022 0.103870
H7    H     H_    0.207497 0.820544 0.187330 0.177686
H8    H     H_    0.805946 0.285543 0.767735 0.081302
H9    H     H_    0.862506 0.210915 0.853927 0.128476
H10   H     H_    0.832829 0.166580 0.791308 0.135956
H11   H     H_    0.773093 0.131073 0.178645 0.218695
H12   H     H_    0.730302 0.031481 0.730294 0.159002
H13   H     H_    0.699365 0.215378 0.237614 0.112676
H14   H     H_    0.818891 0.191359 0.209508 0.174685
H15   H     H_    0.154653 0.790796 0.997361 0.145220
H16   H     H_    0.147726 0.684971 0.996286 0.193543
H17   H     H_    0.111363 0.787491 0.916628 0.109817
H18   H     H_    0.181573 0.975080 0.780346 0.133827
H19   H     H_    0.181436 0.953993 0.681394 0.118045
H20   H     H_    0.080358 0.011810 0.747949 0.150018
H21   H     H_    0.854816 0.845406 0.351567 0.064588
H22   H     H_    0.850566 0.910321 0.418540 0.150250
H23   H     H_    0.958897 0.271705 0.271861 0.162926
H24   H     H_    0.936484 0.905373 0.315783 0.183501
H25   H     H_    0.781442 0.160039 0.002554 0.114569
H26   H     H_    0.685054 0.177404 0.965842 0.087272
H27   H     H_    0.732077 0.070912 0.034414 0.167189
H28   H     H_    0.348682 0.856553 0.826551 0.125736
H29   H     H_    0.431648 0.843998 0.879227 0.114453
H30   H     H_    0.333126 0.936436 0.881673 0.191588
H31   H     H_    0.995272 0.794351 0.165137 0.137851
H32   H     H_    0.943001 0.703126 0.205546 0.095628
H33   H     H_    0.999366 0.739404 0.090214 0.102164
H34   H     H_    0.031542 0.730223 0.730212 0.162084
H35   H     H_    0.841389 0.357696 0.854485 0.063343
H36   H     H_    0.909849 0.419887 0.852268 0.151387
H37   H     H_    0.900486 0.317531 0.937563 0.185454
H38   H     H_    0.379655 0.254700 0.669906 0.088741
H39   H     H_    0.482622 0.219698 0.702380 0.093388
H40   H     H_    0.377037 0.254727 0.777963 0.124925
H41   H     H_    0.519920 0.787346 0.305424 0.093149
H42   H     H_    0.611005 0.766882 0.351293 0.092710
H43   H     H_    0.634009 0.748238 0.245455 0.131386
H44   H     H_    0.254940 0.667970 0.385105 0.085041
H45   H     H_    0.271487 0.271686 0.958754 0.162512
H46   H     H_    0.218313 0.707062 0.484266 0.095969
H47   H     H_    0.255307 0.778075 0.376041 0.125508
H48   H     H_    0.786915 0.304005 0.517887 0.092362
H49   H     H_    0.764232 0.351367 0.608467 0.091722
H50   H     H_    0.746355 0.244933 0.631944 0.130234
H51   H     H_    0.670038 0.379155 0.255234 0.088885
H52   H     H_    0.701514 0.482808 0.219805 0.093074
H53   H     H_    0.778032 0.377779 0.254499 0.125319
H54   H     H_    0.309187 0.516099 0.781995 0.077512
H55   H     H_    0.350968 0.611415 0.756916 0.115993
H56   H     H_    0.730139 0.730063 0.031681 0.159018
H57   H     H_    0.244757 0.628000 0.742279 0.136555
H58   H     H_    0.202221 0.187161 0.364631 0.095190
H59   H     H_    0.248570 0.216048 0.429220 0.085437
H60   H     H_    0.131371 0.250432 0.443557 0.150756
H61   H     H_    0.738164 0.193454 0.466925 0.107110
H62   H     H_    0.665604 0.222850 0.396226 0.084632
H63   H     H_    0.778334 0.232143 0.349031 0.121164
H64   H     H_    0.357738 0.206885 0.186876 0.094347
H65   H     H_    0.423189 0.249911 0.218453 0.087083
H66   H     H_    0.433588 0.133495 0.252793 0.150157
H67   H     H_    0.131868 0.175733 0.771962 0.217903
H68   H     H_    0.464235 0.744272 0.188314 0.109550
H69   H     H_    0.398611 0.666804 0.218059 0.082084
H70   H     H_    0.346072 0.779318 0.227387 0.120202
H71   H     H_    0.187707 0.364190 0.206336 0.096648
H72   H     H_    0.218817 0.433932 0.244623 0.088710
H73   H     H_    0.249368 0.442676 0.128803 0.148235
H74   H     H_    0.192521 0.464868 0.739343 0.107590
H75   H     H_    0.221062 0.394671 0.666534 0.084494
H76   H     H_    0.230267 0.346725 0.779180 0.121898
H77   H     H_    0.217393 0.234171 0.701333 0.106887
H78   H     H_    0.189406 0.206302 0.821021 0.173685
O1    O     O_R   0.124540 0.978640 0.385460 -0.504963
O2    O     O_R   0.124540 0.385460 0.978640 -0.514887
O3    O     O_R   0.021360 0.875460 0.614540 -0.537717
O4    O     O_R   0.978640 0.124540 0.385460 -0.518505
O5    O     O_R   0.013780 0.867370 0.487190 -0.463835
O6    O     O_R   0.986220 0.132630 0.512810 -0.405797
O7    O     O_R   0.867370 0.487190 0.013780 -0.462579
O8    O     O_R   0.132630 0.512810 0.986220 -0.430360
O9    O     O_R   0.487190 0.013780 0.867370 -0.460338
O10   O     O_R   0.512810 0.986220 0.132630 -0.404919
O11   O     O_R   0.512810 0.132630 0.986220 -0.474505
O12   O     O_R   0.875460 0.021360 0.614540 -0.512437
O13   O     O_R   0.487190 0.867370 0.013780 -0.456808
O14   O     O_R   0.986220 0.512810 0.132630 -0.465366
O15   O     O_R   0.013780 0.487190 0.867370 -0.468151
O16   O     O_R   0.132630 0.986220 0.512810 -0.470174
O17   O     O_R   0.867370 0.013780 0.487190 -0.469161
O18   O     O_3   0.261881 0.098250 0.770831 -0.557363
O19   O     O_3   0.720375 0.953635 0.211679 -0.494252
O20   O     O_3   0.100635 0.768869 0.261692 -0.555641
O21   O     O_3   0.942529 0.215638 0.724841 -0.486917
O22   O     O_3   0.768081 0.261449 0.101699 -0.562713
O23   O     O_R   0.978640 0.385460 0.124540 -0.503116
O24   O     O_3   0.247474 0.737835 0.893264 -0.542654
O25   O     O_3   0.169307 0.086458 0.669382 -0.515117
O26   O     O_3   0.812502 0.984911 0.300119 -0.557212
O27   O     O_3   0.660074 0.167500 0.101011 -0.507966
O28   O     O_3   0.311286 0.816362 0.966252 -0.549194
O29   O     O_3   0.084037 0.668353 0.170981 -0.553185
O30   O     O_3   0.980326 0.301112 0.813965 -0.549640
O31   O     O_3   0.402531 0.130559 0.763893 -0.497729
O32   O     O_3   0.594834 0.880464 0.243076 -0.508283
O33   O     O_3   0.131018 0.763479 0.402807 -0.497497
O34   O     O_R   0.021360 0.614540 0.875460 -0.514945
O35   O     O_3   0.878273 0.243119 0.594626 -0.505788
O36   O     O_3   0.763376 0.402706 0.130814 -0.497102
O37   O     O_3   0.245701 0.593327 0.872934 -0.512568
O38   O     O_3   0.179804 0.116272 0.499279 -0.487145
O39   O     O_3   0.768414 0.103577 0.393633 -0.516538
O40   O     O_3   0.493480 0.180433 0.119473 -0.486341
O41   O     O_3   0.392351 0.769132 0.098746 -0.516163
O42   O     O_3   0.115992 0.498759 0.180018 -0.496359
O43   O     O_3   0.101678 0.392657 0.769271 -0.516620
O44   O     O_R   0.385460 0.124540 0.978640 -0.503938
O45   O     O_R   0.614540 0.875460 0.021360 -0.515234
O46   O     O_R   0.614540 0.021360 0.875460 -0.541789
O47   O     O_R   0.385460 0.978640 0.124540 -0.519831
O48   O     O_R   0.875460 0.614540 0.021360 -0.538451

loop_
_geom_bond_atom_site_label_1
_geom_bond_atom_site_label_2
_ccdc_geom_bond_type
C43   O46   A    
C12   O25   S    
C42   C68   S    
C47   O14   A    
C49   O16   A    
C112  O18   S    
C80   C97   A    
C16   H28   S    
C47   O23   A    
C12   H20   S    
C19   O31   S    
C44   C66   S    
C44   O10   A    
C19   H38   S    
C64   C90   A    
C91   C104  A    
C48   O34   A    
C11   H15   S    
C92   C125  A    
C66   C85   A    
C14   O26   S    
C26   H58   S    
Cu5   O44   S    
C86   H12   S    
C65   C86   A    
C41   C67   S    
C6    H77   S    
C106  C112  A    
C109  O28   S    
C98   C111  A    
C20   O32   S    
C30   H71   S    
C39   C53   A    
C37   C126  A    
C101  C123  A    
C27   O39   S    
C90   H56   S    
C8    H7    S    
C29   O41   S    
C82   O42   S    
C17   O29   S    
C19   H39   S    
C15   H25   S    
C22   H49   S    
C2    C68   A    
C114  O22   S    
C6    H67   S    
C9    H8    S    
C11   H16   S    
C20   H43   S    
C51   O12   A    
C24   C54   A    
C76   C116  A    
C5    C121  A    
C117  O20   S    
C37   C57   A    
C77   C100  A    
C8    H6    S    
Cu4   O8    S    
C32   C52   A    
Cu3   O7    S    
C102  C115  A    
C25   H55   S    
Cu6   O45   S    
C5    C95   A    
C47   C60   S    
C37   C123  A    
Cu4   O34   S    
C11   H17   S    
C20   H42   S    
C73   O32   S    
C3    C123  A    
C56   C72   A    
C6    O18   S    
C75   C102  A    
C78   O38   S    
C57   C83   A    
C27   H61   S    
C89   H45   S    
C38   O3    A    
C17   H31   S    
C25   H57   S    
C38   O5    A    
C79   C91   A    
C75   O35   S    
C109  C113  A    
C45   O44   A    
C21   O33   S    
C29   H68   S    
C11   O24   S    
C78   C92   A    
C44   O47   A    
C38   C69   S    
C16   O28   S    
C80   O40   S    
C14   H22   S    
Cu1   O17   S    
C1    C78   A    
C79   O39   S    
C12   H19   S    
C40   O6    A    
C103  C117  A    
C8    O20   S    
C81   O41   S    
C70   C87   A    
C81   C83   A    
C60   C87   A    
C18   O30   S    
C98   C118  A    
C57   C116  A    
C26   H60   S    
C33   C53   A    
C113  O24   S    
C82   C95   A    
C7    H3    S    
C110  O27   S    
C29   H69   S    
C106  O25   S    
C31   O43   S    
C35   C55   A    
Cu6   O11   S    
C12   H18   S    
C96   C109  A    
C35   C121  A    
Cu5   O9    S    
C19   H40   S    
C71   O31   S    
C31   H74   S    
C22   H48   S    
C25   H54   S    
Cu2   O12   S    
C23   H53   S    
C81   C96   A    
C9    H9    S    
C10   H13   S    
C16   H30   S    
C30   H73   S    
C62   C88   A    
C45   C63   S    
C67   C90   A    
C28   H66   S    
C49   C58   S    
C72   C80   A    
Cu3   O23   S    
C8    H5    S    
C77   O37   S    
C39   C79   A    
C32   C125  A    
C122  C126  A    
C36   C122  A    
C67   C116  A    
C64   C83   A    
C31   H75   S    
C36   C56   A    
C17   H32   S    
C104  C111  A    
C3    C97   A    
C73   C105  A    
C20   H41   S    
C108  O29   S    
C104  O26   S    
C43   C65   S    
C21   H44   S    
C39   C59   A    
C5    C34   A    
C63   C89   A    
C10   O22   S    
C68   C89   A    
C96   C126  A    
C24   C75   A    
C27   H62   S    
C118  C124  A    
C13   C74   A    
Cu3   O2    S    
Cu3   O15   S    
C107  C115  A    
C23   H51   S    
C69   C88   A    
C40   C70   S    
C15   H26   S    
C97   C110  A    
C74   O33   S    
C119  C125  A    
Cu1   O1    S    
C65   C94   A    
C10   H14   S    
C52   C105  A    
Cu4   O48   S    
C88   H34   S    
C91   C124  A    
C14   H21   S    
C51   O17   A    
C111  O19   S    
Cu2   O3    S    
C87   H23   S    
C27   H63   S    
C55   C61   A    
C66   C105  A    
C40   O4    A    
Cu5   Cu6   S    
C103  C121  A    
C58   C85   A    
C25   O37   S    
C48   C62   S    
C50   C54   A    
C42   O2    A    
C50   C82   A    
Cu3   Cu4   S    
C7    O19   S    
C18   H37   S    
C92   C106  A    
C76   C101  A    
C110  C114  A    
C21   H46   S    
C18   H36   S    
C29   H70   S    
C14   H24   S    
C53   C94   A    
C115  O21   S    
C108  C117  A    
C76   O36   S    
C100  C113  A    
C32   C118  A    
C42   O8    A    
C61   C84   A    
C74   C103  A    
C15   H27   S    
C22   O35   S    
C41   O7    A    
C9    H10   S    
Cu1   O4    S    
C34   C54   A    
C6    H78   S    
C26   H59   S    
C16   H29   S    
C30   H72   S    
C107  O30   S    
C15   O27   S    
C28   H65   S    
C9    O21   S    
C102  C120  A    
C50   C60   A    
C23   O36   S    
Cu4   O14   S    
Cu6   O46   S    
C59   C86   A    
C45   O11   A    
C7    H4    S    
C22   H50   S    
C2    C77   A    
C17   H33   S    
C1    C58   A    
C93   C107  A    
C48   O15   A    
Cu1   O5    S    
C24   C70   A    
C13   C69   A    
C3    C36   A    
C99   C112  A    
C31   H76   S    
C23   H52   S    
C28   H64   S    
C30   O42   S    
C7    H2    S    
C100  C122  A    
C84   C93   A    
C2    C56   A    
C71   C99   A    
C61   C62   A    
C1    C52   A    
C28   O40   S    
C73   C98   A    
C4    C35   A    
C95   C108  A    
C46   O13   A    
C33   C119  A    
C99   C119  A    
C4    C93   A    
Cu2   O6    S    
C49   O1    A    
C21   H47   S    
C18   H35   S    
C51   C59   S    
C63   C72   A    
C34   C120  A    
Cu2   O16   S    
C46   O45   A    
C46   C64   S    
C84   O43   S    
C33   C124  A    
C4    C120  A    
Cu5   O13   S    
C26   O38   S    
C101  C114  A    
Cu6   O10   S    
C71   C94   A    
C43   O9    A    
C41   O48   A    
Cu5   O47   S    
Cu1   Cu2   S    
C85   H1    S    
C10   H11   S    
C13   C55   A    
