data_str_m3_o14_o28_f0_pcu.sym.162
_audit_creation_date              2012-12-10T17:53:16-0500
_audit_creation_method            fapswitch 2.2
_symmetry_space_group_name_H-M    P1
_symmetry_Int_Tables_number       1
_space_group_crystal_system       triclinic
_cell_length_a                    23.421371
_cell_length_b                    10.717277
_cell_length_c                    9.851534
_cell_angle_alpha                 89.117686
_cell_angle_beta                  90.019121
_cell_angle_gamma                 91.362937
_cell_volume                      2471.87353508

loop_
_atom_site_label
_atom_site_type_symbol
_atom_type_description
_atom_site_fract_x
_atom_site_fract_y
_atom_site_fract_z
_atom_type_partial_charge
C1    C     C_R   0.503981 0.259612 0.501624 0.867790
C2    C     C_R   0.969303 0.245225 0.378110 -0.179103
C3    C     C_R   0.028887 0.246252 0.373804 0.353205
C4    C     C_R   0.060238 0.346301 0.435639 -0.145020
C5    C     C_R   0.030279 0.447624 0.491482 -0.077818
C6    C     C_R   0.060161 0.552240 0.547020 -0.136817
C7    C     C_R   0.029119 0.647810 0.611397 0.350346
C8    C     C_R   0.969679 0.643317 0.606842 -0.181902
C9    C     C_R   0.120171 0.349885 0.446546 0.599685
C10   C     C_R   0.119781 0.556803 0.533416 0.547753
C11   C     C_R   0.239176 0.471706 0.367883 0.240609
C12   C     C_R   0.389343 0.496544 0.499683 0.972973
C13   C     C_R   0.298433 0.486419 0.372226 -0.253814
C14   C     C_R   0.327212 0.486803 0.497276 -0.101678
C15   C     C_R   0.296386 0.475124 0.618636 -0.105265
C16   C     C_R   0.237387 0.461726 0.615005 -0.065348
C17   C     C_R   0.208768 0.460094 0.490333 0.242917
C18   C     C_R   0.763034 0.463516 0.378004 -0.221937
C19   C     C_R   0.704600 0.482075 0.376262 0.148422
C20   C     C_R   0.673919 0.482154 0.500445 -0.180180
C21   C     C_R   0.703420 0.458677 0.624666 0.029314
C22   C     C_R   0.761304 0.424628 0.621980 0.426563
C23   C     C_R   0.493532 0.739094 0.499537 0.946627
C24   C     C_R   0.791213 0.435579 0.498443 0.127811
C25   C     C_R   0.515777 0.103736 0.757988 -0.147286
C26   C     C_R   0.498131 0.041449 0.876445 -0.237236
C27   C     C_R   0.462776 0.935835 0.868028 -0.215821
C28   C     C_R   0.450109 0.884356 0.741474 0.493538
C29   C     C_R   0.477059 0.935637 0.622967 -0.020578
C30   C     C_R   0.500371 0.056692 0.629154 0.067076
C31   C     C_R   0.506074 0.125178 0.505377 -0.078937
C32   C     C_R   0.503216 0.064287 0.380849 -0.208776
C33   C     C_R   0.494809 0.937448 0.378361 -0.195049
C34   C     C_R   0.611162 0.498268 0.500073 0.916902
C35   C     C_R   0.484082 0.871671 0.499417 -0.057551
C36   C     C_R   0.424277 0.339693 0.143878 -0.232250
C37   C     C_R   0.385260 0.264394 0.075735 -0.337514
C38   C     C_R   0.384820 0.263351 0.935160 0.376492
C39   C     C_R   0.424031 0.338497 0.862503 -0.231406
C40   C     C_R   0.462970 0.419555 0.928991 0.138317
C41   C     C_R   0.462956 0.420009 0.073906 0.176567
C42   C     C_R   0.534634 0.578377 0.070356 -0.124059
C43   C     C_R   0.534310 0.578892 0.926841 -0.084730
C44   C     C_R   0.880531 0.538833 0.546964 0.586341
C45   C     C_R   0.880022 0.340689 0.439617 0.638199
C46   C     C_R   0.939807 0.342424 0.436534 -0.086380
C47   C     C_R   0.970146 0.444397 0.492052 -0.008172
C48   C     C_R   0.940125 0.543425 0.547910 -0.097323
H1    H     H_    0.945545 0.168360 0.333407 0.235632
H2    H     H_    0.508519 0.114109 0.284933 0.167869
H3    H     H_    0.542583 0.186388 0.769054 0.174394
H4    H     H_    0.508954 0.079521 0.974579 0.160330
H5    H     H_    0.443802 0.896357 0.959771 0.165085
H6    H     H_    0.498077 0.890896 0.281883 0.166905
H7    H     H_    0.562907 0.642196 0.123550 0.153423
H8    H     H_    0.422034 0.332787 0.251281 0.232594
H9    H     H_    0.355143 0.206873 0.133711 0.203839
H10   H     H_    0.422485 0.331571 0.755046 0.221773
H11   H     H_    0.561577 0.644356 0.871286 0.142657
H12   H     H_    0.946134 0.717283 0.653052 0.239036
H13   H     H_    0.321806 0.498137 0.277885 0.185379
H14   H     H_    0.317774 0.476443 0.716089 0.207323
H15   H     H_    0.213596 0.454024 0.709149 0.171711
H16   H     H_    0.787180 0.471957 0.284308 0.191574
N1    N     N_R   0.852010 0.437260 0.496105 -0.326599
N2    N     N_R   0.147883 0.455276 0.489491 -0.366030
N3    N     N_R   0.499460 0.498800 0.142780 -0.112221
N4    N     N_R   0.499440 0.498720 0.857170 -0.092907
O1    O     O_R   0.500000 0.316780 0.614690 -0.657288
O2    O     O_2   0.850030 0.243287 0.388094 -0.511678
O3    O     O_2   0.151112 0.249286 0.418374 -0.431824
O4    O     O_2   0.150112 0.662021 0.559724 -0.428194
O5    O     O_R   0.500000 0.316750 0.385360 -0.651954
O6    O     O_R   0.416160 0.499970 0.614690 -0.578289
O7    O     O_R   0.416150 0.499950 0.385360 -0.647210
O8    O     O_R   0.500000 0.683250 0.614640 -0.608767
O9    O     O_R   0.500000 0.683220 0.385310 -0.626404
O10   O     O_R   0.583850 0.500050 0.614640 -0.602689
O11   O     O_R   0.583840 0.500030 0.385310 -0.592967
O12   O     O_2   0.851046 0.634679 0.597007 -0.523205
Zn1   Zn    Zn3+2 0.500000 0.500020 0.653130 0.991041
Zn2   Zn    Zn3+2 0.500000 0.499980 0.346870 0.953406
N5    N     N_2   0.677897 0.507127 0.249209 -0.286254
H17   H     H_    0.699634 0.573808 0.191382 0.235802
C49   C     C_3   0.664326 0.396597 0.171827 -0.666254
H18   H     H_    0.704118 0.350557 0.140224 0.262658
H19   H     H_    0.640041 0.423160 0.079453 0.218216
H20   H     H_    0.637518 0.329736 0.232909 0.244708
N6    N     N_2   0.675941 0.477797 0.751592 -0.275044
H21   H     H_    0.682691 0.411734 0.826244 0.275245
C50   C     C_3   0.681062 0.604608 0.799535 -0.654192
H22   H     H_    0.726604 0.634636 0.807514 0.284441
H23   H     H_    0.661352 0.610607 0.901575 0.203153
H24   H     H_    0.658948 0.669232 0.728923 0.231158
S1    S     S_3+6 0.796210 0.370013 0.772224 0.046279
O13   O     O_2   0.802739 0.475449 0.870357 -0.313068
O14   O     O_2   0.760521 0.267521 0.837887 -0.277939
O15   O     O_3   0.860862 0.311831 0.739810 -0.514989
H25   H     H_    0.888646 0.365350 0.789372 0.376064
S2    S     S_3+6 0.389264 0.784077 0.732937 0.048359
O16   O     O_2   0.401015 0.664146 0.807087 -0.310111
O17   O     O_2   0.340332 0.844532 0.802537 -0.216786
O18   O     O_3   0.370738 0.757547 0.570808 -0.592138
H26   H     H_    0.328443 0.755063 0.569838 0.400425
S3    S     S_3+6 0.060426 0.125448 0.279235 0.131381
O19   O     O_2   0.089212 0.036359 0.374917 -0.126720
O20   O     O_2   0.016046 0.053869 0.199809 -0.251106
O21   O     O_3   0.109050 0.186536 0.169963 -0.469188
H27   H     H_    0.088577 0.251802 0.118493 0.342267
S4    S     S_3+6 0.333916 0.169218 0.850889 0.069505
O22   O     O_2   0.283335 0.246776 0.815651 -0.269710
O23   O     O_2   0.358759 0.119117 0.722672 -0.266920
O24   O     O_3   0.311692 0.050802 0.953256 -0.432750
H28   H     H_    0.347063 0.015445 0.991341 0.346842
S5    S     S_3+6 0.060932 0.767863 0.711366 0.137248
O25   O     O_2   0.087662 0.865937 0.619414 -0.119335
O26   O     O_2   0.017008 0.828385 0.798255 -0.251553
O27   O     O_3   0.111504 0.708455 0.813242 -0.452434
H29   H     H_    0.092014 0.639076 0.863718 0.336925
N7    N     N_2   0.209549 0.476517 0.241934 -0.325937
H30   H     H_    0.210972 0.564395 0.197776 0.256149
C51   C     C_3   0.223750 0.380296 0.146928 -0.593036
H31   H     H_    0.193126 0.381876 0.060924 0.250401
H32   H     H_    0.220945 0.286718 0.196871 0.305002
H33   H     H_    0.267494 0.396625 0.105791 0.221996

loop_
_geom_bond_atom_site_label_1
_geom_bond_atom_site_label_2
_ccdc_geom_bond_type
C12   O6    A    
S1    O13   D    
C22   S1    S    
C19   C20   A    
C23   O8    A    
C25   H3    S    
C44   N1    A    
S1    O15   S    
C7    C8    A    
C41   N3    A    
C21   N6    S    
C45   C46   A    
C2    C46   A    
S3    O20   D    
C17   N2    S    
C37   C38   A    
C18   C24   A    
N4    Zn1   S    
C28   C29   A    
C30   C31   A    
C34   O11   A    
C15   C16   A    
C1    C31   S    
O21   H27   S    
C18   C19   A    
C7    S5    S    
C9    N2    A    
S4    O22   D    
C47   C48   A    
C43   N4    A    
S5    O26   D    
C16   H15   S    
N6    C50   S    
C43   H11   S    
C33   H6    S    
C20   C34   S    
C28   S2    S    
C49   H19   S    
C21   C22   A    
O27   H29   S    
C36   C41   A    
C19   N5    S    
C11   N7    S    
N7    C51   S    
S4    O23   D    
C10   N2    A    
C38   C39   A    
S3    O21   S    
C44   O12   S    
C50   H22   S    
C16   C17   A    
C25   C26   A    
C49   H18   S    
C39   H10   S    
S2    O18   S    
C3    S3    S    
C8    C48   A    
C29   C30   A    
C36   H8    S    
C2    H1    S    
C26   H4    S    
C42   H7    S    
C50   H23   S    
C5    C47   A    
N5    H17   S    
S5    O27   S    
S2    O17   D    
C26   C27   A    
S1    O14   D    
C23   O9    A    
S4    O24   S    
C32   H2    S    
C24   N1    S    
C40   C41   A    
N5    C49   S    
C12   C14   S    
C23   C35   S    
C45   N1    A    
C42   N3    A    
C22   C24   A    
C38   S4    S    
C42   C43   A    
O6    Zn1   S    
C51   H32   S    
C3    C4    A    
O5    Zn2   S    
C39   C40   A    
N7    H30   S    
O24   H28   S    
C49   H20   S    
C25   C30   A    
C46   C47   A    
C11   C17   A    
C45   O2    S    
C31   C32   A    
C9    O3    S    
C4    C5    A    
O8    Zn1   S    
C6    C10   A    
O11   Zn2   S    
C27   H5    S    
O7    Zn2   S    
C37   H9    S    
C6    C7    A    
S3    O19   D    
C29   C35   A    
C1    O5    A    
C32   C33   A    
C51   H33   S    
C2    C3    A    
N6    H21   S    
C34   O10   A    
C50   H24   S    
C11   C13   A    
O10   Zn1   S    
C18   H16   S    
C5    C6    A    
O9    Zn2   S    
S2    O16   D    
C33   C35   A    
C15   H14   S    
C1    O1    A    
O1    Zn1   S    
C44   C48   A    
C13   H13   S    
C20   C21   A    
N3    Zn2   S    
C36   C37   A    
O15   H25   S    
C40   N4    A    
C12   O7    A    
O18   H26   S    
C51   H31   S    
C14   C15   A    
C4    C9    A    
C13   C14   A    
C8    H12   S    
S5    O25   D    
C27   C28   A    
C10   O4    S    
