data_str_m2_o10_o16_f0_pcu.sym.192
_audit_creation_date              2012-12-10T16:44:17-0500
_audit_creation_method            fapswitch 2.2
_symmetry_space_group_name_H-M    P1
_symmetry_Int_Tables_number       1
_space_group_crystal_system       triclinic
_cell_length_a                    7.463572
_cell_length_b                    8.709208
_cell_length_c                    13.482401
_cell_angle_alpha                 94.695328
_cell_angle_beta                  77.658642
_cell_angle_gamma                 103.275223
_cell_volume                      832.756025306

loop_
_atom_site_label
_atom_site_type_symbol
_atom_type_description
_atom_site_fract_x
_atom_site_fract_y
_atom_site_fract_z
_atom_type_partial_charge
C1    C     C_R   0.547646 0.799519 0.499190 0.757812
C2    C     C_R   0.436225 0.427619 0.959700 0.016731
C3    C     C_R   0.457300 0.511460 0.870561 0.065728
C4    C     C_R   0.559734 0.486463 0.028994 0.055266
C5    C     C_R   0.722632 0.606212 0.995836 0.115843
C6    C     C_R   0.741531 0.685255 0.907221 -0.164752
C7    C     C_R   0.604170 0.645528 0.849349 -0.125701
C8    C     C_R   0.522398 0.441447 0.132007 -0.068010
C9    C     C_R   0.828575 0.601682 0.152453 -0.169174
C10   C     C_R   0.336491 0.454997 0.801450 -0.151181
C11   C     C_2   0.581285 0.966521 0.489030 0.324336
C12   C     C_R   0.399079 0.490952 0.693654 0.796803
C13   C     C_2   0.433718 0.032291 0.493991 -0.485850
C14   C     C_R   0.456062 0.200007 0.495509 0.888056
C15   C     C_R   0.599217 0.502012 0.305959 0.760640
C16   C     C_R   0.860491 0.653750 0.054548 -0.187592
C17   C     C_R   0.655216 0.506677 0.194400 -0.123571
C18   C     C_R   0.180724 0.330587 0.827756 -0.251709
C19   C     C_R   0.161248 0.245107 0.913834 0.526764
C20   C     C_R   0.299406 0.284161 0.972311 -0.187277
Cu1   Cu    Cu3+1 0.321300 0.483160 0.488710 0.970453
Cu2   Cu    Cu3+1 0.678700 0.516840 0.511290 0.993225
H1    H     H_    0.931480 0.650085 0.198933 0.175688
H2    H     H_    0.291887 0.961345 0.499297 0.146770
H3    H     H_    0.998133 0.398040 0.412021 0.243257
H4    H     H_    0.859610 0.782811 0.884582 0.182366
H5    H     H_    0.988451 0.739720 0.027067 0.161987
H6    H     H_    0.086821 0.287249 0.775564 0.192748
H7    H     H_    0.298492 0.198085 0.025564 0.140731
H8    H     H_    0.618091 0.717724 0.785321 0.145187
N1    N     N_2   0.947230 0.542220 0.528320 -0.187345
N2    N     N_2   0.052770 0.457780 0.471680 -0.215654
O1    O     O_R   0.383920 0.714220 0.492660 -0.636936
O2    O     O_R   0.685730 0.742660 0.511730 -0.577894
O3    O     O_R   0.275440 0.478800 0.636790 -0.576623
O4    O     O_R   0.577250 0.507240 0.655860 -0.558260
O5    O     O_R   0.314270 0.257340 0.488270 -0.590341
O6    O     O_R   0.616080 0.285780 0.507340 -0.517979
O7    O     O_R   0.422750 0.492760 0.344140 -0.570699
O8    O     O_R   0.724560 0.521200 0.363210 -0.596607
C21   C     C_2   0.003356 0.618754 0.616649 0.753381
H9    H     H_    0.098493 0.733360 0.612870 -0.025382
O9    O     O_2   0.937214 0.559117 0.698936 -0.582481
C22   C     C_2   0.337144 0.345578 0.180588 0.360285
H10   H     H_    0.331094 0.243268 0.223116 0.039635
O10   O     O_2   0.191762 0.386232 0.178690 -0.554973
O11   O     O_3   0.022781 0.109376 0.933464 -0.601181
C23   C     C_3   0.849095 0.152608 0.970940 -0.331827
H11   H     H_    0.805009 0.209185 0.911802 0.178778
H12   H     H_    0.853886 0.231860 0.039974 0.189906
H13   H     H_    0.740123 0.044259 0.993051 0.181789
O12   O     O_3   0.764226 0.054435 0.479972 -0.538975
C24   C     C_3   0.856905 0.045763 0.377466 -0.268652
H14   H     H_    0.789777 0.100470 0.327442 0.147029
H15   H     H_    0.861580 0.922036 0.350886 0.146901
H16   H     H_    0.004333 0.112808 0.370487 0.188531

loop_
_geom_bond_atom_site_label_1
_geom_bond_atom_site_label_2
_ccdc_geom_bond_type
C2    C4    A    
C6    C7    A    
Cu1   O3    S    
C12   O4    A    
C21   O9    D    
C21   H9    S    
C8    C17   A    
Cu1   O7    S    
C4    C8    A    
Cu2   O8    S    
Cu1   Cu2   S    
C19   C20   A    
C23   H12   S    
C2    C3    A    
C1    O1    A    
C3    C10   A    
C24   H14   S    
C22   H10   S    
C14   O5    A    
C11   C13   D    
C15   O7    A    
C6    H4    S    
C10   C12   S    
H3    N2    S    
C9    C17   A    
C23   H11   S    
C9    C16   A    
C10   C18   A    
C1    O2    A    
C3    C7    A    
C20   H7    S    
C24   H15   S    
C5    C6    A    
Cu2   O2    S    
Cu1   N2    S    
C19   O11   S    
C15   O8    A    
Cu1   O1    S    
Cu2   N1    S    
C2    C20   A    
C14   O6    A    
Cu2   O6    S    
O11   C23   S    
C8    C22   S    
C18   H6    S    
O12   C24   S    
Cu1   O5    S    
C7    H8    S    
C18   C19   A    
C16   H5    S    
C24   H16   S    
C15   C17   S    
C9    H1    S    
C5    C16   A    
C11   O12   S    
N1    C21   S    
C13   C14   S    
C23   H13   S    
Cu2   O4    S    
N1    N2    D    
C13   H2    S    
C22   O10   D    
C4    C5    A    
C12   O3    A    
C1    C11   S    
