data_str_m4_o4_o9_f0_acs.sym.50
_audit_creation_date              2012-12-11T15:55:56-0500
_audit_creation_method            fapswitch 2.2
_symmetry_space_group_name_H-M    P1
_symmetry_Int_Tables_number       1
_space_group_crystal_system       triclinic
_cell_length_a                    11.049702
_cell_length_b                    11.071559
_cell_length_c                    18.747158
_cell_angle_alpha                 90.442338
_cell_angle_beta                  90.830258
_cell_angle_gamma                 59.054383
_cell_volume                      1966.80895753

loop_
_atom_site_label
_atom_site_type_symbol
_atom_type_description
_atom_site_fract_x
_atom_site_fract_y
_atom_site_fract_z
_atom_type_partial_charge
C1    C     C_R   0.361970 0.764368 0.395023 0.530801
C2    C     C_R   0.241322 0.446592 0.197214 -0.155025
C3    C     C_R   0.242981 0.452854 0.271376 -0.042564
C4    C     C_R   0.388878 0.358628 0.385785 0.544162
C5    C     C_R   0.855233 0.765689 0.369804 -0.128758
C6    C     C_R   0.868834 0.642514 0.342765 -0.099735
C7    C     C_R   0.996653 0.536274 0.313738 -0.098182
C8    C     C_R   0.109277 0.559189 0.306721 0.032912
C9    C     C_R   0.370207 0.357136 0.308250 -0.004108
C10   C     C_R   0.867425 0.329850 0.183681 0.027278
C11   C     C_R   0.951531 0.221535 0.231892 0.002624
C12   C     C_R   0.619495 0.150009 0.159373 0.046436
C13   C     C_R   0.922475 0.236983 0.303766 -0.020769
C14   C     C_R   0.724627 0.469769 0.280257 -0.165200
C15   C     C_R   0.756583 0.457021 0.208398 -0.166274
C16   C     C_R   0.772359 0.381263 0.402085 0.545915
C17   C     C_3   0.983296 0.073151 0.232381 -0.251042
C18   C     C_3   0.949281 0.091823 0.310782 -0.291006
C19   C     C_R   0.808434 0.360437 0.328295 0.022420
C20   C     C_R   0.367364 0.835514 0.173320 0.014162
C21   C     C_R   0.395685 0.912744 0.223222 0.016072
C22   C     C_R   0.396787 0.889436 0.295590 -0.002527
C23   C     C_R   0.359300 0.343802 0.159327 -0.013487
C24   C     C_R   0.377274 0.688280 0.269666 -0.180922
C25   C     C_R   0.369862 0.714684 0.196465 -0.174583
C26   C     C_3   0.327010 0.067391 0.233678 -0.256943
C27   C     C_3   0.329053 0.041894 0.313227 -0.291938
C28   C     C_R   0.342226 0.772285 0.603298 0.546510
C29   C     C_R   0.367200 0.789144 0.319528 0.002582
C30   C     C_R   0.297739 0.305328 0.807647 0.019650
C31   C     C_R   0.404278 0.192073 0.770068 0.041788
C32   C     C_R   0.415299 0.195789 0.697831 0.024246
C33   C     C_R   0.197100 0.419542 0.693913 -0.170295
C34   C     C_R   0.493461 0.271792 0.269135 -0.160980
C35   C     C_R   0.186307 0.414562 0.768396 -0.168373
C36   C     C_3   0.560040 0.112404 0.782804 -0.276313
C37   C     C_3   0.573835 0.114617 0.702972 -0.269410
C38   C     C_R   0.320847 0.317020 0.659695 0.016733
C39   C     C_R   0.809939 0.331611 0.836820 0.013499
C40   C     C_R   0.368911 0.348617 0.594660 0.549473
C41   C     C_R   0.746724 0.463508 0.803603 0.019540
C42   C     C_R   0.738860 0.472823 0.730619 0.044387
C43   C     C_R   0.830803 0.224347 0.719797 -0.173226
C44   C     C_R   0.840628 0.213173 0.794483 -0.165976
C45   C     C_R   0.490726 0.262868 0.195178 -0.038246
C46   C     C_3   0.773098 0.583771 0.809164 -0.271556
C47   C     C_3   0.768899 0.589389 0.728665 -0.267475
C48   C     C_R   0.789267 0.354024 0.687274 0.021998
C49   C     C_R   0.288201 0.871585 0.820148 0.020859
C50   C     C_R   0.179684 0.872170 0.781605 0.024767
C51   C     C_R   0.187569 0.857336 0.708552 0.023540
C52   C     C_R   0.760747 0.378121 0.611287 0.546104
C53   C     C_R   0.395116 0.875719 0.707761 -0.159760
C54   C     C_R   0.390120 0.885260 0.782020 -0.149192
C55   C     C_3   0.118532 0.780801 0.790405 -0.285269
C56   C     C_R   0.085652 0.692304 0.325747 -0.045392
C57   C     C_3   0.128262 0.762573 0.710243 -0.264751
C58   C     C_R   0.303151 0.844976 0.671415 0.019093
C59   C     C_R   0.912420 0.314757 0.111541 0.538516
C60   C     C_R   0.329749 0.297037 0.091105 0.534795
C61   C     C_R   0.310825 0.896200 0.104005 0.537990
C62   C     C_R   0.880011 0.310614 0.905687 0.545508
C63   C     C_R   0.292729 0.285848 0.883803 0.543330
C64   C     C_R   0.842032 0.929595 0.083396 -0.109266
C65   C     C_R   0.271884 0.900797 0.896087 0.544953
C66   C     C_R   0.798496 0.901246 0.147451 -0.124807
C67   C     C_R   0.965287 0.789505 0.362281 -0.107479
C68   C     C_R   0.687726 0.010556 0.185269 -0.105397
C69   C     C_R   0.666988 0.177820 0.095900 -0.061043
C70   C     C_R   0.775866 0.067441 0.057542 -0.080272
Cr1   Cr    Cr6+3 0.601740 0.606840 0.505840 1.004686
Cr2   Cr    Cr6+3 0.291500 0.601560 0.495070 1.014236
Cr3   Cr    Cr6+3 0.606780 0.291630 0.499130 0.998334
Cr4   Cr    Cr6+3 0.062440 0.063060 0.008240 0.983955
Cr5   Cr    Cr6+3 0.062950 0.375000 0.998920 0.998423
Cr6   Cr    Cr6+3 0.374550 0.061770 0.992470 1.016997
H1    H     H_    0.593635 0.207265 0.296462 0.139167
H2    H     H_    0.042178 0.025554 0.345692 0.136891
H3    H     H_    0.384340 0.592592 0.287626 0.133876
H4    H     H_    0.808437 0.088599 0.007451 0.134164
H5    H     H_    0.357922 0.646453 0.158998 0.126295
H6    H     H_    0.220464 0.128151 0.209112 0.145742
H7    H     H_    0.399339 0.101971 0.218286 0.161581
H8    H     H_    0.401598 0.065497 0.343626 0.148904
H9    H     H_    0.222522 0.086639 0.336327 0.140226
H10   H     H_    0.116678 0.510113 0.664773 0.121556
H11   H     H_    0.096456 0.499100 0.795157 0.117415
H12   H     H_    0.758044 0.844185 0.394562 0.111617
H13   H     H_    0.600815 0.004931 0.804243 0.129327
H14   H     H_    0.596785 0.175693 0.812049 0.141383
H15   H     H_    0.621732 0.176795 0.687060 0.174039
H16   H     H_    0.955792 0.884435 0.383574 0.110580
H17   H     H_    0.621166 0.008543 0.678160 0.123647
H18   H     H_    0.861345 0.131324 0.687806 0.124077
H19   H     H_    0.885845 0.109719 0.818161 0.139334
H20   H     H_    0.878110 0.556093 0.830503 0.164510
H21   H     H_    0.683583 0.678147 0.834166 0.126613
H22   H     H_    0.680140 0.687887 0.706767 0.142830
H23   H     H_    0.777696 0.634018 0.344448 0.157715
H24   H     H_    0.872981 0.556299 0.704815 0.136938
H25   H     H_    0.477200 0.880688 0.679669 0.118145
H26   H     H_    0.008089 0.840634 0.809603 0.130207
H27   H     H_    0.926927 0.844794 0.053753 0.106464
H28   H     H_    0.189978 0.682156 0.820169 0.139085
H29   H     H_    0.207706 0.653927 0.693936 0.167777
H30   H     H_    0.023670 0.809464 0.682998 0.129821
H31   H     H_    0.849794 0.794473 0.167570 0.121912
H32   H     H_    0.653479 0.985490 0.233877 0.106239
H33   H     H_    0.156941 0.724152 0.311422 0.137628
H34   H     H_    0.006782 0.439276 0.294645 0.124773
H35   H     H_    0.616082 0.283905 0.074832 0.093945
H36   H     H_    0.142015 0.514329 0.169668 0.143073
H37   H     H_    0.467930 0.900200 0.809496 0.133921
H38   H     H_    0.636918 0.566667 0.299318 0.139555
H39   H     H_    0.693961 0.544092 0.172403 0.131309
H40   H     H_    0.095638 0.995441 0.222334 0.163439
H41   H     H_    0.907864 0.058910 0.199529 0.173216
H42   H     H_    0.851443 0.091315 0.323044 0.143107
O1    O     O_R   0.748670 0.497520 0.427970 -0.534254
O2    O     O_R   0.417470 0.174910 0.067830 -0.502436
O3    O     O_R   0.375160 0.946380 0.070880 -0.493018
O4    O     O_R   0.476470 0.723930 0.429450 -0.503297
O5    O     O_R   0.160500 0.919670 0.926690 -0.521870
O6    O     O_R   0.933140 0.190380 0.936050 -0.525011
O7    O     O_R   0.909010 0.403210 0.925030 -0.524842
O8    O     O_R   0.179590 0.361290 0.918480 -0.509636
O9    O     O_R   0.391360 0.170840 0.907510 -0.525230
O10   O     O_R   0.350950 0.942600 0.922260 -0.514790
O11   O     O_3   0.166650 0.166610 0.999880 -0.246109
O12   O     O_R   0.300170 0.471020 0.567120 -0.506009
O13   O     O_R   0.264730 0.744140 0.416740 -0.538170
O14   O     O_R   0.309440 0.472410 0.418220 -0.491108
O15   O     O_R   0.501630 0.260530 0.414310 -0.536321
O16   O     O_R   0.727920 0.305730 0.428950 -0.506949
O17   O     O_R   0.738670 0.496020 0.588600 -0.514594
O18   O     O_R   0.467190 0.722540 0.578350 -0.504065
O19   O     O_R   0.254720 0.742640 0.577370 -0.522376
O20   O     O_R   0.491630 0.259030 0.574940 -0.523945
O21   O     O_R   0.718640 0.304340 0.577850 -0.510519
O22   O     O_3   0.500010 0.500010 0.500020 -0.253396
O23   O     O_R   0.186620 0.923750 0.087000 -0.524931
O24   O     O_R   0.957350 0.194160 0.084660 -0.508413
O25   O     O_R   0.935120 0.407280 0.085350 -0.522177
O26   O     O_R   0.203800 0.365060 0.067090 -0.510308

loop_
_geom_bond_atom_site_label_1
_geom_bond_atom_site_label_2
_ccdc_geom_bond_type
C36   H13   S    
C64   H27   S    
Cr4   O6    S    
C12   C69   A    
C26   H7    S    
C23   C45   A    
C22   C29   A    
C69   H35   S    
C41   C42   A    
Cr1   O4    S    
C57   H29   S    
C66   H31   S    
C5    C67   A    
C16   O16   A    
C8    C56   A    
C62   O6    A    
C7    C8    A    
C4    O14   A    
C53   C54   A    
C12   C68   A    
C55   H26   S    
C2    H36   S    
C26   C27   S    
Cr6   O2    S    
C47   H22   S    
C49   C65   S    
C13   C18   S    
Cr6   O3    S    
C36   C37   S    
C38   C40   S    
C10   C15   A    
C31   C36   S    
C34   H1    S    
Cr1   O17   S    
C30   C31   A    
Cr3   O20   S    
C49   C54   A    
C54   H37   S    
C43   H18   S    
C61   O3    A    
C20   C61   S    
C27   H9    S    
C1    O4    A    
C24   C29   A    
C5    H12   S    
C35   H11   S    
C59   O24   A    
C53   H25   S    
C40   O20   A    
C41   C46   S    
C60   O2    A    
C51   C57   S    
C64   C70   A    
C43   C48   A    
C18   H42   S    
C17   H41   S    
C57   H30   S    
Cr4   O24   S    
C59   O25   A    
C26   H6    S    
C21   C22   A    
C25   H5    S    
C21   C26   S    
Cr2   O14   S    
C23   C60   S    
C66   C68   A    
C13   C19   A    
C70   H4    S    
C65   O10   A    
C24   C25   A    
C39   C41   A    
C3    C8    S    
Cr5   O26   S    
C16   O1    A    
Cr1   O18   S    
C51   C58   A    
C37   H15   S    
Cr3   O21   S    
C50   C51   A    
C14   H38   S    
C55   H28   S    
C47   H24   S    
Cr5   O7    S    
C64   C66   A    
C43   C44   A    
C3    C9    A    
Cr6   O11   S    
C24   H3    S    
C31   C32   A    
Cr2   O22   S    
C18   H2    S    
C1    C29   S    
C17   C18   S    
C37   H17   S    
C34   C45   A    
C42   C48   A    
C32   C37   S    
Cr3   O16   S    
C39   C44   A    
Cr5   O25   S    
C30   C35   A    
C61   O23   A    
Cr2   O19   S    
C46   H21   S    
Cr3   O15   S    
C32   C38   A    
C22   C27   S    
C55   C57   S    
C9    C34   A    
Cr6   O10   S    
C15   H39   S    
C56   H33   S    
Cr2   O13   S    
C36   H14   S    
C52   O17   A    
C39   C62   S    
C40   O12   A    
C46   C47   S    
C11   C17   S    
Cr1   O22   S    
C28   O18   A    
C14   C19   A    
Cr4   O23   S    
C28   O19   A    
C50   C55   S    
C12   C45   S    
C1    O13   A    
C62   O7    A    
C53   C58   A    
Cr2   O12   S    
C6    C7    A    
Cr3   O22   S    
C28   C58   S    
C56   C67   A    
C33   C38   A    
C7    H34   S    
Cr1   O1    S    
Cr5   O8    S    
C6    H23   S    
C2    C3    A    
C52   O21   A    
C44   H19   S    
C60   O26   A    
C27   H8    S    
C11   C13   A    
C5    C6    A    
C16   C19   S    
C67   H16   S    
C33   C35   A    
Cr4   O5    S    
C42   C47   S    
C65   O5    A    
C69   C70   A    
C63   O8    A    
C10   C11   A    
C48   C52   S    
C46   H20   S    
C20   C21   A    
C49   C50   A    
C20   C25   A    
Cr4   O11   S    
C2    C23   A    
Cr6   O9    S    
C14   C15   A    
C68   H32   S    
C4    C9    S    
C30   C63   S    
C10   C59   S    
C33   H10   S    
C63   O9    A    
Cr5   O11   S    
C17   H40   S    
C4    O15   A    
