data_str_m3_o12_o25_f0_pcu.sym.103
_audit_creation_date              2012-12-10T17:23:30-0500
_audit_creation_method            fapswitch 2.2
_symmetry_space_group_name_H-M    P1
_symmetry_Int_Tables_number       1
_space_group_crystal_system       triclinic
_cell_length_a                    10.115198
_cell_length_b                    10.825753
_cell_length_c                    15.725297
_cell_angle_alpha                 90.263842
_cell_angle_beta                  81.523233
_cell_angle_gamma                 95.772162
_cell_volume                      1694.45432146

loop_
_atom_site_label
_atom_site_type_symbol
_atom_type_description
_atom_site_fract_x
_atom_site_fract_y
_atom_site_fract_z
_atom_type_partial_charge
C1    C     C_R   0.556751 0.732782 0.490992 0.827069
C2    C     C_3   0.531273 0.391778 0.967065 0.424657
C3    C     C_3   0.592207 0.590391 0.966244 0.432661
C4    C     C_3   0.408213 0.410195 0.033690 0.431916
C5    C     C_1   0.502226 0.503422 0.750710 -0.182430
C6    C     C_1   0.497879 0.496800 0.249271 -0.180762
C7    C     C_3   0.375187 0.523102 0.983813 -0.498032
C8    C     C_3   0.625235 0.477489 0.016135 -0.498054
C9    C     C_3   0.500514 0.504298 0.916961 -0.040109
C10   C     C_3   0.499891 0.496276 0.082988 -0.040211
C11   C     C_1   0.502177 0.505042 0.825971 0.086663
C12   C     C_R   0.443257 0.266902 0.503699 0.795632
C13   C     C_1   0.498080 0.495377 0.173993 0.084411
C14   C     C_2   0.590622 0.864993 0.476046 0.270046
C15   C     C_2   0.410275 0.133580 0.497519 0.284336
C16   C     C_3   0.762302 0.743733 0.981657 0.123722
C17   C     C_3   0.876471 0.828853 0.932216 -0.856789
C18   C     C_3   0.238314 0.256789 0.018047 0.124361
C19   C     C_3   0.123991 0.171685 0.067332 -0.859292
C20   C     C_3   0.394641 0.800541 0.019169 0.102474
C21   C     C_3   0.363837 0.919384 0.066320 -0.840108
C22   C     C_3   0.605835 0.200079 0.980828 0.101058
C23   C     C_2   0.490690 0.932989 0.464963 -0.250201
C24   C     C_3   0.636693 0.081225 0.933709 -0.835597
C25   C     C_3   0.242955 0.076527 0.607678 0.095481
C26   C     C_3   0.103942 0.006854 0.630250 -0.794561
C27   C     C_3   0.800347 0.916692 0.403646 0.071584
C28   C     C_3   0.940301 0.977317 0.411629 -0.756676
C29   C     C_2   0.510328 0.066374 0.466154 -0.211755
C30   C     C_2   0.927720 0.511019 0.506697 -0.120064
C31   C     C_2   0.072352 0.489259 0.493108 -0.117550
C32   C     C_R   0.500734 0.500866 0.661980 0.903269
C33   C     C_R   0.499273 0.499144 0.338012 0.886197
C34   C     C_3   0.469151 0.608811 0.032882 0.424177
H1    H     H_    0.724818 0.459224 0.032096 0.165945
H2    H     H_    0.698984 0.800687 0.026809 0.163586
H3    H     H_    0.836168 0.894691 0.891149 0.264886
H4    H     H_    0.933341 0.882319 0.977920 0.203233
H5    H     H_    0.945861 0.772914 0.890622 0.259750
H6    H     H_    0.301781 0.199814 0.973009 0.164141
H7    H     H_    0.192791 0.323809 0.980467 0.140820
H8    H     H_    0.054442 0.227646 0.108782 0.259110
H9    H     H_    0.067357 0.118185 0.021525 0.204174
H10   H     H_    0.164113 0.105881 0.108518 0.263775
H11   H     H_    0.300701 0.759308 0.996788 0.146408
H12   H     H_    0.275602 0.541380 0.967860 0.166214
H13   H     H_    0.473098 0.824009 0.962644 0.164637
H14   H     H_    0.453815 0.961124 0.092747 0.258200
H15   H     H_    0.334322 0.986331 0.021140 0.211655
H16   H     H_    0.280029 0.899189 0.120045 0.260553
H17   H     H_    0.527375 0.176616 0.037352 0.163888
H18   H     H_    0.699759 0.241349 0.003209 0.146253
H19   H     H_    0.720509 0.101422 0.879990 0.262465
H20   H     H_    0.666224 0.014313 0.978907 0.210501
H21   H     H_    0.546734 0.039442 0.907280 0.258256
H22   H     H_    0.239465 0.172101 0.633770 0.150525
H23   H     H_    0.612269 0.109424 0.447675 0.189910
H24   H     H_    0.314855 0.027245 0.639091 0.141866
H25   H     H_    0.104256 0.910535 0.605578 0.248381
H26   H     H_    0.074597 0.003157 0.701156 0.204665
H27   H     H_    0.029166 0.054912 0.601236 0.268271
H28   H     H_    0.759525 0.969115 0.354229 0.132420
H29   H     H_    0.809506 0.819546 0.381701 0.156816
H30   H     H_    0.985412 0.924770 0.458626 0.265812
H31   H     H_    0.005410 0.977653 0.348253 0.205305
H32   H     H_    0.934870 0.074594 0.433602 0.252750
H33   H     H_    0.389777 0.889926 0.461481 0.205716
H34   H     H_    0.107598 0.420042 0.447415 0.173000
H35   H     H_    0.892520 0.580410 0.552264 0.173461
H36   H     H_    0.120837 0.616412 0.577346 0.165681
H37   H     H_    0.879118 0.383427 0.422774 0.165114
H38   H     H_    0.807993 0.676685 0.019113 0.140141
N1    N     N_2   0.842700 0.448880 0.465440 -0.192869
N2    N     N_2   0.157300 0.551120 0.534560 -0.193028
O1    O     O_R   0.431060 0.692470 0.506960 -0.633000
O2    O     O_3   0.314836 0.317342 0.076926 -0.604488
O3    O     O_3   0.439489 0.719374 0.075955 -0.608985
O4    O     O_3   0.560970 0.281204 0.924018 -0.607993
O5    O     O_3   0.279114 0.079497 0.517474 -0.602773
O6    O     O_3   0.718137 0.919390 0.484249 -0.595796
O7    O     O_R   0.568940 0.307530 0.493040 -0.630559
O8    O     O_R   0.651120 0.659650 0.484770 -0.596800
O9    O     O_R   0.348880 0.340350 0.515230 -0.588084
O10   O     O_R   0.389990 0.516420 0.634310 -0.611001
O11   O     O_R   0.610010 0.483580 0.365690 -0.617132
O12   O     O_R   0.610050 0.483600 0.612130 -0.591040
O13   O     O_R   0.389950 0.516400 0.387870 -0.598318
O14   O     O_3   0.685518 0.683212 0.922911 -0.603180
Zn1   Zn    Zn3+2 0.353060 0.521920 0.514810 0.955681
Zn2   Zn    Zn3+2 0.646940 0.478080 0.485190 0.953560

loop_
_geom_bond_atom_site_label_1
_geom_bond_atom_site_label_2
_ccdc_geom_bond_type
C28   H32   S    
C16   H38   S    
C25   H22   S    
C21   H15   S    
C24   H21   S    
C20   O3    S    
C2    O4    S    
C23   C29   S    
N2    Zn1   S    
C26   H27   S    
N1    Zn2   S    
C5    C11   T    
C34   O3    S    
C30   C31   S    
C24   H20   S    
C18   C19   S    
C17   H5    S    
C23   H33   S    
C18   H6    S    
C33   O11   A    
C15   O5    S    
C16   C17   S    
H36   N2    S    
C14   O6    S    
C26   H25   S    
C20   H11   S    
C19   H8    S    
C5    C32   S    
C4    C7    S    
O9    Zn1   S    
C21   H16   S    
C19   H9    S    
C15   C29   D    
C31   H34   S    
C32   O10   A    
C1    O1    A    
C7    H12   S    
C22   O4    S    
C3    C8    S    
O12   Zn2   S    
C18   H7    S    
H37   N1    S    
C30   N1    D    
C31   N2    D    
C3    C34   S    
C1    O8    A    
C12   O9    A    
C8    H1    S    
C14   C23   D    
C2    C4    S    
C3    C9    S    
C27   H28   S    
C12   C15   S    
C32   O12   A    
C10   C34   S    
C17   H3    S    
C9    C11   S    
C27   H29   S    
O7    Zn2   S    
C28   H30   S    
C29   H23   S    
C27   O6    S    
O13   Zn1   S    
C7    C34   S    
C22   C24   S    
C25   H24   S    
C4    C10   S    
C30   H35   S    
C19   H10   S    
C22   H18   S    
C7    C9    S    
C18   O2    S    
C3    O14   S    
C25   O5    S    
C2    C8    S    
C10   C13   S    
O11   Zn2   S    
C24   H19   S    
O8    Zn2   S    
C6    C33   S    
C21   H14   S    
C28   H31   S    
C25   C26   S    
C16   H2    S    
C6    C13   T    
C12   O7    A    
C17   H4    S    
C33   O13   A    
C4    O2    S    
C20   H13   S    
O1    Zn1   S    
C20   C21   S    
C8    C10   S    
O10   Zn1   S    
C27   C28   S    
C16   O14   S    
C1    C14   S    
C2    C9    S    
C26   H26   S    
C22   H17   S    
