data_str_m9_o11_o16_f0_sra.sym.181
_audit_creation_date              2012-12-11T14:17:35-0500
_audit_creation_method            fapswitch 2.2
_symmetry_space_group_name_H-M    P1
_symmetry_Int_Tables_number       1
_space_group_crystal_system       triclinic
_cell_length_a                    6.944615
_cell_length_b                    13.619154
_cell_length_c                    20.388883
_cell_angle_alpha                 102.127776
_cell_angle_beta                  90.150014
_cell_angle_gamma                 90.489234
_cell_volume                      1885.2497062

loop_
_atom_site_label
_atom_site_type_symbol
_atom_type_description
_atom_site_fract_x
_atom_site_fract_y
_atom_site_fract_z
_atom_type_partial_charge
O1    O     O_R   0.506860 0.599390 0.449240 -0.539849
O2    O     O_R   0.180220 0.594600 0.586780 -0.543196
O3    O     O_R   0.004500 0.400610 0.550760 -0.536477
C1    C     C_R   0.349165 0.616252 0.613408 0.740690
O4    O     O_R   0.177490 0.611290 0.451970 -0.541197
O5    O     O_R   0.001750 0.417420 0.414990 -0.538908
C2    C     C_R   0.346473 0.638212 0.435436 0.696659
O6    O     O_R   0.509610 0.582580 0.585010 -0.543490
O7    O     O_3   0.337420 0.436370 0.488020 -0.369735
V1    V     V_3+5 0.064680 0.511800 0.502220 1.423644
O8    O     O_R   0.671710 0.405400 0.413220 -0.546164
C3    C     C_R   0.839703 0.383984 0.386559 0.736802
O9    O     O_R   0.674440 0.388710 0.548030 -0.539742
C4    C     C_R   0.843072 0.362026 0.564879 0.702385
V2    V     V_3+5 0.564010 0.488200 0.497780 1.421254
O10   O     O_3   0.841140 0.563630 0.511980 -0.373769
C5    C     C_R   0.888155 0.105511 0.608944 0.118464
H1    H     H_    0.895966 0.981741 0.698656 0.134126
C6    C     C_R   0.852515 0.281265 0.602460 -0.149620
C7    C     C_R   0.848816 0.314759 0.927077 -0.154613
C8    C     C_R   0.840446 0.391476 0.890871 0.191386
C9    C     C_R   0.844565 0.365887 0.820553 -0.225052
C10   C     C_R   0.856701 0.264692 0.784896 0.086108
C11   C     C_R   0.866166 0.188461 0.822910 0.066124
C12   C     C_R   0.860748 0.236892 0.712903 0.059623
C13   C     C_R   0.878750 0.133775 0.680432 0.045654
C14   C     C_R   0.886512 0.061018 0.720169 -0.187158
C15   C     C_R   0.880011 0.087664 0.789520 -0.184977
C16   C     C_R   0.847289 0.308599 0.672252 -0.268224
C17   C     C_R   0.872401 0.179562 0.570057 0.308456
C18   C     C_R   0.861590 0.214361 0.893894 -0.127630
H2    H     H_    0.831709 0.387543 0.693059 0.118363
H3    H     H_    0.845834 0.331796 0.981334 0.125357
H4    H     H_    0.839195 0.427854 0.795461 0.107383
H5    H     H_    0.886569 0.027661 0.816870 0.111913
C19   C     C_2   0.005453 0.288517 0.285243 -0.124211
C20   C     C_2   0.842129 0.315431 0.319819 -0.300931
H6    H     H_    0.142583 0.317145 0.307353 0.135220
H7    H     H_    0.703516 0.287168 0.299453 0.127644
C21   C     C_2   0.013996 0.220322 0.217638 -0.123973
C22   C     C_2   0.858827 0.183423 0.180330 -0.298260
H8    H     H_    0.156881 0.200677 0.197882 0.134071
H9    H     H_    0.714680 0.202327 0.198488 0.128151
C23   C     C_2   0.204561 0.791924 0.781855 -0.140425
C24   C     C_2   0.363282 0.815527 0.819973 -0.306655
H10   H     H_    0.067227 0.823248 0.800769 0.130334
H11   H     H_    0.501377 0.784496 0.802371 0.127375
C25   C     C_2   0.202938 0.723285 0.714371 -0.134296
C26   C     C_2   0.361193 0.684871 0.680062 -0.312954
H12   H     H_    0.061723 0.704576 0.691984 0.135033
H13   H     H_    0.504315 0.703467 0.700283 0.125192
C27   C     C_R   0.364853 0.889379 0.387611 -0.144456
H14   H     H_    0.358383 0.839312 0.480589 0.105013
H15   H     H_    0.374158 0.014558 0.304217 0.126777
H16   H     H_    0.368902 0.967889 0.412680 0.125789
C28   C     C_R   0.355357 0.715089 0.395292 -0.029177
C29   C     C_R   0.348096 0.684023 0.070914 -0.272469
C30   C     C_R   0.340661 0.606873 0.106686 0.400022
C31   C     C_R   0.343709 0.630744 0.176710 -0.157101
C32   C     C_R   0.353685 0.731686 0.212873 0.000762
C33   C     C_R   0.359398 0.809375 0.175745 0.063032
C34   C     C_R   0.357392 0.758119 0.284592 0.091764
C35   C     C_R   0.363905 0.861293 0.317256 0.145100
C36   C     C_R   0.368897 0.935830 0.279642 -0.194436
C37   C     C_R   0.367269 0.910501 0.210088 -0.176637
C38   C     C_R   0.354583 0.685899 0.325330 -0.211798
C39   C     C_R   0.359497 0.816596 0.426380 -0.184650
C40   C     C_R   0.357182 0.784382 0.104752 -0.108977
H17   H     H_    0.350963 0.606331 0.304635 0.093998
H18   H     H_    0.346685 0.665953 0.016523 0.103395
H19   H     H_    0.337241 0.567954 0.201093 0.131031
H20   H     H_    0.371586 0.971343 0.183416 0.113816
O11   O     O_R   0.203230 0.917310 0.915020 -0.540355
O12   O     O_R   0.535500 0.888690 0.048040 -0.541903
O13   O     O_R   0.711080 0.082610 0.085000 -0.543448
C41   C     C_R   0.366531 0.861898 0.064719 0.708745
O14   O     O_R   0.532630 0.905370 0.913230 -0.548800
O15   O     O_R   0.708190 0.099410 0.949230 -0.537115
C42   C     C_R   0.364263 0.884211 0.886514 0.741640
O16   O     O_R   0.206120 0.900510 0.050790 -0.539964
O17   O     O_3   0.375360 0.063570 0.011990 -0.369675
V3    V     V_3+5 0.648170 0.988200 0.997780 1.419029
O18   O     O_R   0.038240 0.111390 0.951940 -0.538928
C43   C     C_R   0.869715 0.137563 0.934742 0.702788
O19   O     O_R   0.041120 0.094710 0.086750 -0.541609
C44   C     C_R   0.872617 0.115730 0.113524 0.747528
V4    V     V_3+5 0.148810 0.011930 0.002180 1.430704
O20   O     O_3   0.871750 0.936430 0.988010 -0.374816
O21   O     O_3   0.875605 0.149214 0.500768 -0.654973
H21   H     H_    0.857254 0.207017 0.479171 0.273373
O22   O     O_3   0.330423 0.507043 0.074719 -0.655326
H22   H     H_    0.328979 0.502440 0.025514 0.281610
C45   C     C_3   0.915586 0.996730 0.572555 -0.312209
C46   C     C_3   0.723815 0.939687 0.563113 -0.747343
H23   H     H_    0.655368 0.939249 0.612176 0.216383
H24   H     H_    0.624340 0.975255 0.532426 0.241923
H25   H     H_    0.748085 0.860801 0.536677 0.216292
H26   H     H_    0.980705 0.992241 0.522324 0.222964
H27   H     H_    0.020924 0.958056 0.599133 0.148747
C47   C     C_3   0.827016 0.502108 0.924095 -0.379094
C48   C     C_3   0.823705 0.526156 0.000815 -0.743665
H28   H     H_    0.697248 0.489970 0.019423 0.244298
H29   H     H_    0.958184 0.500537 0.021199 0.244435
H30   H     H_    0.812820 0.608644 0.019333 0.225220
H31   H     H_    0.951832 0.542535 0.907742 0.179172
H32   H     H_    0.693878 0.532808 0.905964 0.177670

loop_
_geom_bond_atom_site_label_1
_geom_bond_atom_site_label_2
_ccdc_geom_bond_type
O18   V4    S    
V4    O20   S    
C45   C46   S    
C1    O6    A    
O17   V3    S    
C28   C39   A    
O19   C44   A    
C22   C44   S    
C13   C14   A    
C48   H28   S    
O12   C41   A    
C5    C13   A    
C19   C20   D    
C16   H2    S    
O5    C3    A    
V3    O20   S    
C38   H17   S    
V2    O10   S    
C32   C34   A    
C24   H11   S    
C3    C20   S    
O11   V4    S    
O8    V2    S    
C15   H5    S    
C26   H13   S    
C10   C11   A    
O1    V2    S    
C29   H18   S    
C30   O22   S    
C45   H27   S    
C27   H16   S    
C21   H8    S    
C31   C32   A    
C48   H29   S    
O9    C4    A    
C5    C17   A    
C22   H9    S    
C2    C28   S    
O12   V3    S    
C17   O21   S    
C23   H10   S    
O14   C42   A    
C12   C16   A    
C9    H4    S    
C34   C38   A    
O19   V4    S    
C41   O16   A    
C19   C21   S    
O22   H22   S    
O4    C2    A    
C8    C47   S    
C46   H25   S    
C30   C31   A    
C18   C43   S    
C32   C33   A    
O2    C1    A    
C34   C35   A    
O15   C43   A    
O15   V3    S    
O13   C44   A    
O18   C43   A    
C47   H31   S    
C24   C42   S    
C46   H24   S    
C27   C39   A    
O17   V4    S    
O3    C4    A    
O16   V4    S    
C7    H3    S    
C25   C26   D    
O6    V2    S    
O9    V2    S    
C5    C45   S    
C29   C40   A    
O2    V1    S    
C23   C24   D    
O7    V1    S    
C21   C22   D    
O1    C2    A    
C4    C6    S    
H1    C14   S    
C11   C15   A    
O11   C42   A    
C27   C35   A    
O5    V1    S    
O8    C3    A    
O13   V3    S    
C40   C41   S    
C37   H20   S    
C47   H32   S    
C1    C26   S    
C36   C37   A    
C19   H6    S    
C12   C13   A    
C11   C18   A    
O4    V1    S    
C20   H7    S    
O3    V1    S    
V1    O10   S    
C33   C40   A    
C29   C30   A    
H15   C36   S    
O14   V3    S    
C28   C38   A    
C25   H12   S    
C47   C48   S    
C10   C12   A    
O7    V2    S    
C46   H23   S    
H14   C39   S    
C35   C36   A    
C33   C37   A    
C7    C8    A    
C14   C15   A    
C9    C10   A    
C48   H30   S    
O21   H21   S    
C8    C9    A    
C6    C17   A    
C45   H26   S    
C23   C25   S    
C31   H19   S    
C7    C18   A    
C6    C16   A    
