data_str_m2_o5_o27_f0_pcu.sym.54
_audit_creation_date              2012-10-26T18:44:11-0400
_audit_creation_method            fapswitch 2.2
_symmetry_space_group_name_H-M    P1
_symmetry_Int_Tables_number       1
_space_group_crystal_system       triclinic
_cell_length_a                    19.334665
_cell_length_b                    9.102103
_cell_length_c                    7.776283
_cell_angle_alpha                 90.070181
_cell_angle_beta                  89.566326
_cell_angle_gamma                 89.594359
_cell_volume                      1368.4431975

loop_
_atom_site_label
_atom_site_type_symbol
_atom_type_description
_atom_site_fract_x
_atom_site_fract_y
_atom_site_fract_z
_atom_type_partial_charge
C1    C     C_R   0.500023 0.219960 0.499933 0.560662
C2    C     C_R   0.256670 0.600836 0.380601 0.100365
C3    C     C_R   0.179023 0.418484 0.604833 0.004315
C4    C     C_R   0.818866 0.377507 0.456203 0.013795
C5    C     C_R   0.815214 0.642222 0.523235 0.025846
C6    C     C_R   0.183711 0.600090 0.370188 0.004792
C7    C     C_R   0.145439 0.507383 0.480963 -0.063074
C8    C     C_R   0.853345 0.511750 0.487947 -0.082222
C9    C     C_R   0.290504 0.511122 0.502583 0.019095
C10   C     C_R   0.708284 0.503649 0.496451 0.009776
C11   C     C_R   0.929553 0.515046 0.483673 0.281163
C12   C     C_R   0.500224 0.780025 0.500066 0.531782
C13   C     C_R   0.069342 0.513266 0.479385 0.291943
C14   C     C_3   0.295646 0.413738 0.911960 -0.217895
C15   C     C_3   0.685191 0.218759 0.254003 -0.246777
C16   C     C_3   0.684705 0.845851 0.401730 -0.277197
C17   C     C_3   0.321728 0.825500 0.341419 -0.235588
C18   C     C_2   0.136672 0.314064 0.709753 0.266697
C19   C     C_2   0.859874 0.239999 0.428200 0.296741
C20   C     C_2   0.851842 0.784337 0.549190 0.306980
C21   C     C_2   0.146627 0.698154 0.247247 0.246963
C22   C     C_R   0.366944 0.502077 0.500921 0.579551
C23   C     C_R   0.632615 0.499304 0.499223 0.570120
C24   C     C_1   0.500059 0.065333 0.499892 -0.059907
C25   C     C_1   0.500116 0.934648 0.500088 -0.071156
C26   C     C_R   0.251879 0.426102 0.620693 0.098200
C27   C     C_R   0.745838 0.375081 0.457228 0.116379
C28   C     C_R   0.742287 0.637147 0.528139 0.107980
Cu1   Cu    Cu3+1 0.500000 0.500000 0.669080 1.016553
Cu2   Cu    Cu3+1 0.500000 0.500000 0.330920 1.001678
H1    H     H_    0.273504 0.233017 0.755134 0.286585
H2    H     H_    0.653738 0.944789 0.435633 0.138160
H3    H     H_    0.653079 0.775454 0.316637 0.150160
H4    H     H_    0.732091 0.880501 0.331560 0.192685
H5    H     H_    0.278484 0.700902 0.144110 0.273968
H6    H     H_    0.357410 0.879880 0.249267 0.147538
H7    H     H_    0.350277 0.803901 0.462147 0.136315
H8    H     H_    0.277845 0.901090 0.370158 0.192873
H9    H     H_    0.087564 0.275467 0.661171 0.142350
H10   H     H_    0.908832 0.224555 0.493291 0.139679
H11   H     H_    0.903054 0.800678 0.494966 0.136632
H12   H     H_    0.244940 0.428822 0.977479 0.186460
H13   H     H_    0.099620 0.662161 0.185794 0.159803
H14   H     H_    0.319564 0.523436 0.896116 0.162160
H15   H     H_    0.329627 0.345995 0.995213 0.155269
H16   H     H_    0.728031 0.150038 0.488960 0.297820
H17   H     H_    0.717722 0.134294 0.188748 0.179377
H18   H     H_    0.686767 0.321274 0.176397 0.174524
H19   H     H_    0.631079 0.179274 0.258271 0.148971
H20   H     H_    0.661642 0.756128 0.640267 0.263608
N1    N     N_1   0.500000 0.500000 0.076820 -0.087490
N2    N     N_2   0.297045 0.689728 0.267313 -0.489449
N3    N     N_1   0.500000 0.500000 0.923180 -0.086633
N4    N     N_R   0.033706 0.463827 0.341706 -0.218729
N5    N     N_R   0.965270 0.563356 0.621857 -0.210309
N6    N     N_R   0.964908 0.465395 0.343518 -0.199804
N7    N     N_R   0.034051 0.562676 0.619613 -0.196184
N8    N     N_2   0.287677 0.341715 0.746816 -0.489978
N9    N     N_2   0.709118 0.242262 0.428118 -0.509618
N10   N     N_2   0.702989 0.768131 0.557123 -0.462058
O1    O     O_R   0.500000 0.288390 0.642760 -0.484261
O2    O     O_2   0.840854 0.144843 0.328895 -0.492113
O3    O     O_2   0.825892 0.884184 0.633130 -0.454990
O4    O     O_2   0.166803 0.822249 0.216998 -0.494073
O5    O     O_R   0.500000 0.711610 0.357240 -0.499735
O6    O     O_R   0.500000 0.711610 0.642760 -0.501529
O7    O     O_R   0.500000 0.288390 0.357240 -0.506378
O8    O     O_R   0.400140 0.500000 0.642830 -0.492388
O9    O     O_R   0.599860 0.500000 0.357170 -0.507557
O10   O     O_R   0.599860 0.500000 0.642830 -0.501073
O11   O     O_R   0.400140 0.500000 0.357170 -0.482289
O12   O     O_2   0.154531 0.271764 0.851464 -0.495857

loop_
_geom_bond_atom_site_label_1
_geom_bond_atom_site_label_2
_ccdc_geom_bond_type
C10   C27   A    
C5    C8    A    
N1    N3    T    
Cu2   N1    S    
Cu1   O1    S    
N5    N7    A    
C6    C7    A    
C17   H6    S    
H16   N9    S    
C16   H2    S    
C5    C28   A    
C26   N8    S    
C12   O5    A    
C23   O9    A    
Cu2   O7    S    
C15   N9    S    
C15   H17   S    
C12   C25   S    
C4    C8    A    
H20   N10   S    
C4    C27   A    
C20   O3    D    
C15   H19   S    
C20   H11   S    
C5    C20   S    
C27   N9    S    
C14   H12   S    
C6    C21   S    
C4    C19   S    
C23   O10   A    
C22   O8    A    
C2    C6    A    
C2    N2    S    
C15   H18   S    
C1    C24   S    
C8    C11   S    
H1    N8    S    
C1    O7    A    
C9    C26   A    
Cu2   O11   S    
C14   H15   S    
C3    C7    A    
C17   H8    S    
C28   N10   S    
C18   O12   D    
C14   N8    S    
N4    N6    A    
C9    C22   S    
Cu2   O5    S    
C13   N7    A    
C19   H10   S    
C19   O2    D    
Cu1   Cu2   S    
Cu1   O6    S    
Cu1   O8    S    
C22   O11   A    
C7    C13   S    
Cu2   O9    S    
C11   N5    A    
C24   C25   T    
C17   N2    S    
C3    C18   S    
C14   H14   S    
C13   N4    A    
C16   N10   S    
C10   C28   A    
H5    N2    S    
C18   H9    S    
C10   C23   S    
C17   H7    S    
C16   H3    S    
C16   H4    S    
Cu1   O10   S    
C2    C9    A    
C12   O6    A    
C3    C26   A    
C21   H13   S    
C11   N6    A    
Cu1   N3    S    
C21   O4    D    
C1    O1    A    
