data_str_m4_o1_o11_f0_acs.sym.9
_audit_creation_date              2013-03-05T15:44:24-0500
_audit_creation_method            fapswitch 2.2
_symmetry_space_group_name_H-M    P1
_symmetry_Int_Tables_number       1
_space_group_crystal_system       triclinic
_cell_length_a                    19.627317
_cell_length_b                    11.323273
_cell_length_c                    19.36366
_cell_angle_alpha                 89.97236
_cell_angle_beta                  90.371568
_cell_angle_gamma                 89.887186
_cell_volume                      4303.38632791

loop_
_atom_site_label
_atom_site_type_symbol
_atom_site_description
_atom_site_fract_x
_atom_site_fract_y
_atom_site_fract_z
_atom_type_partial_charge
O1    O     O_R   0.784320 0.290430 0.830510 -0.466396
O2    O     O_R   0.215680 0.290430 0.169490 -0.467709
O3    O     O_R   0.284320 0.790430 0.830510 -0.464021
O4    O     O_R   0.715680 0.790430 0.169490 -0.464815
O5    O     O_R   0.762640 0.040960 0.825200 -0.440705
O6    O     O_R   0.237360 0.040960 0.174800 -0.440631
O7    O     O_R   0.262640 0.540960 0.825200 -0.439802
O8    O     O_R   0.737360 0.540960 0.174800 -0.439553
C1    C     C_R   0.726169 0.963450 0.855728 0.531344
C2    C     C_R   0.273579 0.962727 0.144481 0.531916
C3    C     C_R   0.226277 0.462180 0.855283 0.532668
C4    C     C_R   0.774098 0.462770 0.144558 0.533457
O9    O     O_R   0.667400 0.923970 0.829950 -0.551307
O10   O     O_R   0.332600 0.923970 0.170050 -0.551809
O11   O     O_R   0.167400 0.423970 0.829950 -0.556530
O12   O     O_R   0.832600 0.423970 0.170050 -0.558206
O13   O     O_R   0.553960 0.081340 0.821780 -0.452819
O14   O     O_R   0.446040 0.081340 0.178220 -0.453199
O15   O     O_R   0.053960 0.581340 0.821780 -0.456958
O16   O     O_R   0.946040 0.581340 0.178220 -0.455681
C5    C     C_R   0.532122 0.177144 0.851010 0.582425
C6    C     C_R   0.467949 0.177083 0.149034 0.581320
C7    C     C_R   0.033550 0.677449 0.851437 0.590669
C8    C     C_R   0.967176 0.677289 0.148961 0.592211
O17   O     O_R   0.543180 0.283240 0.826740 -0.489270
O18   O     O_R   0.456820 0.283240 0.173260 -0.489398
O19   O     O_R   0.043180 0.783240 0.826740 -0.493896
O20   O     O_R   0.956820 0.783240 0.173260 -0.491942
O21   O     O_R   0.678360 0.375140 0.822710 -0.534787
O22   O     O_R   0.321640 0.375140 0.177290 -0.535436
O23   O     O_R   0.178360 0.875140 0.822710 -0.541778
O24   O     O_R   0.821640 0.875140 0.177290 -0.540238
C9    C     C_R   0.735958 0.359472 0.853906 0.525933
C10   C     C_R   0.263844 0.360411 0.146321 0.525928
C11   C     C_R   0.236073 0.861856 0.853359 0.526070
C12   C     C_R   0.763712 0.862358 0.146809 0.526389
O25   O     O_R   0.785050 0.289380 0.670560 -0.487870
O26   O     O_R   0.214950 0.289380 0.329440 -0.485469
O27   O     O_R   0.285050 0.789380 0.670560 -0.495498
O28   O     O_R   0.714950 0.789380 0.329440 -0.495030
O29   O     O_R   0.763320 0.039990 0.676930 -0.476174
O30   O     O_R   0.236680 0.039990 0.323070 -0.477032
O31   O     O_R   0.263320 0.539990 0.676930 -0.477877
O32   O     O_R   0.736680 0.539990 0.323070 -0.477265
C13   C     C_R   0.726286 0.956785 0.647998 0.565811
C14   C     C_R   0.274224 0.957415 0.352183 0.565159
C15   C     C_R   0.225960 0.456687 0.648242 0.566674
C16   C     C_R   0.774618 0.457165 0.352005 0.565244
O33   O     O_R   0.668130 0.922920 0.670000 -0.479534
O34   O     O_R   0.331870 0.922920 0.330000 -0.473680
O35   O     O_R   0.168130 0.422920 0.670000 -0.472774
O36   O     O_R   0.831870 0.422920 0.330000 -0.468219
O37   O     O_R   0.554640 0.080370 0.673500 -0.452522
O38   O     O_R   0.445360 0.080370 0.326500 -0.442190
O39   O     O_R   0.054640 0.580370 0.673500 -0.445615
O40   O     O_R   0.945360 0.580370 0.326500 -0.444476
C17   C     C_R   0.535534 0.180913 0.642729 0.589598
C18   C     C_R   0.463882 0.180629 0.357467 0.587274
C19   C     C_R   0.034642 0.678864 0.643145 0.594436
C20   C     C_R   0.966167 0.678602 0.356456 0.592018
O41   O     O_R   0.543920 0.282180 0.666790 -0.486555
O42   O     O_R   0.456080 0.282180 0.333210 -0.485403
O43   O     O_R   0.043920 0.782180 0.666790 -0.489594
O44   O     O_R   0.956080 0.782180 0.333210 -0.490957
O45   O     O_R   0.679040 0.374160 0.674430 -0.448551
O46   O     O_R   0.320960 0.374160 0.325570 -0.449965
O47   O     O_R   0.179040 0.874160 0.674430 -0.449943
O48   O     O_R   0.820960 0.874160 0.325570 -0.453926
C21   C     C_R   0.739136 0.356419 0.644417 0.552624
C22   C     C_R   0.261157 0.355863 0.355723 0.549590
C23   C     C_R   0.239596 0.860019 0.645211 0.559804
C24   C     C_R   0.760515 0.859788 0.354818 0.556333
Cr1   Cr    Cr6+3 0.769270 0.163730 0.750710 1.138427
Cr2   Cr    Cr6+3 0.230730 0.163730 0.249290 1.138174
Cr3   Cr    Cr6+3 0.269270 0.663730 0.750710 1.136796
Cr4   Cr    Cr6+3 0.730730 0.663730 0.249290 1.137406
Cr5   Cr    Cr6+3 0.612620 0.009790 0.748780 1.124087
Cr6   Cr    Cr6+3 0.387380 0.009790 0.251220 1.132716
Cr7   Cr    Cr6+3 0.112620 0.509790 0.748780 1.128028
Cr8   Cr    Cr6+3 0.887380 0.509790 0.251220 1.132655
Cr9   Cr    Cr6+3 0.614160 0.322500 0.747710 1.103425
Cr10  Cr    Cr6+3 0.385840 0.322500 0.252290 1.103862
Cr11  Cr    Cr6+3 0.114160 0.822500 0.747710 1.090527
Cr12  Cr    Cr6+3 0.885840 0.822500 0.252290 1.088594
O49   O     O_3   0.665350 0.165340 0.749070 -0.337597
O50   O     O_3   0.334650 0.165340 0.250930 -0.339036
O51   O     O_3   0.165350 0.665340 0.749070 -0.334742
O52   O     O_3   0.834650 0.665340 0.250930 -0.334528
C25   C     C_2   0.505166 0.166826 0.922704 -0.080685
C26   C     C_2   0.495034 0.166752 0.077392 -0.080625
C27   C     C_2   0.014905 0.668569 0.925380 -0.079483
C28   C     C_2   0.987098 0.668304 0.075403 -0.076296
C29   C     C_2   0.500106 0.063804 0.039814 -0.062970
C30   C     C_2   0.500396 0.063844 0.960335 -0.062962
C31   C     C_2   0.003210 0.566168 0.040128 -0.059083
C32   C     C_2   0.001316 0.565961 0.961158 -0.062287
H1    H     H_    0.498817 0.251771 0.052760 0.126741
H2    H     H_    0.501231 0.251840 0.947300 0.126810
H3    H     H_    0.972523 0.749573 0.047606 0.130521
H4    H     H_    0.028384 0.750581 0.952752 0.127593
C33   C     C_R   0.686372 0.466445 0.961834 -0.026611
C34   C     C_R   0.314048 0.467144 0.038362 -0.027222
C35   C     C_R   0.184180 0.970513 0.961225 -0.031036
C36   C     C_R   0.814926 0.972154 0.039179 -0.034992
C37   C     C_R   0.689881 0.480940 0.037029 0.010694
C38   C     C_R   0.310651 0.481336 0.962969 0.011177
C39   C     C_R   0.188433 0.986165 0.036724 0.010300
C40   C     C_R   0.810235 0.989602 0.963944 0.006475
C41   C     C_R   0.753672 0.434571 0.071927 -0.050162
C42   C     C_R   0.247476 0.433616 0.927960 -0.048679
C43   C     C_R   0.251741 0.937307 0.071321 -0.048251
C44   C     C_R   0.747567 0.939640 0.929243 -0.046612
C45   C     C_R   0.805029 0.374010 0.032385 -0.020624
C46   C     C_R   0.196859 0.372489 0.967619 -0.020926
C47   C     C_R   0.301952 0.878408 0.030649 -0.020640
C48   C     C_R   0.697500 0.881019 0.969990 -0.019747
C49   C     C_R   0.795933 0.361702 0.962726 -0.099720
C50   C     C_R   0.203368 0.367528 0.037842 -0.101648
C51   C     C_R   0.297398 0.879966 0.960325 -0.096843
C52   C     C_R   0.701278 0.884781 0.040393 -0.096686
H5    H     H_    0.834965 0.316259 0.933645 0.226019
H6    H     H_    0.162731 0.327426 0.067328 0.219832
H7    H     H_    0.339235 0.843901 0.930640 0.225596
H8    H     H_    0.659071 0.850161 0.070154 0.224247
C53   C     C_R   0.739753 0.404176 0.926907 -0.069620
C54   C     C_R   0.259970 0.407228 0.073569 -0.069227
C55   C     C_R   0.239460 0.913598 0.925214 -0.069233
C56   C     C_R   0.759676 0.916036 0.075376 -0.066001
C57   C     C_R   0.508584 0.303206 0.534835 -0.018691
C58   C     C_R   0.487997 0.303284 0.465518 -0.022626
C59   C     C_R   0.009990 0.790040 0.533661 -0.013122
C60   C     C_R   0.992101 0.789913 0.465301 -0.010199
C61   C     C_R   0.487036 0.189833 0.429295 -0.012184
C62   C     C_R   0.509826 0.190696 0.571628 -0.009658
C63   C     C_R   0.991112 0.680378 0.427805 -0.009996
C64   C     C_R   0.010945 0.680795 0.571197 -0.010128
C65   C     C_R   0.499911 0.084779 0.465316 -0.091777
C66   C     C_R   0.495294 0.086065 0.536802 -0.094687
C67   C     C_R   0.003099 0.573808 0.463269 -0.092954
C68   C     C_R   0.999416 0.574250 0.536027 -0.091603
C69   C     C_R   0.811911 0.352271 0.533704 -0.033587
C70   C     C_R   0.190604 0.349225 0.467370 -0.034154
C71   C     C_R   0.311961 0.860921 0.534821 -0.034484
C72   C     C_R   0.689748 0.857596 0.466375 -0.046342
C73   C     C_R   0.817410 0.356219 0.460884 -0.026596
C74   C     C_R   0.186315 0.352869 0.540023 -0.022632
C75   C     C_R   0.316358 0.862727 0.462226 -0.029695
C76   C     C_R   0.686573 0.857718 0.538719 -0.029718
C77   C     C_R   0.762169 0.413925 0.423118 -0.038322
C78   C     C_R   0.240126 0.412662 0.577444 -0.034738
C79   C     C_R   0.261210 0.918653 0.424395 -0.043037
C80   C     C_R   0.740486 0.916875 0.576299 -0.038866
C81   C     C_R   0.704509 0.451155 0.460874 -0.032748
C82   C     C_R   0.297040 0.451554 0.539279 -0.032834
C83   C     C_R   0.204721 0.961404 0.462526 -0.035578
C84   C     C_R   0.795574 0.962588 0.537390 -0.029426
C85   C     C_R   0.707109 0.449424 0.533405 -0.138072
C86   C     C_R   0.294419 0.448779 0.466660 -0.145197
C87   C     C_R   0.210654 0.971206 0.535452 -0.121946
C88   C     C_R   0.788949 0.972726 0.464426 -0.119938
H9    H     H_    0.676488 0.502927 0.562355 0.247776
H10   H     H_    0.325006 0.501896 0.437676 0.244392
H11   H     H_    0.177872 0.025210 0.564001 0.231466
H12   H     H_    0.821323 0.027055 0.435552 0.224350
C89   C     C_R   0.755370 0.394075 0.570565 -0.057189
C90   C     C_R   0.246026 0.392650 0.429874 -0.057630
C91   C     C_R   0.256408 0.905313 0.572338 -0.037089
C92   C     C_R   0.744056 0.904457 0.427902 -0.036505
C93   C     C_2   0.507994 0.946925 0.076385 0.233279
H13   H     H_    0.491804 0.865114 0.053100 0.131950
O53   O     O_2   0.536304 0.938922 0.132385 -0.460004
C94   C     C_2   0.492823 0.946989 0.923800 0.236404
H14   H     H_    0.509681 0.865272 0.946900 0.130654
O54   O     O_2   0.464032 0.938906 0.868067 -0.457800
C95   C     C_2   0.022517 0.453609 0.077704 0.232020
H15   H     H_    0.018937 0.367201 0.053551 0.159793
O55   O     O_2   0.045543 0.455324 0.136436 -0.457658
C96   C     C_2   0.984579 0.452415 0.923817 0.246243
H16   H     H_    0.995072 0.366213 0.946013 0.160601
O56   O     O_2   0.956252 0.452995 0.867493 -0.454488
C97   C     C_2   0.878129 0.288356 0.429068 0.592569
O57   O     O_2   0.876593 0.249695 0.370497 -0.472869
O58   O     O_R   0.933310 0.256608 0.469003 -0.684199
H17   H     H_    0.974460 0.225658 0.442750 0.389359
C98   C     C_2   0.128594 0.282793 0.573156 0.599089
O59   O     O_2   0.135193 0.236778 0.629495 -0.480841
O60   O     O_R   0.070068 0.259592 0.536333 -0.688824
H18   H     H_    0.030115 0.230227 0.564703 0.380392
C99   C     C_2   0.375223 0.792560 0.430032 0.621416
O61   O     O_2   0.369273 0.742742 0.374856 -0.460119
O62   O     O_R   0.433999 0.772390 0.467393 -0.674739
H19   H     H_    0.475105 0.746760 0.439441 0.382012
C100  C     C_2   0.631301 0.783941 0.572388 0.613010
O63   O     O_2   0.640569 0.732186 0.626274 -0.467954
O64   O     O_R   0.570847 0.764870 0.538176 -0.680394
H20   H     H_    0.531017 0.740492 0.567709 0.374222
C101  C     C_2   0.643277 0.508849 0.433013 0.570242
O65   O     O_2   0.610896 0.567534 0.474405 -0.444839
O66   O     O_R   0.623449 0.512514 0.363126 -0.637714
H21   H     H_    0.601558 0.590409 0.348714 0.365968
C102  C     C_2   0.357394 0.510673 0.567036 0.573585
O67   O     O_2   0.389688 0.569555 0.525605 -0.445145
O68   O     O_R   0.376749 0.514180 0.637081 -0.635147
H22   H     H_    0.398230 0.591939 0.651859 0.366934
C103  C     C_2   0.139965 0.006001 0.432966 0.587593
O69   O     O_2   0.102733 0.059209 0.472648 -0.429581
O70   O     O_R   0.122904 0.008305 0.362236 -0.630231
H23   H     H_    0.096337 0.081854 0.347944 0.373540
C104  C     C_2   0.860037 0.007309 0.566644 0.586202
O71   O     O_2   0.896716 0.060456 0.526672 -0.432479
O72   O     O_R   0.877444 0.009738 0.637340 -0.634118
H24   H     H_    0.904189 0.082951 0.651317 0.370310
C105  C     C_2   0.631804 0.519944 0.915470 0.344369
H25   H     H_    0.645024 0.546859 0.863541 0.128902
O73   O     O_2   0.571904 0.526891 0.928472 -0.400656
C106  C     C_2   0.369115 0.519179 0.084590 0.343061
H26   H     H_    0.356581 0.544920 0.136904 0.130601
O74   O     O_2   0.428750 0.526981 0.070909 -0.399155
C107  C     C_2   0.126194 0.016646 0.916234 0.330742
H27   H     H_    0.135610 0.040095 0.862881 0.131340
O75   O     O_2   0.066940 0.021041 0.932639 -0.391874
C108  C     C_2   0.874473 0.014066 0.083000 0.322195
H28   H     H_    0.866497 0.039216 0.136400 0.131146
O76   O     O_2   0.933504 0.008736 0.065951 -0.395775
C109  C     C_2   0.629930 0.542122 0.076040 0.642144
O77   O     O_2   0.630462 0.566710 0.136892 -0.460524
O78   O     O_R   0.567240 0.571197 0.045364 -0.516702
H29   H     H_    0.543694 0.641969 0.068838 0.385826
C110  C     C_2   0.370256 0.543090 0.923957 0.639312
O79   O     O_2   0.368921 0.569533 0.863333 -0.461345
O80   O     O_R   0.433176 0.570886 0.954220 -0.517019
H30   H     H_    0.456668 0.641626 0.930731 0.385659
C111  C     C_2   0.129624 0.049476 0.076697 0.630582
O81   O     O_2   0.131040 0.072867 0.137667 -0.465276
O82   O     O_R   0.066911 0.081343 0.047315 -0.506711
H31   H     H_    0.043249 0.149941 0.072856 0.381277
C112  C     C_2   0.868274 0.056363 0.925029 0.617554
O83   O     O_2   0.866898 0.081531 0.864242 -0.463497
O84   O     O_R   0.930031 0.089856 0.955434 -0.514312
H32   H     H_    0.955115 0.154976 0.928314 0.386045
C113  C     C_2   0.872416 0.322302 0.058499 0.196899
H33   H     H_    0.896332 0.326132 0.108150 0.200457
O85   O     O_2   0.909893 0.267866 0.020431 -0.559661
C114  C     C_2   0.133202 0.311470 0.940780 0.181317
H34   H     H_    0.108573 0.315701 0.891413 0.196247
O86   O     O_2   0.100304 0.247898 0.978107 -0.548597
C115  C     C_2   0.362053 0.809322 0.056643 0.185107
H35   H     H_    0.388529 0.815040 0.104927 0.192105
O87   O     O_2   0.388885 0.738190 0.019283 -0.538879
C116  C     C_2   0.639001 0.808944 0.943868 0.184394
H36   H     H_    0.613060 0.812390 0.895140 0.190752
O88   O     O_2   0.613123 0.737438 0.981581 -0.538868
C117  C     C_2   0.531513 0.419248 0.567328 0.687570
O89   O     O_2   0.585478 0.425035 0.596247 -0.495999
O90   O     O_R   0.494805 0.521510 0.568027 -0.557328
H37   H     H_    0.507517 0.577394 0.606653 0.348087
C118  C     C_2   0.467744 0.421320 0.432331 0.675717
O91   O     O_2   0.416226 0.430396 0.399132 -0.490420
O92   O     O_R   0.503700 0.523701 0.437375 -0.554829
H38   H     H_    0.494196 0.581375 0.398565 0.353597
C119  C     C_2   0.038411 0.902017 0.561537 0.682480
O93   O     O_2   0.096158 0.899123 0.581404 -0.516708
O94   O     O_R   0.003338 0.006070 0.568905 -0.571097
H39   H     H_    0.022141 0.060220 0.605746 0.346585
C120  C     C_2   0.962048 0.901254 0.438025 0.690374
O95   O     O_2   0.903456 0.897459 0.420840 -0.517833
O96   O     O_R   0.996851 0.004546 0.427157 -0.577116
H40   H     H_    0.975440 0.059693 0.392173 0.349179
C121  C     C_2   0.524430 0.975397 0.431205 0.253293
H41   H     H_    0.538730 0.905181 0.463114 0.185116
O97   O     O_2   0.536551 0.964218 0.369798 -0.403161
C122  C     C_2   0.474831 0.977833 0.574171 0.262052
H42   H     H_    0.473806 0.898335 0.547087 0.191234
O98   O     O_2   0.453089 0.976967 0.633104 -0.408986
C123  C     C_2   0.022152 0.462926 0.427076 0.263484
H43   H     H_    0.031469 0.388177 0.457044 0.190793
O99   O     O_2   0.034968 0.454091 0.365615 -0.399203
C124  C     C_2   0.979462 0.464740 0.572596 0.262887
H44   H     H_    0.971427 0.389269 0.543423 0.191534
O100  O     O_2   0.964305 0.458208 0.633502 -0.401718
C125  C     C_2   0.846627 0.260427 0.566647 0.385118
H45   H     H_    0.812234 0.188842 0.572398 0.101818
O101  O     O_2   0.896875 0.273780 0.602947 -0.448679
C126  C     C_2   0.156138 0.256810 0.434987 0.380623
H46   H     H_    0.190849 0.185492 0.428519 0.098308
O102  O     O_2   0.105028 0.269732 0.399858 -0.449299
C127  C     C_2   0.346769 0.768284 0.566681 0.391257
H47   H     H_    0.312189 0.696265 0.571302 0.109449
O103  O     O_2   0.397601 0.779852 0.602298 -0.457281
C128  C     C_2   0.654416 0.766065 0.434022 0.384311
H48   H     H_    0.688854 0.693902 0.428409 0.113576
O104  O     O_2   0.603322 0.779064 0.398977 -0.458056

loop_
_geom_bond_atom_site_label_1
_geom_bond_atom_site_label_2
_geom_bond_distance
_ccdc_geom_bond_type
C18   O42   1.250668 A    
Cr11  O51   2.041956 S    
O68   H22   1.017356 S    
O4    C12   1.324016 A    
C71   C127  1.392381 S    
C29   C30   1.539050 S    
C124  O100  1.220430 D    
O39   C19   1.318353 A    
O20   Cr12  2.122782 S    
C93   O53   1.218475 D    
C93   H13   1.078023 S    
C70   C74   1.410497 A    
C74   C98   1.528792 S    
C75   C79   1.447695 A    
C31   C32   1.529374 S    
C42   C46   1.438031 A    
C44   C48   1.428591 A    
C60   C120  1.486192 S    
C64   C68   1.403691 A    
C51   H7    1.084667 S    
C82   C102  1.461315 S    
O26   C22   1.282697 A    
C96   H16   1.085153 S    
C24   C92   1.539121 S    
O1    C9    1.311660 A    
O94   H39   1.009433 S    
C95   O55   1.221240 D    
C5    C25   1.493473 S    
C103  O69   1.222060 D    
C88   C92   1.367212 A    
C61   C65   1.400402 A    
C100  O63   1.209056 D    
C21   C89   1.527813 S    
C29   C93   1.507932 S    
C40   C44   1.508930 A    
Cr7   O51   2.044643 S    
C72   C92   1.408848 A    
C16   C77   1.483170 S    
O24   C12   1.286100 A    
C126  H46   1.063484 S    
C123  O99   1.222107 D    
O84   H32   1.032614 S    
C106  O74   1.205168 D    
C128  H48   1.065482 S    
C109  O78   1.401408 S    
O25   C21   1.278905 A    
C22   C90   1.526093 S    
O26   Cr2   2.129678 S    
C117  O89   1.196815 D    
C1    O9    1.332028 A    
O45   C21   1.333216 A    
C98   O60   1.373929 S    
O47   C23   1.329084 A    
C81   C101  1.466401 S    
C116  O88   1.205276 D    
C38   C42   1.510336 A    
O21   C9    1.290202 A    
C19   C64   1.466031 S    
O8    Cr4   2.008395 S    
O23   Cr11  2.008041 S    
C114  H34   1.069400 S    
C99   O62   1.376350 S    
C113  H33   1.068104 S    
O30   C14   1.313940 A    
C85   H9    1.022618 S    
C25   C30   1.378398 D    
C101  O66   1.406265 S    
C77   C81   1.414967 A    
O44   Cr12  2.129097 S    
C73   C77   1.457304 A    
C31   C95   1.513621 S    
C30   C94   1.507874 S    
C27   C32   1.379814 D    
C74   C78   1.446489 A    
C3    O11   1.325912 A    
C65   C121  1.484750 S    
C124  H44   1.036400 S    
O11   Cr7   2.131486 S    
C4    O12   1.321203 A    
C45   C113  1.528345 S    
C33   C105  1.518067 S    
C122  H42   1.042186 S    
C100  O64   1.372712 S    
C33   C53   1.434929 A    
O82   H31   1.032257 S    
C127  O103  1.216500 D    
C32   C96   1.511039 S    
C73   C97   1.548137 S    
C37   C109  1.563320 S    
C27   H4    1.101326 S    
C15   O35   1.272710 A    
O3    Cr3   2.128637 S    
C120  O95   1.195979 D    
Cr4   O52   2.039830 S    
C26   H1    1.077072 S    
C128  O104  1.215861 D    
O2    Cr2   2.126849 S    
C72   C76   1.402638 A    
C70   C126  1.394196 S    
C10   C54   1.506340 S    
O2    C10   1.315664 A    
C1    C44   1.505642 S    
C103  O70   1.408047 S    
C14   C79   1.489165 S    
C39   C111  1.566588 S    
Cr5   O49   2.044643 S    
O66   H21   1.018427 S    
O18   Cr10  2.122782 S    
C78   C82   1.414283 A    
C23   C91   1.539191 S    
C121  H41   1.043602 S    
Cr8   O52   2.041124 S    
C3    C42   1.499878 S    
C81   C85   1.405201 A    
C102  O68   1.406767 S    
C67   C123  1.486547 S    
C12   C56   1.512131 S    
C40   C112  1.565556 S    
C87   C91   1.364492 A    
O34   Cr6   2.122732 S    
C36   C108  1.516887 S    
C4    C41   1.494732 S    
C94   O54   1.218506 D    
C14   O34   1.273552 A    
O6    Cr2   2.008395 S    
C47   C115  1.498371 S    
C115  O87   1.205521 D    
C18   C61   1.464238 S    
C33   C37   1.466545 A    
O24   Cr12  2.006152 S    
O9    Cr5   2.131486 S    
C76   C80   1.446119 A    
O30   Cr2   2.003282 S    
O22   C10   1.290833 A    
C83   C87   1.420571 A    
O70   H23   1.018948 S    
O48   Cr12  1.999638 S    
C80   C84   1.420222 A    
C84   C88   1.422554 A    
O32   C16   1.318810 A    
C106  H26   1.083915 S    
C104  O71   1.219829 D    
C59   C64   1.434470 A    
C2    O10   1.330412 A    
C97   O58   1.373872 S    
C85   C89   1.340218 A    
C107  H27   1.083688 S    
C117  O90   1.362707 S    
C121  O97   1.220720 D    
O16   Cr8   2.000942 S    
O7    Cr3   2.007785 S    
O64   H20   1.010376 S    
C72   C128  1.394769 S    
C116  H36   1.069909 S    
C105  H25   1.083839 S    
C19   O43   1.269515 A    
C28   C31   1.380651 D    
O13   C5    1.297225 A    
C48   C52   1.365488 A    
O33   Cr5   2.121425 S    
O48   C24   1.328185 A    
C113  O85   1.212452 D    
Cr12  O52   2.045424 S    
O41   Cr9   2.130586 S    
C97   O57   1.216105 D    
O15   C7    1.294784 A    
O58   H17   1.018789 S    
O72   H24   1.017918 S    
O5    C1    1.280463 A    
C110  O79   1.211444 D    
C68   C124  1.482250 S    
O90   H37   1.010317 S    
C70   C90   1.401517 A    
O39   Cr7   2.008081 S    
O13   Cr5   1.999657 S    
O7    C3    1.285248 A    
O78   H29   1.031509 S    
C36   C56   1.443308 A    
C15   C78   1.486695 S    
O3    C11   1.322629 A    
O8    C4    1.284606 A    
Cr1   O49   2.039757 S    
C118  O91   1.198902 D    
C9    C53   1.503144 S    
C109  O77   1.210866 D    
C6    C26   1.493395 S    
C66   C122  1.480434 S    
O36   Cr8   2.122732 S    
O47   Cr11  2.000703 S    
Cr2   O50   2.039830 S    
O15   Cr7   1.999657 S    
O32   Cr4   2.003282 S    
C111  O82   1.399269 S    
C20   C63   1.462945 S    
C69   C125  1.394154 S    
C46   C50   1.366060 A    
C45   C49   1.366696 A    
C99   O61   1.213480 D    
C34   C106  1.518905 S    
O14   Cr6   2.000942 S    
C83   C103  1.478444 S    
C123  H43   1.041212 S    
C57   C117  1.524587 S    
O21   Cr9   2.008041 S    
C71   C75   1.409061 A    
C7    O19   1.304191 A    
C112  O84   1.397298 S    
C127  H47   1.066099 S    
C6    O18   1.309022 A    
O37   Cr5   2.008081 S    
C8    C28   1.482982 S    
C7    C27   1.483528 S    
C17   C62   1.467295 S    
O38   Cr6   2.010423 S    
C58   C61   1.464028 A    
C49   H5    1.083098 S    
O92   H38   1.011576 S    
C88   H12   1.049091 S    
C120  O96   1.372452 S    
C36   C40   1.472315 A    
C58   C118  1.533334 S    
C35   C55   1.444387 A    
C94   H14   1.078061 S    
C86   C90   1.344439 A    
C26   C29   1.378244 D    
C119  O94   1.371379 S    
C57   C58   1.399222 A    
O38   C18   1.334169 A    
O25   Cr1   2.129494 S    
Cr3   O51   2.039757 S    
O62   H19   1.016369 S    
C5    O17   1.308825 A    
C108  O76   1.208194 D    
O37   C17   1.336622 A    
O22   Cr10  2.006152 S    
O28   C24   1.293985 A    
O29   C13   1.314453 A    
C84   C104  1.473644 S    
O14   C6    1.297702 A    
C39   C43   1.511619 A    
O12   Cr8   2.134107 S    
C8    O20   1.304929 A    
C34   C54   1.436451 A    
O17   Cr9   2.123624 S    
O6    C2    1.279921 A    
C96   O56   1.220972 D    
C67   C68   1.411201 A    
C52   C56   1.374655 A    
C28   H3    1.102208 S    
C17   O41   1.248718 A    
C41   C45   1.442348 A    
C62   C66   1.392620 A    
C125  O101  1.217077 D    
O5    Cr1   2.007785 S    
C65   C66   1.387870 A    
C63   C67   1.406795 A    
C47   C51   1.364183 A    
C79   C83   1.420425 A    
O40   Cr8   2.010423 S    
C38   C110  1.562832 S    
C25   H2    1.077085 S    
C20   O44   1.270739 A    
O96   H40   1.010102 S    
O1    Cr1   2.128637 S    
C69   C89   1.404853 A    
C13   C80   1.488128 S    
C11   C55   1.511078 S    
O19   Cr11  2.123624 S    
C125  H45   1.062143 S    
C105  O73   1.206346 D    
O60   H18   1.016731 S    
C110  O80   1.399960 S    
C95   H15   1.086866 S    
Cr10  O50   2.045424 S    
C59   C60   1.367271 A    
O46   Cr10  1.999638 S    
C43   C47   1.429770 A    
Cr6   O50   2.041124 S    
C98   O59   1.214800 D    
O46   C22   1.330897 A    
C48   C116  1.495592 S    
C71   C91   1.406330 A    
C75   C99   1.536535 S    
C60   C63   1.437579 A    
C50   H6    1.084182 S    
O23   C11   1.283946 A    
C126  O102  1.216936 D    
C69   C73   1.415578 A    
C104  O72   1.409066 S    
C114  O86   1.210335 D    
C13   O33   1.280367 A    
C34   C38   1.469693 A    
C37   C41   1.511977 A    
C87   H11   1.047346 S    
C107  O75   1.208526 D    
O10   Cr6   2.134107 S    
O42   Cr10  2.129097 S    
C101  O65   1.222028 D    
O35   Cr7   2.121425 S    
O4    Cr4   2.126849 S    
C86   H10   1.021096 S    
O29   Cr1   2.004568 S    
C57   C62   1.459461 A    
O28   Cr4   2.129678 S    
C76   C100  1.520536 S    
C16   O36   1.264629 A    
O40   C20   1.319018 A    
C102  O67   1.223782 D    
C111  O81   1.210226 D    
C2    C43   1.505486 S    
C122  O98   1.220978 D    
O27   Cr3   2.129494 S    
C46   C114  1.517848 S    
O43   Cr11  2.130586 S    
O80   H30   1.031937 S    
C119  O93   1.194946 D    
C82   C86   1.407151 A    
O31   Cr3   2.004568 S    
O45   Cr9   2.000703 S    
C35   C39   1.474574 A    
C50   C54   1.381004 A    
C118  O92   1.361596 S    
C112  O83   1.211041 D    
C49   C53   1.384158 A    
O31   C15   1.316805 A    
C108  H28   1.084907 S    
O16   C8    1.295257 A    
Cr9   O49   2.041956 S    
C52   H8    1.085949 S    
C115  H35   1.068759 S    
C35   C107  1.520349 S    
C59   C119  1.486530 S    
O27   C23   1.291415 A    
C51   C55   1.374199 A    
