data_str_m3_o41_o41_f0_fof.sym.63
_audit_creation_date              2012-12-10T16:39:37-0500
_audit_creation_method            fapswitch 2.2
_symmetry_space_group_name_H-M    P1
_symmetry_Int_Tables_number       1
_space_group_crystal_system       triclinic
_cell_length_a                    16.77766
_cell_length_b                    16.848682
_cell_length_c                    16.823758
_cell_angle_alpha                 65.763624
_cell_angle_beta                  65.549968
_cell_angle_gamma                 65.783835
_cell_volume                      3778.69964526

loop_
_atom_site_label
_atom_site_type_symbol
_atom_type_description
_atom_site_fract_x
_atom_site_fract_y
_atom_site_fract_z
_atom_type_partial_charge
C1    C     C_R   0.325616 0.948204 0.459564 -0.009387
C2    C     C_R   0.326594 0.458605 0.949447 -0.012562
C3    C     C_R   0.525533 0.401423 0.031591 0.000973
C4    C     C_R   0.009447 0.455898 0.588898 0.000639
C5    C     C_R   0.032828 0.524901 0.401195 0.001012
C6    C     C_R   0.063101 0.669958 0.538041 -0.007114
C7    C     C_R   0.952376 0.324940 0.458855 -0.007067
C8    C     C_R   0.459241 0.972683 0.459815 0.026738
C9    C     C_R   0.542004 0.021941 0.542088 0.026540
C10   C     C_R   0.001028 0.447152 0.452398 0.027273
C11   C     C_R   0.034887 0.537310 0.539115 0.027263
C12   C     C_R   0.448551 0.452380 0.998546 0.027214
C13   C     C_R   0.538017 0.539360 0.033125 0.027495
C14   C     C_R   0.961106 0.179604 0.438700 0.922481
C15   C     C_R   0.675127 0.048338 0.541292 -0.005925
C16   C     C_R   0.039433 0.820059 0.561526 0.922177
C17   C     C_R   0.179781 0.438845 0.960487 0.903034
C18   C     C_R   0.819962 0.561302 0.040040 0.940415
C19   C     C_R   0.438531 0.960357 0.180028 0.909877
C20   C     C_R   0.561600 0.039306 0.819965 0.946479
C21   C     C_R   0.562482 0.820532 0.037067 0.933966
C22   C     C_R   0.431826 0.177461 0.975758 0.945163
C23   C     C_R   0.037511 0.562388 0.820496 0.931236
C24   C     C_R   0.975756 0.431889 0.177484 0.940720
C25   C     C_R   0.820404 0.037697 0.562151 0.932269
C26   C     C_R   0.001937 0.432545 0.313691 -0.015265
C27   C     C_R   0.179613 0.961786 0.438002 0.928173
C28   C     C_R   0.415856 0.952884 0.416302 0.063579
C29   C     C_R   0.585116 0.043021 0.584888 0.064246
C30   C     C_R   0.983510 0.402591 0.408694 0.071339
C31   C     C_R   0.049683 0.583061 0.583928 0.065970
C32   C     C_R   0.403824 0.408585 0.981319 0.070530
C33   C     C_R   0.583170 0.584262 0.048666 0.066023
C34   C     C_R   0.279538 0.937121 0.410993 -0.198665
C35   C     C_R   0.720645 0.061314 0.589214 -0.197679
C36   C     C_R   0.970615 0.395490 0.272813 -0.202921
C37   C     C_R   0.051264 0.541253 0.674766 -0.009075
C38   C     C_R   0.061574 0.590028 0.720939 -0.196700
C39   C     C_R   0.395648 0.272656 0.970054 -0.206039
C40   C     C_R   0.589948 0.721302 0.060557 -0.198793
C41   C     C_R   0.588610 0.064529 0.719308 -0.200424
C42   C     C_R   0.411696 0.934135 0.280776 -0.193561
C43   C     C_R   0.718946 0.588792 0.066562 -0.202145
C44   C     C_R   0.279657 0.410589 0.939346 -0.186326
C45   C     C_R   0.065691 0.719442 0.588812 -0.201044
C46   C     C_R   0.941082 0.278869 0.410725 -0.190695
C47   C     C_R   0.443761 0.067489 0.705662 -0.128878
C48   C     C_R   0.433006 0.313773 0.000814 -0.015706
C49   C     C_R   0.557377 0.928051 0.295592 -0.132444
C50   C     C_R   0.079289 0.701378 0.442396 -0.131852
C51   C     C_R   0.933671 0.296068 0.554515 -0.130112
C52   C     C_R   0.700608 0.442790 0.080704 -0.128828
C53   C     C_R   0.299030 0.554061 0.928610 -0.130653
C54   C     C_R   0.285070 0.954390 0.550263 -0.127609
C55   C     C_R   0.715993 0.040637 0.451058 -0.130150
C56   C     C_R   0.500135 0.264248 0.047609 -0.152831
C57   C     C_R   0.452011 0.716248 0.039561 -0.131963
C58   C     C_R   0.048473 0.499972 0.263740 -0.153010
C59   C     C_R   0.541510 0.675339 0.049120 -0.007930
C60   C     C_R   0.043977 0.451205 0.715394 -0.130834
C61   C     C_R   0.327558 0.917591 0.328218 0.306526
C62   C     C_R   0.672400 0.081680 0.671557 0.301884
C63   C     C_R   0.931293 0.324806 0.325113 0.309123
C64   C     C_R   0.080846 0.672879 0.673283 0.307977
C65   C     C_R   0.325119 0.324631 0.930533 0.311032
C66   C     C_R   0.672358 0.673488 0.081028 0.305569
C67   C     C_R   0.681665 0.003357 0.416059 -0.019542
C68   C     C_R   0.319801 0.990281 0.586286 -0.017938
C69   C     C_R   0.008969 0.415261 0.680005 -0.018719
C70   C     C_R   0.538813 0.057274 0.671629 -0.007878
C71   C     C_R   0.054472 0.553063 0.305885 0.006365
C72   C     C_R   0.417394 0.680379 0.003710 -0.020419
C73   C     C_R   0.553323 0.306394 0.053743 0.007202
C74   C     C_R   0.602415 0.944871 0.339217 -0.010684
C75   C     C_R   0.399159 0.048355 0.663490 -0.010493
C76   C     C_R   0.341160 0.598797 0.947504 -0.006929
C77   C     C_R   0.652592 0.395418 0.072987 -0.007376
C78   C     C_R   0.954090 0.337183 0.599000 -0.010625
C79   C     C_R   0.072481 0.652886 0.394961 -0.007461
C80   C     C_R   0.736130 0.968732 0.340418 0.119154
C81   C     C_R   0.462015 0.939557 0.329109 -0.010264
C82   C     C_R   0.265761 0.023190 0.663046 0.121594
C83   C     C_R   0.973740 0.340109 0.733805 0.116993
C84   C     C_R   0.081657 0.633273 0.254611 0.105983
C85   C     C_R   0.343985 0.733899 0.965974 0.122349
C86   C     C_R   0.633396 0.255428 0.081358 0.106351
C87   C     C_R   0.697548 0.934757 0.305119 0.139960
C88   C     C_R   0.304519 0.056008 0.699286 0.132895
C89   C     C_R   0.309941 0.694092 0.932182 0.141672
C90   C     C_R   0.682485 0.299550 0.092172 0.138136
C91   C     C_R   0.941930 0.303841 0.694203 0.132383
C92   C     C_R   0.669458 0.538230 0.063751 -0.009142
C93   C     C_R   0.091679 0.682724 0.298785 0.138614
C94   C     C_R   0.550991 0.972759 0.419011 -0.003166
C95   C     C_R   0.450428 0.021121 0.583318 -0.002436
C96   C     C_R   0.987855 0.413482 0.546874 -0.003535
C97   C     C_R   0.045291 0.572658 0.445184 -0.005018
C98   C     C_R   0.415887 0.546826 0.983597 -0.005175
C99   C     C_R   0.573014 0.445457 0.044521 -0.005053
C100  C     C_R   0.591790 0.998435 0.459516 -0.000524
C101  C     C_R   0.409615 0.995495 0.542772 -0.001151
C102  C     C_R   0.457766 0.589081 0.005598 -0.000146
Cl1   Cl    Cl    0.285161 0.866675 0.286246 -0.562521
Cl2   Cl    Cl    0.714448 0.133575 0.712971 -0.540242
Cl3   Cl    Cl    0.865503 0.294408 0.288083 -0.559765
Cl4   Cl    Cl    0.131120 0.715451 0.715881 -0.557137
Cl5   Cl    Cl    0.294094 0.286594 0.866088 -0.556635
Cl6   Cl    Cl    0.714540 0.716366 0.131396 -0.538676
H1    H     H_    0.403705 0.093201 0.763564 0.214823
H2    H     H_    0.405101 0.772892 0.064881 0.218637
H3    H     H_    0.083579 0.509695 0.192188 0.187331
H4    H     H_    0.070343 0.405183 0.771589 0.215622
H5    H     H_    0.597226 0.903791 0.236678 0.215266
H6    H     H_    0.102934 0.760654 0.404242 0.212778
H7    H     H_    0.901580 0.242444 0.594262 0.210070
H8    H     H_    0.759335 0.404970 0.105380 0.213135
H9    H     H_    0.245174 0.593216 0.896784 0.212981
H10   H     H_    0.228750 0.927412 0.596041 0.217443
H11   H     H_    0.772030 0.067726 0.404515 0.215217
H12   H     H_    0.509477 0.193070 0.082896 0.186902
I1    I     I_    0.217973 0.124779 0.801787 -0.181485
I2    I     I_    0.291947 0.876891 0.950650 -0.197386
I3    I     I_    0.093331 0.687511 0.112073 -0.222858
I4    I     I_    0.957164 0.289799 0.877709 -0.186785
I5    I     I_    0.784913 0.860218 0.207380 -0.145634
I6    I     I_    0.139397 0.800335 0.218263 -0.170109
I7    I     I_    0.872649 0.201527 0.779704 -0.147234
I8    I     I_    0.799940 0.219725 0.140412 -0.176091
I9    I     I_    0.215123 0.778856 0.854582 -0.181894
I10   I     I_    0.122248 0.035603 0.715543 -0.188425
I11   I     I_    0.879626 0.956483 0.287678 -0.184327
I12   I     I_    0.688555 0.113679 0.091557 -0.231062
O1    O     O_R   0.982940 0.138950 0.510160 -0.638944
O2    O     O_R   0.982940 0.510160 0.138950 -0.629272
O3    O     O_R   0.861050 0.017060 0.489840 -0.646125
O4    O     O_R   0.138950 0.982940 0.510160 -0.645637
O5    O     O_R   0.867700 0.025880 0.612340 -0.561512
O6    O     O_R   0.132300 0.974120 0.387660 -0.561742
O7    O     O_R   0.025880 0.612340 0.867700 -0.559776
O8    O     O_R   0.974120 0.387660 0.132300 -0.567895
O9    O     O_R   0.612340 0.867700 0.025880 -0.563318
O10   O     O_R   0.387660 0.132300 0.974120 -0.568209
O11   O     O_R   0.387660 0.974120 0.132300 -0.563018
O12   O     O_R   0.017060 0.861050 0.489840 -0.637071
O13   O     O_R   0.612340 0.025880 0.867700 -0.551228
O14   O     O_R   0.132300 0.387660 0.974120 -0.568237
O15   O     O_R   0.867700 0.612340 0.025880 -0.550149
O16   O     O_R   0.974120 0.132300 0.387660 -0.563293
O17   O     O_R   0.025880 0.867700 0.612340 -0.557601
O18   O     O_R   0.138950 0.510160 0.982940 -0.650137
O19   O     O_R   0.861050 0.489840 0.017060 -0.635703
O20   O     O_R   0.510160 0.982940 0.138950 -0.654834
O21   O     O_R   0.489840 0.017060 0.861050 -0.640174
O22   O     O_R   0.489840 0.861050 0.017060 -0.646390
O23   O     O_R   0.510160 0.138950 0.982940 -0.629267
O24   O     O_R   0.017060 0.489840 0.861050 -0.646201
Zn1   Zn    Zn3+2 0.004880 0.004880 0.583590 1.099757
Zn2   Zn    Zn3+2 0.995120 0.995120 0.416410 1.097070
Zn3   Zn    Zn3+2 0.004880 0.583590 0.004880 1.112462
Zn4   Zn    Zn3+2 0.995120 0.416410 0.995120 1.093728
Zn5   Zn    Zn3+2 0.583590 0.004880 0.004880 1.108070
Zn6   Zn    Zn3+2 0.416410 0.995120 0.995120 1.095984

loop_
_geom_bond_atom_site_label_1
_geom_bond_atom_site_label_2
_ccdc_geom_bond_type
C49   H5    S    
O9    Zn5   S    
C6    C45   A    
C32   C48   A    
C74   C94   A    
C17   O18   A    
O15   Zn3   S    
C50   C79   A    
C72   C85   A    
C75   C95   A    
C14   C46   S    
C55   H11   S    
O23   Zn5   S    
C84   I3    S    
C21   C40   S    
C24   C36   S    
C91   I7    S    
C69   C83   A    
C27   O4    A    
C23   O7    A    
C61   Cl1   S    
C35   C62   A    
C79   C93   A    
C80   C87   A    
C53   H9    S    
C58   C71   A    
C57   C59   A    
O14   Zn4   S    
C76   C98   A    
C20   O21   A    
C14   O16   A    
C89   I9    S    
C2    C32   A    
C49   C81   A    
O6    Zn2   S    
C93   I6    S    
C3    C12   A    
C4    C96   A    
C78   C96   A    
C1    C28   A    
C21   O22   A    
C15   C29   A    
C16   O17   A    
C10   C96   A    
C83   I4    S    
C63   Cl3   S    
C36   C63   A    
C8    C101  A    
C9    C95   A    
O11   Zn6   S    
C12   C98   A    
O20   Zn5   S    
C82   C88   A    
C19   C42   S    
C9    C29   A    
C76   C89   A    
O2    Zn3   S    
C11   C31   A    
C33   C59   A    
C80   I11   S    
C40   C66   A    
C23   O24   A    
C12   C32   A    
C56   H12   S    
O3    Zn2   S    
C44   C65   A    
C42   C81   A    
C41   C62   A    
C3    C73   A    
C15   C35   A    
C4    C69   A    
C79   C97   A    
C1    C34   A    
C20   C41   S    
C38   C64   A    
C22   O23   A    
C52   H8    S    
C27   C34   S    
C77   C90   A    
C27   O6    A    
O18   Zn3   S    
C58   H3    S    
C7    C46   A    
O24   Zn4   S    
C8    C94   A    
C68   C101  A    
C72   C102  A    
C18   O15   A    
C86   C90   A    
C33   C92   A    
C2    C44   A    
C85   C89   A    
C18   O19   A    
C47   H1    S    
C62   Cl2   S    
C51   H7    S    
C31   C37   A    
C50   H6    S    
C15   C55   A    
C13   C99   A    
C77   C99   A    
C25   O5    A    
C1    C54   A    
C47   C70   A    
C13   C33   A    
C37   C38   A    
C60   H4    S    
C7    C51   A    
C10   C30   A    
C57   H2    S    
C94   C100  A    
C22   O10   A    
C19   O20   A    
C85   I2    S    
O16   Zn2   S    
C6    C50   A    
C4    C11   A    
C26   C58   A    
C42   C61   A    
C67   C100  A    
C25   C35   S    
O4    Zn1   S    
C26   C36   A    
C5    C97   A    
C26   C30   A    
C9    C100  A    
C54   H10   S    
C74   C87   A    
C52   C92   A    
C53   C76   A    
C82   I10   S    
O12   Zn2   S    
C52   C77   A    
C24   O8    A    
C87   I5    S    
C71   C84   A    
C24   O2    A    
C48   C56   A    
C19   O11   A    
C56   C73   A    
C16   O12   A    
C28   C81   A    
C49   C74   A    
O22   Zn6   S    
C67   C80   A    
C66   Cl6   S    
C88   I1    S    
C47   C75   A    
C2    C53   A    
C16   C45   S    
O10   Zn6   S    
C55   C67   A    
C64   Cl4   S    
C14   O1    A    
C78   C91   A    
C23   C38   S    
C83   C91   A    
C39   C65   A    
C45   C64   A    
C43   C92   A    
O5    Zn1   S    
O21   Zn6   S    
C11   C97   A    
C68   C82   A    
O19   Zn4   S    
C17   O14   A    
C17   C44   S    
C21   O9    A    
C5    C10   A    
C5    C71   A    
C98   C102  A    
C18   C43   S    
O8    Zn4   S    
C86   I12   S    
C46   C63   A    
O13   Zn5   S    
C60   C69   A    
C43   C66   A    
C8    C28   A    
C22   C39   S    
C6    C31   A    
C29   C70   A    
O1    Zn1   S    
C84   C93   A    
C34   C61   A    
C57   C72   A    
C25   O3    A    
C73   C86   A    
C51   C78   A    
C37   C60   A    
O7    Zn3   S    
C3    C99   A    
C75   C88   A    
C54   C68   A    
C7    C30   A    
C40   C59   A    
C90   I8    S    
C20   O13   A    
C41   C70   A    
C13   C102  A    
O17   Zn1   S    
C65   Cl5   S    
C95   C101  A    
C39   C48   A    
