data_str_m3_o4_o14_f0_pcu.sym.24
_audit_creation_date              2012-12-10T20:28:44-0500
_audit_creation_method            fapswitch 2.2
_symmetry_space_group_name_H-M    P1
_symmetry_Int_Tables_number       1
_space_group_crystal_system       triclinic
_cell_length_a                    10.624213
_cell_length_b                    10.639948
_cell_length_c                    9.870182
_cell_angle_alpha                 89.977567
_cell_angle_beta                  89.88923
_cell_angle_gamma                 90.084844
_cell_volume                      1115.73257731

loop_
_atom_site_label
_atom_site_type_symbol
_atom_type_description
_atom_site_fract_x
_atom_site_fract_y
_atom_site_fract_z
_atom_type_partial_charge
C1    C     C_R   0.494701 0.259877 0.500074 0.846226
C2    C     C_R   0.446806 0.935009 0.378444 -0.251181
C3    C     C_R   0.468969 0.871087 0.500407 -0.106609
C4    C     C_R   0.260504 0.496784 0.500052 0.861079
C5    C     C_R   0.462540 0.935819 0.622774 0.148478
C6    C     C_3   0.543622 0.928326 0.746043 -0.502401
C7    C     C_3   0.543757 0.070847 0.746352 -0.493462
C8    C     C_R   0.426866 0.416807 0.071297 0.116499
C9    C     C_R   0.581397 0.574563 0.072539 0.516986
C10   C     C_R   0.581762 0.572999 0.927419 -0.252095
C11   C     C_R   0.427036 0.416626 0.929049 0.192180
C12   C     C_R   0.065754 0.386431 0.561716 0.098316
C13   C     C_3   0.287272 0.405129 0.923624 -0.482221
C14   C     C_3   0.287121 0.405947 0.077477 -0.480150
C15   C     C_R   0.494287 0.740076 0.499974 0.873851
C16   C     C_R   0.739497 0.496688 0.499851 0.871543
C17   C     C_R   0.130792 0.283671 0.619581 -0.199349
C18   C     C_R   0.064946 0.184294 0.678793 -0.139633
C19   C     C_R   0.933958 0.184645 0.679692 -0.136103
C20   C     C_R   0.868438 0.284279 0.621067 -0.180667
C21   C     C_R   0.933865 0.386549 0.562010 0.096589
C22   C     C_3   0.667572 0.772192 0.111124 0.067472
C23   C     C_R   0.128299 0.488257 0.499541 -0.095400
C24   C     C_3   0.794642 0.811090 0.050852 -0.352340
C25   C     C_3   0.801853 0.952952 0.028890 -0.968706
C26   C     C_R   0.064539 0.584285 0.433321 -0.227595
C27   C     C_R   0.935962 0.584117 0.432994 -0.193773
C28   C     C_R   0.871722 0.488090 0.499225 -0.102742
C29   C     C_R   0.462662 0.063978 0.622906 0.124858
C30   C     C_R   0.469689 0.128787 0.500516 -0.101583
C31   C     C_R   0.447661 0.065011 0.378393 -0.220456
H1    H     H_    0.114671 0.660731 0.384272 0.148317
H2    H     H_    0.232359 0.278273 0.618282 0.144398
H3    H     H_    0.115744 0.106310 0.723005 0.133547
H4    H     H_    0.883008 0.106852 0.724599 0.132591
H5    H     H_    0.766863 0.279373 0.620656 0.141150
H6    H     H_    0.886210 0.660426 0.383684 0.162773
H7    H     H_    0.441224 0.114144 0.282490 0.170714
H8    H     H_    0.439115 0.885935 0.282697 0.160156
H9    H     H_    0.492482 0.886999 0.833722 0.199604
H10   H     H_    0.653404 0.825420 0.206658 0.176896
H11   H     H_    0.589475 0.800234 0.042029 0.098345
H12   H     H_    0.637775 0.886935 0.725146 0.206120
H13   H     H_    0.871348 0.782410 0.120775 0.232067
H14   H     H_    0.809516 0.762828 0.952419 0.211999
H15   H     H_    0.726104 0.984325 0.959514 0.274108
H16   H     H_    0.894181 0.977773 0.983159 0.263216
H17   H     H_    0.792287 0.003119 0.127051 0.270463
H18   H     H_    0.493004 0.111831 0.834456 0.204067
H19   H     H_    0.637993 0.112048 0.725750 0.200343
H20   H     H_    0.646948 0.631271 0.871351 0.161128
H21   H     H_    0.241226 0.489063 0.878597 0.222971
H22   H     H_    0.257113 0.313527 0.880467 0.200262
H23   H     H_    0.241603 0.490793 0.121283 0.219969
H24   H     H_    0.256327 0.315185 0.122551 0.203083
N1    N     N_R   0.499160 0.499140 0.142800 -0.144072
N2    N     N_R   0.499160 0.499180 0.857150 -0.121591
O1    O     O_R   0.500020 0.316790 0.614690 -0.624735
O2    O     O_R   0.500000 0.316760 0.385350 -0.619481
O3    O     O_R   0.316770 0.500020 0.614690 -0.623276
O4    O     O_R   0.316760 0.499980 0.385350 -0.623376
O5    O     O_R   0.500000 0.683240 0.614650 -0.614940
O6    O     O_R   0.499980 0.683210 0.385310 -0.608430
O7    O     O_R   0.683240 0.500020 0.614650 -0.624567
O8    O     O_R   0.683230 0.499980 0.385310 -0.559235
O9    O     O_3   0.669826 0.642810 0.144855 -0.612636
Zn1   Zn    Zn3+2 0.500010 0.500020 0.653130 0.934974
Zn2   Zn    Zn3+2 0.499990 0.499980 0.346870 0.975466

loop_
_geom_bond_atom_site_label_1
_geom_bond_atom_site_label_2
_ccdc_geom_bond_type
C12   C17   A    
C16   C28   S    
N1    Zn2   S    
C26   H1    S    
C29   C30   A    
C7    C29   S    
C12   C21   A    
C2    C3    A    
O2    Zn2   S    
C13   H21   S    
C11   C13   S    
C9    C10   A    
C25   H16   S    
C13   H22   S    
C19   C20   A    
O4    Zn2   S    
C31   H7    S    
C30   C31   A    
O8    Zn2   S    
C10   H20   S    
C8    N1    A    
C14   H24   S    
C7    H18   S    
O3    Zn1   S    
C9    N1    A    
C19   H4    S    
C13   C14   S    
C20   C21   A    
C18   H3    S    
C12   C23   A    
C4    O3    A    
C26   C27   A    
C22   H11   S    
C17   H2    S    
O5    Zn1   S    
N2    Zn1   S    
C8    C11   A    
C24   H14   S    
C25   H15   S    
C1    C30   S    
C14   H23   S    
C21   C28   A    
C27   H6    S    
C17   C18   A    
C6    C7    S    
C5    C29   A    
C6    H12   S    
C1    O2    A    
C5    C6    S    
C24   H13   S    
C22   C24   S    
C22   H10   S    
C2    H8    S    
C20   H5    S    
O7    Zn1   S    
O1    Zn1   S    
C6    H9    S    
C3    C15   S    
C24   C25   S    
C10   N2    A    
C18   C19   A    
C23   C26   A    
C27   C28   A    
C4    C23   S    
C15   O6    A    
C9    O9    S    
C22   O9    S    
C8    C14   S    
C16   O8    A    
C16   O7    A    
O6    Zn2   S    
C1    O1    A    
C25   H17   S    
C4    O4    A    
C15   O5    A    
C11   N2    A    
C7    H19   S    
C2    C31   A    
C3    C5    A    
