data_str_m12_o24_o24_f0_bcu.sym.34
_audit_creation_date              2012-12-11T16:07:17-0500
_audit_creation_method            fapswitch 2.2
_symmetry_space_group_name_H-M    P1
_symmetry_Int_Tables_number       1
_space_group_crystal_system       triclinic
_cell_length_a                    16.922483
_cell_length_b                    17.267792
_cell_length_c                    17.243609
_cell_angle_alpha                 89.999988
_cell_angle_beta                  90.000522
_cell_angle_gamma                 90.002293
_cell_volume                      5038.8225174

loop_
_atom_site_label
_atom_site_type_symbol
_atom_type_description
_atom_site_fract_x
_atom_site_fract_y
_atom_site_fract_z
_atom_type_partial_charge
C1    C     C_R   0.391514 0.698080 0.603218 -0.074076
C2    C     C_R   0.576845 0.668000 0.647007 -0.121486
C3    C     C_3   0.763581 0.181317 0.635067 -0.596265
C4    C     C_3   0.772094 0.811377 0.367878 -0.568846
C5    C     C_3   0.289384 0.246478 0.724473 -0.567345
C6    C     C_3   0.701981 0.241039 0.269219 -0.616926
C7    C     C_3   0.236420 0.818685 0.635068 -0.596270
C8    C     C_3   0.727936 0.688606 0.867870 -0.568883
C9    C     C_3   0.210657 0.253473 0.224444 -0.567208
C10   C     C_3   0.798019 0.258967 0.769214 -0.616944
C11   C     C_3   0.263647 0.681360 0.135032 -0.596071
C12   C     C_3   0.272050 0.311404 0.867861 -0.568910
C13   C     C_R   0.670892 0.423210 0.354413 -0.137598
C14   C     C_3   0.789344 0.746517 0.224451 -0.567254
C15   C     C_3   0.201981 0.741032 0.769212 -0.616949
C16   C     C_3   0.736406 0.318675 0.135062 -0.596272
C17   C     C_3   0.862923 0.579504 0.829561 -0.304110
C18   C     C_3   0.077246 0.365037 0.263464 -0.200545
C19   C     C_3   0.641205 0.239231 0.851053 -0.218650
C20   C     C_3   0.423388 0.693690 0.056642 -0.197441
C21   C     C_3   0.137042 0.420464 0.829511 -0.304043
C22   C     C_3   0.922748 0.634961 0.263488 -0.200716
C23   C     C_3   0.358793 0.760774 0.851056 -0.218711
C24   C     C_R   0.299837 0.605619 0.603763 -0.154944
C25   C     C_3   0.576673 0.306441 0.056621 -0.197331
C26   C     C_3   0.874202 0.413899 0.192071 -0.227193
C27   C     C_3   0.122274 0.599152 0.720987 -0.243235
C28   C     C_3   0.628802 0.788169 0.157793 -0.143233
C29   C     C_3   0.439771 0.377452 0.880867 -0.218295
C30   C     C_3   0.125791 0.586135 0.192021 -0.227385
C31   C     C_3   0.877713 0.400855 0.720995 -0.243202
C32   C     C_3   0.371195 0.211822 0.157796 -0.143498
C33   C     C_3   0.560203 0.622585 0.880872 -0.218284
C34   C     C_3   0.362929 0.079527 0.329587 -0.304119
C35   C     C_R   0.608140 0.697497 0.394913 -0.071562
C36   C     C_3   0.577219 0.865023 0.763547 -0.200590
C37   C     C_3   0.141164 0.739032 0.351020 -0.218977
C38   C     C_3   0.923313 0.193525 0.556622 -0.197437
C39   C     C_3   0.637119 0.920522 0.329615 -0.304058
C40   C     C_3   0.422788 0.134970 0.763584 -0.200664
C41   C     C_3   0.858786 0.260800 0.351058 -0.218630
C42   C     C_3   0.076689 0.806474 0.556616 -0.197346
C43   C     C_3   0.374219 0.913898 0.692102 -0.227326
C44   C     C_3   0.622362 0.099106 0.221005 -0.243239
C45   C     C_3   0.128844 0.288026 0.657741 -0.143246
C46   C     C_R   0.423150 0.331993 0.647003 -0.121467
C47   C     C_3   0.939847 0.877357 0.380846 -0.218246
C48   C     C_3   0.625777 0.086109 0.692094 -0.227284
C49   C     C_3   0.377498 0.900957 0.221118 -0.243013
C50   C     C_3   0.871172 0.711900 0.657763 -0.143303
C51   C     C_3   0.060145 0.122661 0.380848 -0.218248
C52   C     C_R   0.329113 0.576785 0.354407 -0.137641
C53   C     C_R   0.700164 0.394381 0.603762 -0.154939
C54   C     C_R   0.891513 0.198079 0.103221 -0.074062
C55   C     C_R   0.077573 0.831173 0.853405 -0.120394
C56   C     C_R   0.170609 0.076392 0.145839 -0.134933
C57   C     C_R   0.577569 0.331176 0.353403 -0.120389
C58   C     C_R   0.800374 0.895326 0.894092 -0.121078
C59   C     C_R   0.108488 0.801925 0.103235 -0.074075
C60   C     C_R   0.922427 0.168826 0.853404 -0.120384
C61   C     C_R   0.829390 0.923606 0.145837 -0.134932
C62   C     C_R   0.199627 0.104674 0.894098 -0.121082
C63   C     C_R   0.891860 0.802503 0.894913 -0.071536
C64   C     C_R   0.076841 0.167996 0.147010 -0.121492
C65   C     C_R   0.170895 0.923209 0.854415 -0.137582
C66   C     C_R   0.799837 0.105617 0.103764 -0.154993
C67   C     C_R   0.108143 0.197498 0.894919 -0.071519
C68   C     C_R   0.670610 0.576393 0.645838 -0.134936
C69   C     C_R   0.923155 0.831999 0.147007 -0.121505
C70   C     C_R   0.829104 0.076791 0.854415 -0.137579
C71   C     C_R   0.200163 0.894388 0.103773 -0.155091
C72   C     C_3   0.260636 0.267236 0.339209 -0.188827
C73   C     C_3   0.677460 0.673663 0.751219 -0.230851
C74   C     C_3   0.321636 0.674475 0.248700 -0.175959
C75   C     C_3   0.740081 0.265435 0.656722 -0.213441
C76   C     C_3   0.739359 0.732772 0.339217 -0.188813
C77   C     C_3   0.322533 0.326325 0.751211 -0.230862
C78   C     C_3   0.678383 0.325508 0.248718 -0.175975
C79   C     C_R   0.300375 0.395331 0.394085 -0.120999
C80   C     C_3   0.259921 0.734567 0.656722 -0.213438
C81   C     C_3   0.760640 0.767227 0.839221 -0.188798
C82   C     C_3   0.177455 0.173659 0.251222 -0.230881
C83   C     C_3   0.821608 0.174493 0.748722 -0.175993
C84   C     C_3   0.240091 0.765449 0.156741 -0.213503
C85   C     C_3   0.239363 0.232771 0.839229 -0.188801
C86   C     C_3   0.822542 0.826336 0.251218 -0.230847
C87   C     C_3   0.178391 0.825506 0.748722 -0.175982
C88   C     C_3   0.759917 0.234562 0.156726 -0.213465
C89   C     C_R   0.313890 0.681971 0.619056 0.185862
C90   C     C_R   0.608487 0.301920 0.603217 -0.074055
C91   C     C_R   0.637177 0.365433 0.310531 0.207692
C92   C     C_R   0.636102 0.633401 0.690023 0.164395
C93   C     C_R   0.314824 0.319536 0.376911 0.175701
C94   C     C_R   0.686111 0.318030 0.619055 0.185856
C95   C     C_R   0.362839 0.634550 0.310518 0.207714
C96   C     C_R   0.363888 0.366587 0.690015 0.164405
C97   C     C_R   0.685175 0.680469 0.376920 0.175692
C98   C     C_R   0.813890 0.181968 0.119062 0.185864
C99   C     C_R   0.137183 0.865429 0.810534 0.207704
C100  C     C_R   0.136097 0.133396 0.190027 0.164391
C101  C     C_R   0.422442 0.668810 0.353395 -0.120404
C102  C     C_R   0.814824 0.819530 0.876924 0.175707
C103  C     C_R   0.186110 0.818042 0.119084 0.185905
C104  C     C_R   0.862817 0.134570 0.810534 0.207704
C105  C     C_R   0.863899 0.866598 0.190023 0.164394
C106  C     C_R   0.185180 0.180472 0.876935 0.175698
C107  C     C_3   0.756888 0.653089 0.790122 0.565742
C108  C     C_3   0.181275 0.287636 0.301402 0.601612
C109  C     C_3   0.715152 0.239785 0.738746 0.574485
C110  C     C_3   0.347534 0.699670 0.167287 0.630482
C111  C     C_3   0.243099 0.346895 0.790102 0.565735
C112  C     C_R   0.329385 0.423601 0.645834 -0.134961
C113  C     C_3   0.818723 0.712369 0.301418 0.601631
C114  C     C_3   0.284848 0.760215 0.738748 0.574500
C115  C     C_3   0.652500 0.300377 0.167279 0.630462
C116  C     C_3   0.761938 0.342878 0.217804 0.558852
C117  C     C_3   0.176435 0.717007 0.686934 0.562884
C118  C     C_3   0.711032 0.769076 0.262724 0.555133
C119  C     C_3   0.351639 0.290887 0.827676 0.575173
C120  C     C_3   0.238096 0.657093 0.217749 0.558836
C121  C     C_3   0.823565 0.282994 0.686938 0.562880
C122  C     C_3   0.288967 0.230918 0.262726 0.555141
C123  C     C_R   0.699625 0.604673 0.394090 -0.121057
C124  C     C_3   0.648354 0.709127 0.827672 0.575122
C125  C     C_3   0.256863 0.153078 0.290160 0.565798
C126  C     C_3   0.681260 0.787619 0.801447 0.601614
C127  C     C_3   0.215148 0.739727 0.238738 0.574311
C128  C     C_3   0.847490 0.199611 0.667280 0.630472
C129  C     C_3   0.743131 0.846922 0.290146 0.565749
C130  C     C_3   0.318749 0.212383 0.801469 0.601639
C131  C     C_3   0.784845 0.260224 0.238747 0.574463
C132  C     C_3   0.152510 0.800390 0.667277 0.630454
C133  C     C_3   0.261950 0.842874 0.717815 0.558855
C134  C     C_R   0.391859 0.302505 0.394907 -0.071587
C135  C     C_3   0.676434 0.216999 0.186946 0.562887
C136  C     C_3   0.211048 0.269022 0.762708 0.555181
C137  C     C_3   0.851658 0.790845 0.327655 0.575071
C138  C     C_3   0.738049 0.157127 0.717812 0.558852
C139  C     C_3   0.323558 0.783025 0.186996 0.562824
C140  C     C_3   0.788956 0.730951 0.762712 0.555167
C141  C     C_3   0.148335 0.209166 0.327649 0.575039
C142  C     C_3   0.227895 0.188639 0.367881 -0.568770
C143  C     C_3   0.710627 0.753499 0.724464 -0.567290
C144  C     C_3   0.297997 0.758924 0.269244 -0.616808
H1    H     H_    0.419062 0.754563 0.601857 0.070056
H2    H     H_    0.541470 0.717486 0.663176 0.112562
H3    H     H_    0.535736 0.815819 0.771785 0.174697
H4    H     H_    0.595567 0.869387 0.701818 0.116278
H5    H     H_    0.544405 0.918573 0.778376 0.154252
H6    H     H_    0.153103 0.676036 0.357600 0.161290
H7    H     H_    0.081248 0.750023 0.374495 0.198912
H8    H     H_    0.183540 0.773376 0.386241 0.127550
H9    H     H_    0.907833 0.254906 0.544210 0.155923
H10   H     H_    0.883791 0.153822 0.523925 0.123592
H11   H     H_    0.984418 0.184006 0.535427 0.172290
H12   H     H_    0.592912 0.877275 0.309825 0.174184
H13   H     H_    0.720794 0.459055 0.340035 0.173350
H14   H     H_    0.609015 0.978214 0.325340 0.145989
H15   H     H_    0.651665 0.911478 0.391805 0.145093
H16   H     H_    0.464248 0.184191 0.771762 0.174658
H17   H     H_    0.404422 0.130543 0.701875 0.116320
H18   H     H_    0.455630 0.081453 0.778446 0.154284
H19   H     H_    0.846800 0.323780 0.357711 0.161296
H20   H     H_    0.918706 0.249824 0.374533 0.198839
H21   H     H_    0.816427 0.226384 0.386227 0.127440
H22   H     H_    0.092168 0.745092 0.544207 0.155908
H23   H     H_    0.116212 0.846175 0.523920 0.123609
H24   H     H_    0.243258 0.576811 0.601653 0.146454
H25   H     H_    0.015584 0.815994 0.535419 0.172303
H26   H     H_    0.359943 0.924370 0.630089 0.133409
H27   H     H_    0.410907 0.860940 0.698506 0.140684
H28   H     H_    0.410221 0.963467 0.712434 0.151651
H29   H     H_    0.585927 0.122588 0.269270 0.134462
H30   H     H_    0.681164 0.079645 0.242440 0.180070
H31   H     H_    0.591313 0.047658 0.197426 0.176860
H32   H     H_    0.166514 0.256369 0.615527 0.130442
H33   H     H_    0.143950 0.350712 0.657912 0.138099
H34   H     H_    0.066723 0.282791 0.637894 0.196557
H35   H     H_    0.580971 0.754179 0.395998 0.079566
H36   H     H_    0.900216 0.893913 0.429510 0.143797
H37   H     H_    0.931833 0.917404 0.330960 0.151283
H38   H     H_    0.001613 0.884101 0.401274 0.154693
H39   H     H_    0.640052 0.075648 0.630080 0.133390
H40   H     H_    0.589088 0.139065 0.698508 0.140683
H41   H     H_    0.589774 0.036536 0.712415 0.151635
H42   H     H_    0.413912 0.877513 0.269417 0.134434
H43   H     H_    0.318655 0.920358 0.242500 0.180067
H44   H     H_    0.408513 0.952438 0.197567 0.176876
H45   H     H_    0.833501 0.743537 0.615534 0.130463
H46   H     H_    0.458524 0.282506 0.663169 0.112551
H47   H     H_    0.856071 0.649213 0.657958 0.138097
H48   H     H_    0.933293 0.717133 0.637918 0.196562
H49   H     H_    0.099775 0.106112 0.429517 0.143807
H50   H     H_    0.068161 0.082607 0.330968 0.151297
H51   H     H_    0.998380 0.115918 0.401274 0.154654
H52   H     H_    0.279202 0.540950 0.340031 0.173303
H53   H     H_    0.756742 0.423189 0.601652 0.146446
H54   H     H_    0.919060 0.254562 0.101859 0.070047
H55   H     H_    0.042468 0.781400 0.837378 0.127968
H56   H     H_    0.221268 0.041338 0.160220 0.150174
H57   H     H_    0.542464 0.281404 0.337376 0.128003
H58   H     H_    0.743699 0.923948 0.896413 0.157155
H59   H     H_    0.080943 0.745439 0.101887 0.070104
H60   H     H_    0.957533 0.218598 0.837378 0.127965
H61   H     H_    0.778734 0.958664 0.160217 0.150229
H62   H     H_    0.256301 0.076051 0.896420 0.157160
H63   H     H_    0.919030 0.745822 0.895998 0.079515
H64   H     H_    0.041466 0.217481 0.163180 0.112584
H65   H     H_    0.220795 0.959056 0.840037 0.173343
H66   H     H_    0.743258 0.076810 0.101648 0.146429
H67   H     H_    0.080973 0.254179 0.896003 0.079493
H68   H     H_    0.721265 0.541334 0.660217 0.150276
H69   H     H_    0.958528 0.782512 0.163175 0.112574
H70   H     H_    0.779202 0.040946 0.840037 0.173343
H71   H     H_    0.256741 0.923195 0.101650 0.146424
H72   H     H_    0.235264 0.165105 0.427335 0.179678
H73   H     H_    0.703633 0.779947 0.666144 0.181528
H74   H     H_    0.311267 0.789532 0.324387 0.177813
H75   H     H_    0.749193 0.152256 0.579434 0.178629
H76   H     H_    0.764718 0.834921 0.427327 0.179673
H77   H     H_    0.296389 0.220017 0.666161 0.181524
H78   H     H_    0.688682 0.210406 0.324340 0.177808
H79   H     H_    0.243700 0.423952 0.396407 0.157114
H80   H     H_    0.250809 0.847748 0.579437 0.178643
H81   H     H_    0.735337 0.665050 0.927312 0.179670
H82   H     H_    0.203689 0.279899 0.166110 0.181548
H83   H     H_    0.811323 0.289604 0.824332 0.177803
H84   H     H_    0.249297 0.652333 0.079371 0.178629
H85   H     H_    0.264642 0.334974 0.927296 0.179686
H86   H     H_    0.796316 0.720081 0.166122 0.181534
H87   H     H_    0.188675 0.710393 0.824329 0.177803
H88   H     H_    0.750790 0.347733 0.079426 0.178633
H89   H     H_    0.907096 0.622807 0.809824 0.174126
H90   H     H_    0.580939 0.245437 0.601856 0.070050
H91   H     H_    0.891077 0.521843 0.825220 0.145972
H92   H     H_    0.848366 0.588467 0.891758 0.145122
H93   H     H_    0.044469 0.418623 0.278237 0.154196
H94   H     H_    0.035735 0.315868 0.271779 0.174751
H95   H     H_    0.095574 0.369311 0.201722 0.116253
H96   H     H_    0.653160 0.176245 0.857708 0.161301
H97   H     H_    0.581291 0.250238 0.874528 0.198838
H98   H     H_    0.683583 0.273627 0.886221 0.127448
H99   H     H_    0.407875 0.755070 0.044263 0.155898
H100  H     H_    0.383896 0.653983 0.023915 0.123584
H101  H     H_    0.457551 0.718579 0.337365 0.128054
H102  H     H_    0.484503 0.684215 0.035454 0.172366
H103  H     H_    0.092882 0.377145 0.809779 0.174143
H104  H     H_    0.108874 0.478117 0.825152 0.145961
H105  H     H_    0.151595 0.411521 0.891712 0.145116
H106  H     H_    0.955548 0.581395 0.278287 0.154236
H107  H     H_    0.964243 0.684149 0.271763 0.174671
H108  H     H_    0.904405 0.630643 0.201753 0.116308
H109  H     H_    0.346842 0.823761 0.857708 0.161312
H110  H     H_    0.418707 0.749765 0.874535 0.198832
H111  H     H_    0.316412 0.726381 0.886224 0.127457
H112  H     H_    0.278731 0.458661 0.660212 0.150303
H113  H     H_    0.592157 0.245059 0.044218 0.155900
H114  H     H_    0.616191 0.346141 0.023919 0.123564
H115  H     H_    0.515567 0.315953 0.035424 0.172367
H116  H     H_    0.859923 0.424389 0.130063 0.133382
H117  H     H_    0.910881 0.360934 0.198458 0.140654
H118  H     H_    0.910219 0.463452 0.212410 0.151638
H119  H     H_    0.085827 0.622680 0.769220 0.134492
H120  H     H_    0.181046 0.579651 0.742466 0.180052
H121  H     H_    0.091198 0.547721 0.697405 0.176829
H122  H     H_    0.666432 0.756507 0.115551 0.130478
H123  H     H_    0.756300 0.576052 0.396413 0.157148
H124  H     H_    0.643951 0.850846 0.157987 0.138028
H125  H     H_    0.566669 0.782985 0.137968 0.196580
H126  H     H_    0.400115 0.394002 0.929513 0.143831
H127  H     H_    0.431754 0.417481 0.830967 0.151283
H128  H     H_    0.501527 0.384230 0.901313 0.154673
H129  H     H_    0.139956 0.576024 0.129912 0.133242
H130  H     H_    0.089021 0.639006 0.198782 0.140870
H131  H     H_    0.089916 0.536390 0.212152 0.151723
H132  H     H_    0.914159 0.377334 0.769234 0.134474
H133  H     H_    0.818936 0.420349 0.742466 0.180054
H134  H     H_    0.419027 0.245822 0.395985 0.079609
H135  H     H_    0.908785 0.452290 0.697416 0.176815
H136  H     H_    0.333570 0.243489 0.115552 0.130588
H137  H     H_    0.356036 0.149147 0.157988 0.137964
H138  H     H_    0.433330 0.216999 0.137974 0.196602
H139  H     H_    0.599867 0.606024 0.929510 0.143819
H140  H     H_    0.568193 0.582550 0.830971 0.151293
H141  H     H_    0.498452 0.615827 0.901336 0.154678
H142  H     H_    0.407199 0.122606 0.309538 0.174275
H143  H     H_    0.390897 0.021749 0.325521 0.145992
H144  H     H_    0.348510 0.088869 0.391771 0.145018
N1    N     N_R   0.424590 0.632770 0.578330 -0.048157
N2    N     N_R   0.575410 0.632770 0.578330 -0.055147
N3    N     N_R   0.632770 0.424590 0.421670 -0.056591
N4    N     N_R   0.367230 0.575410 0.578330 -0.049168
N5    N     N_R   0.575410 0.632770 0.421670 -0.048011
N6    N     N_R   0.424590 0.367230 0.578330 -0.055149
N7    N     N_R   0.367230 0.575410 0.421670 -0.056585
N8    N     N_R   0.632770 0.424590 0.578330 -0.049167
N9    N     N_R   0.924590 0.132770 0.078330 -0.048162
N10   N     N_R   0.075410 0.867230 0.921670 -0.057640
N11   N     N_R   0.132770 0.075410 0.078330 -0.054414
N12   N     N_R   0.575410 0.367230 0.421670 -0.057644
N13   N     N_R   0.867230 0.924590 0.921670 -0.052775
N14   N     N_R   0.075410 0.867230 0.078330 -0.048166
N15   N     N_R   0.924590 0.132770 0.921670 -0.057643
N16   N     N_R   0.867230 0.924590 0.078330 -0.054422
N17   N     N_R   0.132770 0.075410 0.921670 -0.052773
N18   N     N_R   0.924590 0.867230 0.921670 -0.048003
N19   N     N_R   0.075410 0.132770 0.078330 -0.055151
N20   N     N_R   0.132770 0.924590 0.921670 -0.056590
N21   N     N_R   0.867230 0.075410 0.078330 -0.049158
N22   N     N_R   0.075410 0.132770 0.921670 -0.048000
N23   N     N_R   0.632770 0.575410 0.578330 -0.054427
N24   N     N_R   0.924590 0.867230 0.078330 -0.055147
N25   N     N_R   0.867230 0.075410 0.921670 -0.056591
N26   N     N_R   0.132770 0.924590 0.078330 -0.049145
N27   N     N_R   0.367230 0.424590 0.421670 -0.052774
N28   N     N_R   0.575410 0.367230 0.578330 -0.048158
N29   N     N_R   0.424590 0.632770 0.421670 -0.057648
N30   N     N_R   0.367230 0.424590 0.578330 -0.054428
N31   N     N_R   0.632770 0.575410 0.421670 -0.052776
N32   N     N_R   0.424590 0.367230 0.421670 -0.048011
Ni1   Ni    Ni4+2 0.500000 0.631570 0.500000 0.199719
Ni2   Ni    Ni4+2 0.500000 0.368430 0.500000 0.199717
Ni3   Ni    Ni4+2 0.631570 0.500000 0.500000 0.215419
Ni4   Ni    Ni4+2 0.368430 0.500000 0.500000 0.215407
Ni5   Ni    Ni4+2 0.000000 0.131570 0.000000 0.199723
Ni6   Ni    Ni4+2 0.000000 0.868430 0.000000 0.199717
Ni7   Ni    Ni4+2 0.131570 0.000000 0.000000 0.215415
Ni8   Ni    Ni4+2 0.868430 0.000000 0.000000 0.215418
O1    O     O_3   0.794680 0.580615 0.782552 -0.630477
O2    O     O_3   0.130041 0.654014 0.661355 -0.628650
O3    O     O_3   0.634809 0.755161 0.232272 -0.613469
O4    O     O_3   0.427990 0.299620 0.859325 -0.622920
O5    O     O_3   0.195077 0.589797 0.237111 -0.614308
O6    O     O_3   0.869961 0.345988 0.661364 -0.628634
O7    O     O_3   0.365190 0.244830 0.232275 -0.613490
O8    O     O_3   0.572001 0.700412 0.859322 -0.622954
O9    O     O_3   0.294622 0.080580 0.282661 -0.630491
O10   O     O_3   0.643492 0.859607 0.812624 -0.608891
O11   O     O_3   0.142822 0.762543 0.272781 -0.612561
O12   O     O_3   0.143531 0.359644 0.312528 -0.608867
O13   O     O_3   0.921139 0.176804 0.636533 -0.589379
O14   O     O_3   0.705362 0.919411 0.282606 -0.630490
O15   O     O_3   0.356530 0.140407 0.812674 -0.608898
O16   O     O_3   0.857161 0.237377 0.272792 -0.612511
O17   O     O_3   0.078862 0.823198 0.636528 -0.589387
O18   O     O_3   0.305007 0.910115 0.737285 -0.614430
O19   O     O_3   0.630039 0.153999 0.161387 -0.628655
O20   O     O_3   0.134843 0.255055 0.732238 -0.613475
O21   O     O_3   0.928023 0.799535 0.359288 -0.622964
O22   O     O_3   0.694989 0.089887 0.737278 -0.614416
O23   O     O_3   0.642839 0.262648 0.772786 -0.612516
O24   O     O_3   0.369941 0.846056 0.161494 -0.628677
O25   O     O_3   0.865167 0.744899 0.732247 -0.613475
O26   O     O_3   0.071970 0.200479 0.359280 -0.622968
O27   O     O_3   0.421205 0.676922 0.136545 -0.589372
O28   O     O_3   0.205291 0.419359 0.782510 -0.630484
O29   O     O_3   0.856473 0.640366 0.312562 -0.608853
O30   O     O_3   0.357160 0.737353 0.772790 -0.612508
O31   O     O_3   0.578847 0.323173 0.136530 -0.589379
O32   O     O_3   0.804995 0.410122 0.237260 -0.614403

loop_
_geom_bond_atom_site_label_1
_geom_bond_atom_site_label_2
_ccdc_geom_bond_type
C5    C136  S    
C33   H139  S    
C81   C126  S    
C78   C115  S    
C52   H52   S    
C44   H31   S    
C128  O13   S    
C23   H109  S    
C57   N12   A    
C21   H103  S    
C9    C108  S    
C72   C142  S    
C44   O19   S    
C46   H46   S    
C7    C133  S    
N26   Ni7   S    
N17   N22   A    
C126  C143  S    
C119  C130  S    
C107  C140  S    
C117  C132  S    
C36   H4    S    
C55   H55   S    
C49   H42   S    
N6    Ni2   S    
C11   H84   S    
C67   H67   S    
C9    H82   S    
C61   C105  A    
C83   C128  S    
C18   H93   S    
C59   N14   A    
C39   H15   S    
N28   Ni2   S    
C30   H131  S    
C13   C91   A    
C82   C141  S    
C31   H132  S    
C127  O11   S    
C66   N21   A    
N31   Ni3   S    
C123  N31   A    
C8    C81   S    
C70   H70   S    
C65   C99   A    
C121  C128  S    
C48   H40   S    
C69   C105  A    
C76   C118  S    
C82   C125  S    
C40   H18   S    
C136  O20   S    
C55   N10   A    
C1    N1    A    
C3    C138  S    
C50   H47   S    
C7    C132  S    
C22   O29   S    
C5    C130  S    
C35   N5    A    
C33   H141  S    
N24   Ni6   S    
C113  C137  S    
C69   N24   A    
C5    C77   S    
C32   H137  S    
C16   C115  S    
C42   H23   S    
N16   N24   A    
N29   Ni1   S    
C80   C117  S    
C30   O5    S    
C88   C135  S    
C36   O10   S    
C74   C110  S    
N23   Ni3   S    
C11   C110  S    
C62   C106  A    
C11   C84   S    
C27   O2    S    
C74   C120  S    
C53   H53   S    
C130  O15   S    
C118  C129  S    
C51   H51   S    
N11   N19   A    
C49   H44   S    
C27   H120  S    
C68   C92   A    
C14   H86   S    
C58   N13   A    
C112  H112  S    
C19   H97   S    
C22   H107  S    
C46   C96   A    
C58   H58   S    
C30   H129  S    
C41   H20   S    
N20   Ni7   S    
C25   O31   S    
C70   N25   A    
C131  O16   S    
N21   Ni8   S    
C122  O7    S    
C62   H62   S    
C83   C138  S    
C56   H56   S    
C20   H99   S    
C113  O29   S    
C115  O31   S    
C140  C143  S    
C37   H6    S    
C47   H37   S    
C120  C127  S    
N1    Ni1   S    
C12   H85   S    
N27   N32   A    
C47   H36   S    
C44   H30   S    
C22   H106  S    
C111  C136  S    
C6    C78   S    
C111  O28   S    
C112  N30   A    
C31   O6    S    
C41   O16   S    
C50   O25   S    
C4    C137  S    
C60   H60   S    
C72   C108  S    
C34   H144  S    
C139  O24   S    
C68   N23   A    
C66   H66   S    
C3    C75   S    
C118  O3    S    
C42   O17   S    
C25   H113  S    
C73   C124  S    
C62   N17   A    
N13   Ni8   S    
C63   N18   A    
C38   H11   S    
C63   C102  A    
C11   C120  S    
N2    Ni1   S    
C13   H13   S    
N5    N31   A    
C110  O27   S    
C35   H35   S    
N7    N29   A    
C29   H127  S    
C14   C86   S    
C51   H49   S    
C43   H27   S    
C3    C128  S    
C39   O14   S    
C119  O4    S    
C109  C138  S    
N32   Ni2   S    
C6    C135  S    
C123  H123  S    
N27   Ni4   S    
C12   C119  S    
C76   C113  S    
N3    N12   A    
C90   N28   A    
C45   H34   S    
C40   O15   S    
C39   H14   S    
C10   H83   S    
C23   O30   S    
C37   H8    S    
C85   C106  S    
C68   H68   S    
C8    C107  S    
C124  C126  S    
C22   H108  S    
C126  O10   S    
C17   H92   S    
C71   C103  A    
C26   O32   S    
C53   C94   A    
C78   C116  S    
C73   C92   S    
C18   O12   S    
C79   H79   S    
C34   O9    S    
C77   C96   S    
N30   Ni4   S    
C59   C103  A    
C66   C98   A    
C122  C125  S    
C142  H72   S    
C48   H41   S    
C97   C123  A    
C115  C135  S    
C71   H71   S    
C34   H142  S    
N14   Ni6   S    
C38   O13   S    
C25   H115  S    
N2    N23   A    
C26   H116  S    
N17   Ni7   S    
C57   H57   S    
C129  O14   S    
C21   O28   S    
C38   H10   S    
C46   N6    A    
C38   H9    S    
C6    H78   S    
C60   C104  A    
C88   C98   S    
C95   C101  A    
C61   H61   S    
N6    N30   A    
N8    N28   A    
C81   C140  S    
C101  H101  S    
C26   H117  S    
C124  O8    S    
N9    Ni5   S    
C110  C139  S    
C70   C104  A    
C73   C107  S    
C10   C83   S    
N1    N4    A    
C52   C95   A    
C80   C89   S    
C77   C111  S    
N15   Ni5   S    
C86   C137  S    
C1    H1    S    
C43   H26   S    
C84   C139  S    
C4    H76   S    
N8    Ni3   S    
N5    Ni1   S    
C33   O8    S    
C58   C102  A    
C50   H48   S    
C53   N8    A    
C9    C82   S    
C15   H87   S    
C33   H140  S    
C49   O24   S    
C63   H63   S    
N14   N26   A    
C79   N27   A    
N16   Ni8   S    
C23   H110  S    
C32   H138  S    
C16   C116  S    
C108  C141  S    
C90   C94   A    
C21   H104  S    
C101  N29   A    
C56   N11   A    
N12   Ni2   S    
C134  H134  S    
C69   H69   S    
C134  N32   A    
C141  O26   S    
C8    C124  S    
C76   C97   S    
C28   O3    S    
C15   C117  S    
C65   N20   A    
C85   C130  S    
C143  H73   S    
C64   H64   S    
C36   H3    S    
C133  O18   S    
C49   H43   S    
C27   H119  S    
C9    C122  S    
N9    N21   A    
C24   N4    A    
C48   O22   S    
C26   H118  S    
C72   C93   S    
C30   H130  S    
C41   H19   S    
C73   C143  S    
C20   H100  S    
C45   O20   S    
C74   C144  S    
N11   Ni7   S    
C28   H125  S    
C57   C91   A    
C108  O12   S    
C40   H16   S    
C6    C131  S    
C28   H124  S    
C48   H39   S    
C8    H81   S    
N4    Ni4   S    
C67   C106  A    
C4    C129  S    
C67   N22   A    
C17   H89   S    
C14   C113  S    
C135  O19   S    
N18   Ni6   S    
C40   H17   S    
C17   O1    S    
C7    H80   S    
C2    N2    A    
C27   H121  S    
N13   N18   A    
C120  O5    S    
C127  C144  S    
C52   N7    A    
C71   N26   A    
C59   H59   S    
C64   C100  A    
C3    H75   S    
C16   C88   S    
N19   Ni5   S    
C19   H96   S    
C42   H22   S    
C75   C94   S    
N10   N20   A    
C7    C80   S    
C114  O30   S    
C5    H77   S    
N7    Ni4   S    
C87   C133  S    
C10   C121  S    
C24   C89   A    
C47   O21   S    
C28   H122  S    
C116  O32   S    
C144  H74   S    
C96   C112  A    
C61   N16   A    
C12   C85   S    
C10   C109  S    
C29   H126  S    
C24   H24   S    
C79   C93   A    
C21   H105  S    
C36   H5    S    
N15   N25   A    
N10   Ni6   S    
C19   O23   S    
C90   H90   S    
N22   Ni5   S    
C50   H45   S    
C64   N19   A    
C19   H98   S    
C14   C118  S    
C41   H21   S    
C31   H135  S    
C65   H65   S    
C32   H136  S    
C45   H33   S    
C84   C127  S    
C20   H102  S    
C20   O27   S    
C37   H7    S    
C47   H38   S    
C87   C99   S    
C81   C102  S    
C17   H91   S    
C75   C109  S    
C83   C104  S    
C138  O22   S    
C44   H29   S    
C23   H111  S    
C93   C134  A    
C45   H32   S    
C29   O4    S    
C37   O11   S    
C85   C136  S    
C16   H88   S    
C87   C132  S    
C137  O21   S    
C139  C144  S    
C109  O23   S    
N3    Ni3   S    
C125  C142  S    
C42   H25   S    
C34   H143  S    
C15   C114  S    
C2    C92   A    
C54   N9    A    
C121  O6    S    
C25   H114  S    
C80   C114  S    
C13   N3    A    
C86   C105  S    
C56   C100  A    
C55   C99   A    
C18   H95   S    
C15   C87   S    
C60   N15   A    
C125  O9    S    
C1    C89   A    
C72   C122  S    
C75   C121  S    
C29   H128  S    
C82   C100  S    
C74   C95   S    
C77   C119  S    
C51   H50   S    
C43   H28   S    
C86   C129  S    
C88   C131  S    
C78   C91   S    
C2    H2    S    
C54   H54   S    
C39   H12   S    
C51   O26   S    
C141  C142  S    
C140  O25   S    
C116  C131  S    
C114  C133  S    
C107  O1    S    
N25   Ni8   S    
C31   H133  S    
C4    C76   S    
C43   O18   S    
C117  O2    S    
C18   H94   S    
C132  O17   S    
C84   C103  S    
C54   C98   A    
C35   C97   A    
C12   C111  S    
C32   O7    S    
