data_str_m2_o10_o16_f0_pcu.sym.138
_audit_creation_date              2012-12-10T16:44:15-0500
_audit_creation_method            fapswitch 2.2
_symmetry_space_group_name_H-M    P1
_symmetry_Int_Tables_number       1
_space_group_crystal_system       triclinic
_cell_length_a                    7.415592
_cell_length_b                    8.688625
_cell_length_c                    13.368438
_cell_angle_alpha                 93.970237
_cell_angle_beta                  76.804416
_cell_angle_gamma                 103.290944
_cell_volume                      816.013802107

loop_
_atom_site_label
_atom_site_type_symbol
_atom_type_description
_atom_site_fract_x
_atom_site_fract_y
_atom_site_fract_z
_atom_type_partial_charge
C1    C     C_R   0.545363 0.800296 0.503171 0.892466
C2    C     C_R   0.411302 0.495027 0.977279 0.106414
C3    C     C_R   0.449393 0.545100 0.874264 0.043177
C4    C     C_R   0.553270 0.546004 0.035982 0.105282
C5    C     C_R   0.722309 0.655991 0.994126 0.094161
C6    C     C_R   0.745305 0.720165 0.898143 -0.216331
C7    C     C_R   0.609565 0.667863 0.839905 -0.185941
C8    C     C_R   0.533498 0.489424 0.134586 -0.235626
C9    C     C_R   0.842377 0.650023 0.148893 0.355656
C10   C     C_R   0.328085 0.470476 0.807850 -0.138373
C11   C     C_2   0.570943 0.968234 0.504710 -0.381296
C12   C     C_R   0.396363 0.488580 0.694924 0.756439
C13   C     C_2   0.428882 0.031753 0.495594 -0.350365
C14   C     C_R   0.454510 0.199700 0.497034 0.864206
C15   C     C_R   0.604067 0.515918 0.305416 0.842922
C16   C     C_R   0.866296 0.702901 0.049071 -0.256837
C17   C     C_R   0.668607 0.547106 0.194074 -0.181683
C18   C     C_R   0.154487 0.363018 0.849989 0.149800
C19   C     C_R   0.106405 0.335032 0.955375 -0.178104
C20   C     C_R   0.232962 0.396379 0.017511 -0.172547
Cu1   Cu    Cu3+1 0.321300 0.483160 0.488710 0.989014
Cu2   Cu    Cu3+1 0.678700 0.516840 0.511290 0.991727
H1    H     H_    0.292079 0.960066 0.486974 0.202051
H2    H     H_    0.011914 0.619889 0.577878 0.213708
H3    H     H_    0.988121 0.380247 0.422040 0.240846
H4    H     H_    0.870019 0.810222 0.867284 0.134844
H5    H     H_    0.996205 0.784651 0.014492 0.180459
H6    H     H_    0.410626 0.401680 0.168756 0.171116
H7    H     H_    0.185370 0.364677 0.097164 0.168691
H8    H     H_    0.972204 0.257921 0.989408 0.151320
H9    H     H_    0.632272 0.725367 0.767518 0.156112
H10   H     H_    0.707766 0.039909 0.513302 0.181525
N1    N     N_2   0.947230 0.542220 0.528320 -0.194870
N2    N     N_2   0.052770 0.457780 0.471680 -0.178008
O1    O     O_R   0.383920 0.714220 0.492660 -0.573335
O2    O     O_R   0.685730 0.742660 0.511730 -0.556815
O3    O     O_R   0.275440 0.478800 0.636790 -0.591719
O4    O     O_R   0.577250 0.507240 0.655860 -0.594335
O5    O     O_R   0.314270 0.257340 0.488270 -0.589529
O6    O     O_R   0.616080 0.285780 0.507340 -0.596676
O7    O     O_R   0.422750 0.492760 0.344140 -0.552173
O8    O     O_R   0.724560 0.521200 0.363210 -0.512869
S1    S     S_3+6 0.029606 0.721699 0.213929 0.006503
O9    O     O_2   0.089586 0.584436 0.248963 -0.274194
O10   O     O_2   0.198499 0.821162 0.144436 -0.306691
O11   O     O_3   0.955623 0.831790 0.316880 -0.500507
H11   H     H_    0.905951 0.912847 0.289564 0.324532
C21   C     C_3   0.020484 0.267840 0.786450 -0.417608
C22   C     C_3   0.869217 0.355697 0.777062 -0.716975
H12   H     H_    0.775044 0.366144 0.853604 0.239116
H13   H     H_    0.935136 0.476029 0.746628 0.255029
H14   H     H_    0.781588 0.289083 0.724349 0.238569
H15   H     H_    0.097517 0.234608 0.709796 0.214600
H16   H     H_    0.947157 0.152684 0.823523 0.183121

loop_
_geom_bond_atom_site_label_1
_geom_bond_atom_site_label_2
_ccdc_geom_bond_type
C2    C4    A    
S1    O9    D    
C6    C7    A    
Cu1   O1    S    
H2    N1    S    
C21   H15   S    
C11   C13   D    
C15   O8    A    
C8    C17   A    
Cu1   O5    S    
H3    N2    S    
C4    C8    A    
C22   H14   S    
Cu2   O6    S    
C16   H5    S    
C2    C3    A    
C1    C11   S    
C3    C10   A    
C6    H4    S    
Cu1   Cu2   S    
C21   H16   S    
S1    O10   D    
C13   H1    S    
Cu2   O8    S    
C10   C12   S    
C10   C18   A    
Cu1   O7    S    
C9    C17   A    
C21   C22   S    
C9    C16   A    
C11   H10   S    
N1    N2    D    
C3    C7    A    
C20   H7    S    
C12   O4    A    
C5    C6    A    
C8    H6    S    
S1    O11   S    
C9    S1    S    
C7    H9    S    
C15   O7    A    
C14   O6    A    
Cu2   O4    S    
Cu1   O3    S    
C1    O1    A    
C15   C17   S    
C18   C19   A    
C12   O3    A    
C22   H12   S    
Cu2   N1    S    
O11   H11   S    
C5    C16   A    
Cu1   N2    S    
C14   O5    A    
C13   C14   S    
C19   H8    S    
C2    C20   A    
Cu2   O2    S    
C19   C20   A    
C1    O2    A    
C4    C5    A    
C22   H13   S    
C18   C21   S    
