data_str_m9_o16_o17_f0_sra.sym.20
_audit_creation_date              2012-12-11T15:07:31-0500
_audit_creation_method            fapswitch 2.2
_symmetry_space_group_name_H-M    P1
_symmetry_Int_Tables_number       1
_space_group_crystal_system       triclinic
_cell_length_a                    21.564339
_cell_length_b                    7.220564
_cell_length_c                    18.663423
_cell_angle_alpha                 90.356733
_cell_angle_beta                  95.873807
_cell_angle_gamma                 90.230397
_cell_volume                      2890.67462822

loop_
_atom_site_label
_atom_site_type_symbol
_atom_type_description
_atom_site_fract_x
_atom_site_fract_y
_atom_site_fract_z
_atom_type_partial_charge
O1    O     O_R   0.449650 0.506500 0.414480 -0.523279
O2    O     O_R   0.550350 0.006500 0.585520 -0.526132
O3    O     O_R   0.432010 0.173150 0.560250 -0.527252
O4    O     O_R   0.567990 0.673150 0.439750 -0.529935
C1    C     C_R   0.416465 0.344019 0.580896 0.741855
C2    C     C_R   0.583743 0.844328 0.419318 0.737174
O5    O     O_R   0.442320 0.176650 0.413480 -0.530225
O6    O     O_R   0.557680 0.676650 0.586520 -0.527747
O7    O     O_R   0.560730 0.008380 0.437700 -0.523429
O8    O     O_R   0.439270 0.508380 0.562300 -0.524336
C3    C     C_R   0.428227 0.344752 0.387957 0.733125
C4    C     C_R   0.570801 0.846818 0.612851 0.738921
O9    O     O_3   0.538840 0.339860 0.508120 -0.376266
O10   O     O_3   0.461160 0.839860 0.491880 -0.374427
V1    V     V_3+5 0.492800 0.064220 0.498490 1.572859
V2    V     V_3+5 0.507200 0.564220 0.501510 1.568908
C5    C     C_R   0.872171 0.786956 0.700730 -0.095220
C6    C     C_R   0.124445 0.367752 0.308878 -0.094526
H1    H     H_    0.959797 0.802834 0.765031 0.160263
H2    H     H_    0.036989 0.370937 0.243165 0.172211
H3    H     H_    0.791467 0.704769 0.588873 0.168118
H4    H     H_    0.204799 0.342124 0.426358 0.168142
H5    H     H_    0.892862 0.723322 0.656154 0.164207
H6    H     H_    0.102487 0.338348 0.357288 0.165364
C7    C     C_R   0.886569 0.926016 0.819771 -0.073483
C8    C     C_R   0.113041 0.437501 0.181254 -0.082020
C9    C     C_R   0.582363 0.924753 0.743533 0.308821
C10   C     C_R   0.414908 0.336261 0.254434 0.307287
C11   C     C_R   0.617723 0.939986 0.809979 -0.114787
C12   C     C_R   0.378050 0.338453 0.188716 -0.107947
C13   C     C_R   0.682030 0.917046 0.815613 -0.151019
C14   C     C_R   0.313802 0.361775 0.185919 -0.148235
C15   C     C_R   0.713579 0.889898 0.754003 0.100248
C16   C     C_R   0.284186 0.388394 0.249103 0.104940
C17   C     C_R   0.676544 0.846359 0.687776 0.012837
C18   C     C_R   0.321258 0.371217 0.316848 0.013020
C19   C     C_R   0.780478 0.890710 0.757046 0.033163
C20   C     C_R   0.217934 0.411424 0.246930 0.045845
C21   C     C_R   0.807677 0.812935 0.697469 0.086301
C22   C     C_R   0.189562 0.379311 0.311036 0.075133
C23   C     C_R   0.770520 0.761410 0.634563 -0.102086
C24   C     C_R   0.226361 0.359712 0.376855 -0.118479
C25   C     C_R   0.706331 0.784842 0.628672 -0.160957
C26   C     C_R   0.291187 0.363331 0.380139 -0.149269
C27   C     C_R   0.821988 0.965520 0.815623 0.188701
C28   C     C_R   0.178330 0.463964 0.184112 0.177351
C29   C     C_R   0.910574 0.835226 0.762322 -0.145742
C30   C     C_R   0.086969 0.387609 0.243970 -0.141580
C31   C     C_R   0.610429 0.865116 0.682474 -0.141622
C32   C     C_R   0.387283 0.352120 0.319245 -0.146646
H7    H     H_    0.706039 0.914956 0.869101 0.187345
H8    H     H_    0.287490 0.346875 0.133853 0.175880
H9    H     H_    0.595267 0.971928 0.857832 0.168538
H10   H     H_    0.399250 0.318380 0.139113 0.167966
H11   H     H_    0.680048 0.748056 0.578020 0.103938
H12   H     H_    0.317493 0.349107 0.432407 0.092240
C33   C     C_R   0.616044 0.836554 0.293617 0.258844
C34   C     C_R   0.380713 0.446949 0.698249 0.256387
C35   C     C_R   0.632020 0.854395 0.368466 -0.118493
C36   C     C_R   0.368496 0.353197 0.631974 -0.115333
C37   C     C_R   0.693874 0.891909 0.395156 -0.222054
C38   C     C_R   0.310159 0.269791 0.613935 -0.213591
C39   C     C_R   0.740954 0.910098 0.348484 0.051123
C40   C     C_R   0.262612 0.283344 0.660197 0.050101
C41   C     C_R   0.725481 0.889226 0.273231 0.007004
C42   C     C_R   0.273459 0.388083 0.724710 0.015529
C43   C     C_R   0.662787 0.853398 0.245721 0.060569
C44   C     C_R   0.332390 0.472805 0.742998 0.056331
C45   C     C_R   0.803164 0.950127 0.375073 0.258334
C46   C     C_R   0.204187 0.196855 0.643284 0.253776
C47   C     C_R   0.849052 0.966881 0.327781 -0.116779
C48   C     C_R   0.157608 0.214716 0.689715 -0.117048
C49   C     C_R   0.834990 0.945139 0.252918 0.000046
C50   C     C_R   0.167150 0.319278 0.753894 -0.000120
C51   C     C_R   0.772664 0.905866 0.225340 -0.012020
C52   C     C_R   0.225576 0.407099 0.771374 -0.006047
C53   C     C_R   0.757316 0.883720 0.150061 0.024039
C54   C     C_R   0.236203 0.515452 0.834994 0.019993
C55   C     C_R   0.694439 0.854332 0.123942 -0.160546
C56   C     C_R   0.293782 0.608133 0.849349 -0.165519
C57   C     C_R   0.648318 0.838187 0.170782 -0.093620
C58   C     C_R   0.341308 0.583906 0.805132 -0.101424
C59   C     C_R   0.881748 0.962740 0.205201 0.147520
C60   C     C_R   0.119667 0.338005 0.800698 0.163812
C61   C     C_R   0.866436 0.940974 0.130364 -0.144782
C62   C     C_R   0.130896 0.441596 0.865395 -0.155703
C63   C     C_R   0.805004 0.896019 0.102796 0.281365
C64   C     C_R   0.188796 0.530784 0.882201 0.281775
H13   H     H_    0.704546 0.907583 0.452796 0.159306
H14   H     H_    0.302351 0.195922 0.563172 0.167024
H15   H     H_    0.895944 0.998271 0.350849 0.214407
H16   H     H_    0.113834 0.144642 0.674532 0.211485
H17   H     H_    0.679574 0.846304 0.066909 0.143742
H18   H     H_    0.303148 0.701813 0.894596 0.149833
H19   H     H_    0.601071 0.814457 0.147129 0.186221
H20   H     H_    0.384631 0.657448 0.819479 0.193085
O11   O     O_R   0.060820 0.290050 0.937800 -0.531172
O12   O     O_R   0.939180 0.790050 0.062200 -0.539488
O13   O     O_R   0.057690 0.616620 0.086540 -0.513830
O14   O     O_R   0.942310 0.116620 0.913460 -0.505330
C65   C     C_R   0.071416 0.449018 0.112818 0.744348
C66   C     C_R   0.928459 0.947074 0.887512 0.772665
O15   O     O_R   0.068010 0.619890 0.939770 -0.515093
O16   O     O_R   0.931990 0.119890 0.060230 -0.530912
O17   O     O_R   0.949640 0.787940 0.914460 -0.550021
O18   O     O_R   0.050360 0.287940 0.085540 -0.537052
C67   C     C_R   0.082978 0.451489 0.917486 0.815161
C68   C     C_R   0.915809 0.951321 0.080649 0.830422
O19   O     O_3   0.961210 0.453080 0.991940 -0.379922
O20   O     O_3   0.038790 0.953080 0.008060 -0.369196
V3    V     V_3+5 0.007200 0.728820 0.001500 1.606256
V4    V     V_3+5 0.992800 0.228820 0.998500 1.601001
Br1   Br    Br    0.829053 0.987391 0.475806 -0.543299
Br2   Br    Br    0.184770 0.049613 0.557620 -0.537608
Br3   Br    Br    0.967911 0.007102 0.240959 -0.575430
Br4   Br    Br    0.037767 0.231470 0.775067 -0.560696
O21   O     O_3   0.793537 0.865185 0.029510 -0.632191
H21   H     H_    0.762477 0.764150 0.021176 0.299075
O22   O     O_3   0.197824 0.629552 0.945847 -0.610928
H22   H     H_    0.240911 0.607203 0.967641 0.320183
Br5   Br    Br    0.797278 0.153032 0.881421 -0.518727
Br6   Br    Br    0.208083 0.624605 0.113158 -0.541372
Br7   Br    Br    0.495767 0.990637 0.739175 -0.467013
Br8   Br    Br    0.502991 0.299731 0.253235 -0.454277
Br9   Br    Br    0.529680 0.794679 0.258401 -0.470609
Br10  Br    Br    0.465545 0.517073 0.730555 -0.477577

loop_
_geom_bond_atom_site_label_1
_geom_bond_atom_site_label_2
_ccdc_geom_bond_type
C42   C44   A    
C39   C41   A    
C9    C11   A    
C23   C25   A    
C62   C67   S    
O1    C3    A    
O2    C4    A    
C2    O7    A    
C4    C31   S    
O3    V1    S    
C21   C23   A    
O18   V4    S    
C46   Br2   S    
O5    C3    A    
C12   H10   S    
C45   Br1   S    
C5    H5    S    
C50   C52   A    
C6    H6    S    
O15   V3    S    
C43   C57   A    
C52   C54   A    
C55   H17   S    
C8    C65   S    
C33   Br9   S    
C57   H19   S    
C62   C64   A    
C7    C66   S    
C33   C35   A    
C34   C36   A    
O12   C68   A    
C66   O17   A    
C36   C38   A    
C5    C21   A    
C45   C47   A    
C6    C22   A    
O20   V3    S    
C14   H8    S    
C38   C40   A    
C10   C32   A    
C39   C45   A    
C41   C43   A    
C17   C31   A    
C13   C15   A    
C40   C46   A    
C12   C14   A    
C61   C68   S    
C17   C25   A    
C7    C29   A    
C16   C18   A    
C8    C30   A    
C53   C55   A    
O17   V3    S    
C42   C52   A    
O6    V2    S    
C11   C13   A    
C49   C51   A    
C24   C26   A    
C33   C43   A    
C37   H13   S    
C61   C63   A    
C35   C37   A    
C58   H20   S    
C59   Br3   S    
C48   C50   A    
O19   V4    S    
C50   C60   A    
O16   V4    S    
O11   V4    S    
C9    Br7   S    
C27   Br5   S    
C15   C19   A    
C40   C42   A    
O4    V2    S    
C26   H12   S    
O6    C4    A    
O13   V3    S    
O14   C66   A    
H1    C29   S    
O1    V2    S    
C64   O22   S    
O2    V1    S    
C51   C53   A    
H2    C30   S    
H3    C23   S    
C25   H11   S    
O13   C65   A    
C34   Br10  S    
C18   C26   A    
O4    C2    A    
C56   H18   S    
C7    C27   A    
O16   C68   A    
C18   C32   A    
C47   C49   A    
C54   C64   A    
C65   O18   A    
O12   V3    S    
C1    C36   S    
C59   C61   A    
C16   C20   A    
C2    C35   S    
C37   C39   A    
C28   Br6   S    
C5    C29   A    
C13   H7    S    
C22   C24   A    
O3    C1    A    
C6    C30   A    
C46   C48   A    
O22   H22   S    
C10   Br8   S    
O14   V4    S    
C55   C57   A    
C41   C51   A    
C44   C58   A    
C10   C12   A    
O7    V1    S    
C1    O8    A    
C19   C21   A    
C3    C32   S    
O8    V2    S    
O21   H21   S    
C20   C22   A    
C34   C44   A    
H4    C24   S    
C11   H9    S    
C48   H16   S    
C38   H14   S    
O5    V1    S    
C15   C17   A    
C56   C58   A    
C54   C56   A    
C63   O21   S    
C20   C28   A    
C8    C28   A    
O11   C67   A    
C47   H15   S    
C53   C63   A    
C60   Br4   S    
O9    V2    S    
O10   V1    S    
C60   C62   A    
O15   C67   A    
C19   C27   A    
C49   C59   A    
C9    C31   A    
C14   C16   A    
