data_str_m9_o4_o2_f0_sra.sym.29
_audit_creation_date              2012-12-11T17:07:28-0500
_audit_creation_method            fapswitch 2.2
_symmetry_space_group_name_H-M    P1
_symmetry_Int_Tables_number       1
_space_group_crystal_system       triclinic
_cell_length_a                    6.969025
_cell_length_b                    14.472094
_cell_length_c                    16.11863
_cell_angle_alpha                 90.004835
_cell_angle_beta                  90.030461
_cell_angle_gamma                 89.93154
_cell_volume                      1625.66535525

loop_
_atom_site_label
_atom_site_type_symbol
_atom_type_description
_atom_site_fract_x
_atom_site_fract_y
_atom_site_fract_z
_atom_type_partial_charge
O1    O     O_R   0.505720 0.583900 0.413310 -0.535866
O2    O     O_R   0.175940 0.594920 0.586080 -0.543722
O3    O     O_R   0.005640 0.416100 0.586690 -0.534969
C1    C     C_R   0.344544 0.616816 0.614789 0.721081
O4    O     O_R   0.176000 0.594930 0.413930 -0.546078
O5    O     O_R   0.005700 0.416110 0.413310 -0.541123
C2    C     C_R   0.344686 0.617028 0.385277 0.690046
O6    O     O_R   0.505660 0.583890 0.586690 -0.539369
O7    O     O_3   0.339200 0.441330 0.500000 -0.365763
V1    V     V_3+5 0.064350 0.510880 0.500000 1.391829
O8    O     O_R   0.675980 0.405080 0.413920 -0.538840
C3    C     C_R   0.845043 0.383086 0.385167 0.689774
O9    O     O_R   0.675920 0.405070 0.586070 -0.537024
C4    C     C_R   0.844841 0.382830 0.614199 0.697694
V2    V     V_3+5 0.564340 0.489120 0.500000 1.409053
O10   O     O_3   0.839360 0.558670 0.500000 -0.373970
H1    H     H_    0.084576 0.084785 0.513788 0.113549
C5    C     C_R   0.731577 0.434052 0.779090 -0.150207
C6    C     C_R   0.678094 0.463216 0.857617 -0.154618
C7    C     C_R   0.692519 0.403568 0.924436 -0.186955
C8    C     C_R   0.760490 0.312669 0.914086 0.347850
C9    C     C_R   0.812159 0.280083 0.833186 0.039401
C10   C     C_R   0.798522 0.343066 0.764932 0.015632
C11   C     C_R   0.879706 0.187975 0.818523 -0.187423
C12   C     C_R   0.935601 0.161062 0.737187 0.047840
C13   C     C_R   0.923570 0.224893 0.670207 0.076585
C14   C     C_R   0.854719 0.315618 0.684006 -0.163019
C15   C     C_R   0.001728 0.070191 0.720662 -0.152069
C16   C     C_R   0.055268 0.043475 0.640933 -0.119593
C17   C     C_R   0.043574 0.105955 0.575721 -0.116888
C18   C     C_R   0.978093 0.195571 0.589768 -0.132625
H2    H     H_    0.720380 0.484349 0.729692 0.114339
H3    H     H_    0.652106 0.428870 0.985215 0.107801
H4    H     H_    0.012330 0.018432 0.768842 0.100211
H5    H     H_    0.969575 0.241204 0.536720 0.097767
C19   C     C_R   0.727807 0.182084 0.241672 0.118912
C20   C     C_R   0.882317 0.181637 0.186078 -0.128127
C21   C     C_R   0.033783 0.243544 0.201874 -0.177670
H6    H     H_    0.156268 0.245711 0.160878 0.140493
C22   C     C_R   0.022480 0.307917 0.267272 -0.180587
H7    H     H_    0.137290 0.357391 0.274872 0.129309
C23   C     C_R   0.858980 0.312623 0.318622 -0.114443
C24   C     C_R   0.716169 0.246052 0.306175 0.104925
C25   C     C_3   0.505843 0.258734 0.294036 -0.415297
C26   C     C_3   0.518446 0.188693 0.224042 -0.398137
H8    H     H_    0.421406 0.233765 0.348041 0.179533
H9    H     H_    0.442007 0.123058 0.237712 0.178295
C27   C     C_R   0.494691 0.753056 0.686902 0.089901
C28   C     C_R   0.351361 0.685704 0.682597 -0.180860
C29   C     C_R   0.209608 0.686714 0.744839 -0.177161
H10   H     H_    0.095120 0.636163 0.743192 0.141715
C30   C     C_R   0.223813 0.745922 0.814271 0.329758
C31   C     C_R   0.376637 0.811436 0.819377 -0.198949
C32   C     C_R   0.505240 0.815099 0.752628 0.056620
C33   C     C_3   0.719375 0.812405 0.752612 -0.381004
C34   C     C_3   0.707386 0.744423 0.680880 -0.380346
H11   H     H_    0.777700 0.781522 0.810371 0.221976
H12   H     H_    0.783023 0.879895 0.734751 0.164579
H13   H     H_    0.759356 0.674038 0.697101 0.172933
C35   C     C_R   0.515850 0.688043 0.263932 0.039704
C36   C     C_R   0.353287 0.682677 0.314737 -0.075294
C37   C     C_R   0.199691 0.742511 0.296795 -0.193852
C38   C     C_R   0.211699 0.806660 0.231314 -0.195145
H14   H     H_    0.096278 0.854873 0.221302 0.142910
C39   C     C_R   0.377540 0.813791 0.182392 -0.050140
C40   C     C_R   0.529070 0.753622 0.200299 0.069339
C41   C     C_3   0.728038 0.779090 0.225039 0.184986
C42   C     C_3   0.716352 0.704743 0.291477 -0.454906
H15   H     H_    0.834363 0.766068 0.175062 0.097289
H16   H     H_    0.809914 0.644189 0.278442 0.144764
O11   O     O_R   0.229140 0.916090 0.913340 -0.540489
O12   O     O_R   0.558860 0.905090 0.086080 -0.528287
O13   O     O_R   0.729100 0.083920 0.086690 -0.525100
C43   C     C_R   0.390112 0.883477 0.115153 0.692073
O14   O     O_R   0.558860 0.905090 0.913930 -0.540338
O15   O     O_R   0.729100 0.083920 0.913310 -0.523959
C44   C     C_R   0.389578 0.881015 0.886912 0.682222
O16   O     O_R   0.229140 0.916080 0.086720 -0.551964
O17   O     O_3   0.395570 0.058660 0.000020 -0.365791
V3    V     V_3+5 0.670450 0.989140 0.000000 1.472079
O18   O     O_R   0.058810 0.094980 0.913910 -0.541272
C45   C     C_R   0.889718 0.118261 0.886478 0.804916
O19   O     O_R   0.058810 0.094980 0.086060 -0.545861
C46   C     C_R   0.890202 0.116185 0.115395 0.767906
V4    V     V_3+5 0.170450 0.010950 0.999970 1.435787
O20   O     O_3   0.895460 0.941370 0.999990 -0.375832
H17   H     H_    0.470092 0.329600 0.272373 0.165676
H18   H     H_    0.489313 0.218730 0.161811 0.169212
O21   O     O_3   0.093778 0.732397 0.877638 -0.656927
H19   H     H_    0.150386 0.754358 0.930364 0.282462
H20   H     H_    0.763899 0.772855 0.621692 0.165599
H21   H     H_    0.075194 0.743312 0.336506 0.129720
O22   O     O_3   0.732340 0.869335 0.257520 -0.635997
H22   H     H_    0.834762 0.871394 0.300153 0.282060
H23   H     H_    0.724412 0.731078 0.356252 0.178919
H24   H     H_    0.626860 0.533148 0.866864 0.138260
O23   O     O_3   0.780411 0.256670 0.982855 -0.662606
H25   H     H_    0.737690 0.290211 0.033255 0.267369
H26   H     H_    0.105402 0.973737 0.629703 0.113809

loop_
_geom_bond_atom_site_label_1
_geom_bond_atom_site_label_2
_ccdc_geom_bond_type
C33   C34   S    
C38   C39   A    
O22   H22   S    
O2    C1    A    
C6    C7    A    
O11   C44   A    
C1    O6    A    
O23   H25   S    
C31   C32   A    
C30   C31   A    
C12   C15   A    
C27   C32   A    
C13   C14   A    
C20   C21   A    
C15   C16   A    
O5    C3    A    
C17   C18   A    
V2    O10   S    
C5    C6    A    
C11   C45   S    
C2    C36   S    
V3    O20   S    
O11   V4    S    
O8    V2    S    
C34   H20   S    
C37   H21   S    
C29   C30   A    
C35   C40   A    
C20   C46   S    
O1    V2    S    
C10   C14   A    
C4    C14   S    
C25   H17   S    
O14   V3    S    
O13   C46   A    
C22   C23   A    
C40   C41   S    
C15   H4    S    
C13   C18   A    
C8    C9    A    
H1    C17   S    
C30   O21   S    
C25   H8    S    
O18   C45   A    
C26   H9    S    
C42   H23   S    
C16   H26   S    
C3    C23   S    
C41   C42   S    
C26   H18   S    
C11   C12   A    
O12   C43   A    
O15   C45   A    
O4    C2    A    
C12   C13   A    
V4    O20   S    
C39   C43   S    
C5    C10   A    
C35   C36   A    
C41   H15   S    
C31   C44   S    
C24   C25   S    
C37   C38   A    
C8    O23   S    
O19   C46   A    
C29   H10   S    
C19   C26   S    
O14   C44   A    
O3    C4    A    
C7    H3    S    
O16   V4    S    
C22   H7    S    
O19   V4    S    
C39   C40   A    
O6    V2    S    
C33   H11   S    
C18   H5    S    
O17   V3    S    
C5    H2    S    
C23   C24   A    
O2    V1    S    
O17   V4    S    
C25   C26   S    
O7    V1    S    
C27   C34   S    
C32   C33   S    
C19   C20   A    
O1    C2    A    
O15   V3    S    
O5    V1    S    
O8    C3    A    
C34   H13   S    
C1    C28   S    
O9    V2    S    
O7    V2    S    
O4    V1    S    
O12   V3    S    
O3    V1    S    
V1    O10   S    
C21   C22   A    
C21   H6    S    
C27   C28   A    
O13   V3    S    
C9    C11   A    
C36   C37   A    
C16   C17   A    
C38   H14   S    
C7    C8    A    
C35   C42   S    
C42   H16   S    
C28   C29   A    
C43   O16   A    
C33   H12   S    
C41   O22   S    
C9    C10   A    
C19   C24   A    
O21   H19   S    
O9    C4    A    
O18   V4    S    
C6    H24   S    
