data_str_m2_o16_o16_f0_pcu.sym.202
_audit_creation_date              2013-03-05T15:54:33-0500
_audit_creation_method            fapswitch 2.2
_symmetry_space_group_name_H-M    P1
_symmetry_Int_Tables_number       1
_space_group_crystal_system       triclinic
_cell_length_a                    19.061146
_cell_length_b                    18.514543
_cell_length_c                    12.363443
_cell_angle_alpha                 89.934002
_cell_angle_beta                  128.975516
_cell_angle_gamma                 90.110372
_cell_volume                      3391.98123829

loop_
_atom_site_label
_atom_site_type_symbol
_atom_site_description
_atom_site_fract_x
_atom_site_fract_y
_atom_site_fract_z
_atom_type_partial_charge
O1    O     O_R   0.608610 0.924520 0.551740 -0.582195
O2    O     O_R   0.608610 0.075480 0.551740 -0.581782
O3    O     O_R   0.108610 0.424520 0.551740 -0.582015
O4    O     O_R   0.108610 0.575480 0.551740 -0.581371
O5    O     O_R   0.564110 0.924510 0.685150 -0.614062
O6    O     O_R   0.564110 0.075490 0.685150 -0.612067
O7    O     O_R   0.064110 0.424510 0.685150 -0.615078
O8    O     O_R   0.064110 0.575490 0.685150 -0.612973
C1    C     C_R   0.609153 0.896164 0.649241 0.797631
C2    C     C_R   0.609584 0.103640 0.649652 0.797569
C3    C     C_R   0.108043 0.395500 0.648000 0.799558
C4    C     C_R   0.109191 0.603905 0.649184 0.797724
Cu1   Cu    Cu3+1 0.526340 0.000000 0.421010 0.934488
Cu2   Cu    Cu3+1 0.026340 0.500000 0.421010 0.934051
Cu3   Cu    Cu3+1 0.473640 0.000000 0.578990 0.960205
Cu4   Cu    Cu3+1 0.973640 0.500000 0.578990 0.957136
O9    O     O_R   0.435880 0.075470 0.314850 -0.596307
O10   O     O_R   0.435880 0.924530 0.314850 -0.597243
O11   O     O_R   0.935880 0.575470 0.314850 -0.597398
O12   O     O_R   0.935880 0.424530 0.314850 -0.596051
O13   O     O_R   0.391380 0.075460 0.448260 -0.553510
O14   O     O_R   0.391380 0.924540 0.448260 -0.553589
O15   O     O_R   0.891380 0.575460 0.448260 -0.551305
O16   O     O_R   0.891380 0.424540 0.448260 -0.557427
C5    C     C_R   0.386092 0.100275 0.344524 0.815457
C6    C     C_R   0.385914 0.899720 0.344515 0.818292
C7    C     C_R   0.886153 0.600409 0.344720 0.817898
C8    C     C_R   0.886010 0.399630 0.344585 0.815589
C9    C     C_R   0.682125 0.278605 0.161949 -0.187086
C10   C     C_R   0.685491 0.724270 0.167346 -0.187779
C11   C     C_R   0.182503 0.778233 0.163469 -0.187897
C12   C     C_R   0.190211 0.228363 0.174767 -0.183375
H1    H     H_    0.261616 0.834060 0.356910 0.194332
H2    H     H_    0.272995 0.174289 0.370206 0.201223
H3    H     H_    0.763036 0.332152 0.357825 0.200788
H4    H     H_    0.766352 0.670144 0.362329 0.194923
H5    H     H_    0.541695 0.210839 0.939898 0.148843
H6    H     H_    0.546041 0.793510 0.948576 0.145120
H7    H     H_    0.044002 0.708107 0.944995 0.145625
H8    H     H_    0.051524 0.300564 0.960705 0.145632
H9    H     H_    0.633099 0.261235 0.174135 0.143241
H10   H     H_    0.637953 0.742831 0.181759 0.140942
H11   H     H_    0.133624 0.760879 0.175987 0.140916
H12   H     H_    0.145697 0.249507 0.193494 0.143050
C13   C     C_R   0.317057 0.845896 0.249980 -0.058134
C14   C     C_R   0.318016 0.154470 0.250571 -0.060803
C15   C     C_R   0.817259 0.345756 0.249791 -0.062063
C16   C     C_R   0.817901 0.654620 0.250722 -0.058481
C17   C     C_R   0.729159 0.189079 0.708156 -0.197586
C18   C     C_R   0.726198 0.809025 0.704564 -0.196044
C19   C     C_R   0.226176 0.691642 0.704339 -0.197096
C20   C     C_R   0.215355 0.301367 0.690674 -0.205761
C21   C     C_R   0.285218 0.749112 0.780788 0.322010
C22   C     C_R   0.271892 0.241873 0.763574 0.334377
C23   C     C_R   0.788940 0.246169 0.784934 0.323977
C24   C     C_R   0.785362 0.751784 0.781071 0.320858
C25   C     C_R   0.289297 0.779064 0.888318 -0.257153
C26   C     C_R   0.278335 0.213820 0.874710 -0.258572
C27   C     C_R   0.791978 0.277162 0.890875 -0.254850
C28   C     C_R   0.789273 0.721480 0.888240 -0.256347
C29   C     C_R   0.731634 0.255472 0.915131 0.048426
C30   C     C_R   0.730415 0.744209 0.914548 0.049140
C31   C     C_R   0.230438 0.755937 0.914565 0.049017
C32   C     C_R   0.225352 0.241225 0.909338 0.047759
C33   C     C_R   0.661503 0.206593 0.820554 0.079081
C34   C     C_R   0.660691 0.793470 0.820743 0.074022
C35   C     C_R   0.160598 0.706707 0.820399 0.074646
C36   C     C_R   0.157926 0.292831 0.819553 0.077235
C37   C     C_R   0.238243 0.780189 0.030993 0.093736
C38   C     C_R   0.236372 0.218878 0.029637 0.092965
C39   C     C_R   0.738544 0.280412 0.030439 0.094217
C40   C     C_R   0.738570 0.720016 0.031351 0.093679
C41   C     C_R   0.672170 0.260086 0.043174 0.161239
C42   C     C_R   0.674226 0.742045 0.047190 0.158277
C43   C     C_R   0.172677 0.759203 0.044992 0.158893
C44   C     C_R   0.176106 0.244499 0.051718 0.157954
C45   C     C_R   0.596090 0.222215 0.936486 -0.238131
C46   C     C_R   0.598563 0.780596 0.941941 -0.221225
C47   C     C_R   0.097121 0.720536 0.939445 -0.220866
C48   C     C_R   0.101463 0.284978 0.949666 -0.220135
C49   C     C_R   0.589382 0.198071 0.824444 -0.188152
C50   C     C_R   0.589882 0.803202 0.827370 -0.179138
C51   C     C_R   0.089322 0.697157 0.826062 -0.178755
C52   C     C_R   0.090409 0.306131 0.832511 -0.178309
C53   C     C_R   0.310545 0.822983 0.136221 -0.254112
C54   C     C_R   0.307063 0.173793 0.131220 -0.249957
C55   C     C_R   0.810745 0.323196 0.135874 -0.250780
C56   C     C_R   0.810106 0.676327 0.135274 -0.254184
C57   C     C_R   0.255059 0.820549 0.266277 -0.146341
C58   C     C_R   0.261909 0.184672 0.274782 -0.146762
C59   C     C_R   0.755438 0.319944 0.266003 -0.147998
C60   C     C_R   0.758036 0.681953 0.269738 -0.143909
C61   C     C_R   0.665945 0.168096 0.725524 -0.165818
C62   C     C_R   0.664460 0.831227 0.724170 -0.165370
C63   C     C_R   0.164511 0.669020 0.724025 -0.166302
C64   C     C_R   0.160054 0.328622 0.719630 -0.164924
H13   H     H_    0.363191 0.839132 0.132537 0.155211
H14   H     H_    0.355088 0.153328 0.120369 0.154861
H15   H     H_    0.863326 0.339634 0.132276 0.156061
H16   H     H_    0.861103 0.658395 0.129243 0.155348
H17   H     H_    0.732516 0.160431 0.635328 0.164725
H18   H     H_    0.729253 0.836862 0.630583 0.164751
H19   H     H_    0.229175 0.664048 0.630198 0.164472
H20   H     H_    0.213462 0.326679 0.610129 0.164414
H21   H     H_    0.337436 0.821968 0.946663 0.123340
H22   H     H_    0.323224 0.168677 0.929013 0.124105
H23   H     H_    0.840831 0.319522 0.949928 0.122506
H24   H     H_    0.837710 0.678912 0.946672 0.122757
H25   H     H_    0.526003 0.173893 0.740785 0.175389
H26   H     H_    0.526054 0.827102 0.744206 0.177885
H27   H     H_    0.025596 0.673092 0.742664 0.177527
H28   H     H_    0.026865 0.331245 0.752038 0.179099
C65   C     C_R   0.684433 0.999092 0.285986 -0.301016
C66   C     C_R   0.184430 0.500251 0.285975 -0.302925
H29   H     H_    0.704688 0.000181 0.477640 0.128250
H30   H     H_    0.204688 0.499901 0.477636 0.127724
H31   H     H_    0.721889 0.998570 0.112980 0.157155
H32   H     H_    0.221883 0.500497 0.112973 0.156477
H33   H     H_    0.756158 0.999071 0.338409 0.145439
H34   H     H_    0.256155 0.500253 0.338395 0.143897
N1    N     N_R   0.566260 1.000000 0.302220 -0.180344
N2    N     N_R   0.066260 0.500000 0.302220 -0.180144
C67   C     C_R   0.343478 0.002508 0.631474 0.529646
C68   C     C_R   0.843422 0.498642 0.631323 0.525649
C69   C     C_R   0.311646 0.000706 0.706654 -0.264465
C70   C     C_R   0.811606 0.498858 0.706546 -0.276606
C71   C     C_R   0.370735 0.998150 0.850190 -0.301710
C72   C     C_R   0.870719 0.499945 0.850161 -0.293503
C73   C     C_R   0.464162 0.998260 0.923261 -0.006915
C74   C     C_R   0.964151 0.500381 0.923250 -0.005692
C75   C     C_R   0.495269 0.998700 0.843054 0.199117
C76   C     C_R   0.995266 0.500449 0.843062 0.197994
C77   C     C_R   0.527495 0.998511 0.073080 -0.020320
C78   C     C_R   0.027487 0.500405 0.073070 -0.022550
C79   C     C_R   0.620847 0.998549 0.140237 0.163743
C80   C     C_R   0.120841 0.500444 0.140227 0.164270
C81   C     C_R   0.650310 0.998416 0.061785 -0.265383
C82   C     C_R   0.150305 0.500545 0.061780 -0.266915
C83   C     C_R   0.589208 0.998733 0.917138 -0.148000
C84   C     C_R   0.089203 0.500507 0.917140 -0.151662
C85   C     C_R   0.502527 0.999304 0.160295 0.004317
C86   C     C_R   0.002525 0.500201 0.160294 0.003721
C87   C     C_R   0.655622 0.999823 0.365268 0.062108
C88   C     C_R   0.155621 0.500022 0.365264 0.061380
N3    N     N_R   0.434410 0.000000 0.697680 -0.276836
N4    N     N_R   0.934410 0.500000 0.697680 -0.276917
H35   H     H_    0.433049 0.999481 0.118192 0.125094
H36   H     H_    0.933050 0.500218 0.118206 0.125695
H37   H     H_    0.340991 0.997069 0.900818 0.159578
H38   H     H_    0.840973 0.499994 0.900799 0.158845
H39   H     H_    0.239724 0.002215 0.652529 0.184373
H40   H     H_    0.739653 0.497963 0.652327 0.181728
H41   H     H_    0.619103 0.999591 0.867787 0.211598
H42   H     H_    0.119092 0.500199 0.867775 0.212429
N5    N     N_R   0.278003 0.010481 0.484377 0.140175
O17   O     O_R   0.238714 0.952829 0.409638 -0.404036
O18   O     O_R   0.232637 0.070429 0.437355 -0.389685
N6    N     N_R   0.777640 0.495710 0.483529 0.142462
O19   O     O_R   0.730445 0.436928 0.428710 -0.421855
O20   O     O_R   0.739169 0.555590 0.417474 -0.407616
N7    N     N_2   0.345198 0.774061 0.756657 -0.436162
H43   H     H_    0.392521 0.810989 0.828772 0.242397
C89   C     C_3   0.303347 0.796202 0.615699 -0.669508
H44   H     H_    0.355878 0.817298 0.610823 0.223122
H45   H     H_    0.253339 0.839683 0.582476 0.249201
H46   H     H_    0.269799 0.749821 0.543007 0.222595
N8    N     N_2   0.321769 0.208099 0.726595 -0.410687
H47   H     H_    0.373687 0.174528 0.800597 0.244932
C90   C     C_3   0.337668 0.246677 0.641884 -0.681227
H48   H     H_    0.378228 0.212549 0.626017 0.220211
H49   H     H_    0.375074 0.297600 0.694143 0.223060
H50   H     H_    0.272921 0.257988 0.537317 0.231758
N9    N     N_2   0.850303 0.270132 0.762706 -0.432559
H51   H     H_    0.892705 0.311462 0.827348 0.243432
C91   C     C_3   0.812940 0.281542 0.619654 -0.668329
H52   H     H_    0.863964 0.308199 0.616760 0.221975
H53   H     H_    0.752471 0.316765 0.565814 0.258076
H54   H     H_    0.794886 0.229328 0.563900 0.222159
N10   N     N_2   0.845722 0.727420 0.757527 -0.437086
H55   H     H_    0.892342 0.689965 0.828823 0.241938
C92   C     C_3   0.804454 0.706422 0.616330 -0.665464
H56   H     H_    0.857081 0.684881 0.612262 0.223199
H57   H     H_    0.772579 0.753479 0.545122 0.221362
H58   H     H_    0.753166 0.663615 0.580812 0.254215

loop_
_geom_bond_atom_site_label_1
_geom_bond_atom_site_label_2
_geom_bond_distance
_ccdc_geom_bond_type
C7    C16   1.466598 S    
C3    C64   1.482587 S    
C25   H21   1.076639 S    
C8    C15   1.466754 S    
C35   C51   1.414451 A    
Cu2   N2    2.035134 S    
C23   C27   1.397986 A    
N5    O18   1.299006 A    
C90   H48   1.108338 S    
N1    C87   1.355998 A    
C13   C53   1.398215 A    
C89   H44   1.110483 S    
O10   C6    1.299978 A    
N2    C88   1.355987 A    
C22   N8    1.433038 S    
C48   C52   1.382330 A    
C21   N7    1.426961 S    
C13   C57   1.398055 A    
H2    C58   1.076792 S    
N7    H43   1.031181 S    
C20   C64   1.403952 A    
N8    C90   1.447607 S    
C67   N5    1.425353 S    
C92   H56   1.110378 S    
O7    C3    1.298785 A    
C81   C83   1.390860 A    
C52   H28   1.076230 S    
C11   H11   1.084145 S    
Cu1   O10   1.948386 S    
C32   C36   1.415807 A    
Cu4   N4    2.023074 S    
C89   H45   1.111324 S    
C31   C37   1.423949 A    
C10   C42   1.399680 A    
C67   C69   1.393743 A    
C66   C88   1.392716 A    
C83   H41   1.065161 S    
C19   H19   1.082411 S    
H3    C59   1.074465 S    
C28   C30   1.415194 A    
O2    Cu1   1.957737 S    
C41   C45   1.387956 A    
C23   N9    1.429173 S    
C69   H39   1.083540 S    
C6    C13   1.466158 S    
N7    C89   1.446469 S    
O6    Cu3   1.948738 S    
H30   C88   1.081817 S    
C70   H40   1.083533 S    
C78   C86   1.426473 A    
Cu3   O14   1.957421 S    
C12   C58   1.388228 A    
C67   N3    1.375440 A    
C11   C57   1.388826 A    
C68   N6    1.425394 S    
C44   C48   1.386222 A    
C16   C56   1.397499 A    
C4    C63   1.480460 S    
C75   N3    1.397793 A    
C32   C38   1.425940 A    
O4    C4    1.308861 A    
O11   C7    1.300161 A    
C55   H15   1.074234 S    
C28   H24   1.076051 S    
C53   H13   1.074626 S    
C34   C62   1.423096 A    
H4    C60   1.074543 S    
C33   C61   1.422268 A    
O8    Cu4   1.948738 S    
C65   H33   1.083757 S    
N6    O20   1.296719 A    
C90   H49   1.110863 S    
C74   C78   1.440615 A    
C40   C56   1.400833 A    
C20   C22   1.402648 A    
C25   C31   1.415332 A    
C91   H54   1.109050 S    
H29   C87   1.081830 S    
N9    C91   1.447419 S    
C26   C32   1.416700 A    
C31   C35   1.416496 A    
C27   C29   1.416364 A    
C30   C34   1.416484 A    
C36   C52   1.415370 A    
O1    C1    1.308325 A    
Cu2   O12   1.948386 S    
C89   H46   1.109379 S    
C75   C83   1.407833 A    
C91   H53   1.110663 S    
C92   H57   1.109343 S    
N8    H47   1.031902 S    
Cu3   N3    2.023074 S    
C21   C25   1.397298 A    
C18   C62   1.404808 A    
C78   C80   1.413208 A    
O12   C8    1.299543 A    
C2    C61   1.479225 S    
N9    H51   1.031483 S    
C68   N4    1.375353 A    
C18   C24   1.396438 A    
C24   C28   1.396483 A    
C26   H22   1.077139 S    
H7    C47   1.081345 S    
C74   C76   1.440236 A    
C71   C73   1.401288 A    
O5    C1    1.300545 A    
C14   C54   1.400175 A    
H1    C57   1.076171 S    
C34   C50   1.414539 A    
Cu1   N1    2.035134 S    
C46   C50   1.383137 A    
C11   C43   1.400217 A    
C91   H52   1.110256 S    
C45   C49   1.383261 A    
O8    C4    1.300500 A    
N1    C85   1.368695 A    
H8    C48   1.082861 S    
C12   H12   1.084169 S    
C30   C40   1.423568 A    
C36   C64   1.424067 A    
C69   C71   1.380447 A    
C86   H36   1.075919 S    
C56   H16   1.073852 S    
O3    Cu2   1.959392 S    
C82   C84   1.390789 A    
C39   C55   1.400749 A    
C40   C42   1.418871 A    
O7    Cu4   1.951334 S    
C35   C63   1.423392 A    
C49   H25   1.075522 S    
C18   H18   1.082315 S    
Cu4   O15   1.959073 S    
O15   C7    1.303973 A    
Cu1   Cu3   2.700393 S    
C16   C60   1.397653 A    
N6    O19   1.297684 A    
C90   H50   1.109763 S    
C51   H27   1.077284 S    
O1    Cu1   1.959392 S    
N2    C86   1.368659 A    
C38   C54   1.400993 A    
C50   H26   1.077300 S    
C9    C59   1.389328 A    
C37   C53   1.400815 A    
C15   C55   1.398085 A    
C80   C82   1.393292 A    
C68   C70   1.393632 A    
C22   C26   1.399677 A    
C92   H58   1.111074 S    
C72   H38   1.077017 S    
C79   C81   1.393355 A    
O13   C5    1.304737 A    
C20   H20   1.079991 S    
C70   C72   1.380538 A    
C73   C77   1.440610 A    
C9    H9    1.084092 S    
C65   C87   1.392762 A    
C15   C59   1.397096 A    
Cu2   O11   1.950979 S    
H31   C81   1.084343 S    
O16   C8    1.304714 A    
C72   C74   1.401366 A    
C12   C44   1.400226 A    
C65   C79   1.403102 A    
C14   C58   1.396939 A    
C76   C84   1.407797 A    
H6    C46   1.081862 S    
C77   C85   1.426531 A    
Cu1   O9    1.950979 S    
C76   N4    1.397677 A    
O9    C5    1.298538 A    
C17   C23   1.397754 A    
C19   C63   1.404990 A    
C71   H37   1.077040 S    
C38   C44   1.419867 A    
C29   C39   1.424068 A    
H5    C45   1.084120 S    
C1    C62   1.479470 S    
C37   C43   1.418774 A    
Cu2   Cu4   2.700393 S    
O4    Cu2   1.957737 S    
C54   H14   1.074921 S    
C27   H23   1.076336 S    
O5    Cu3   1.951334 S    
O3    C3    1.311431 A    
O6    C2    1.300710 A    
C85   H35   1.075938 S    
C19   C21   1.397021 A    
O14   C6    1.303939 A    
N10   H55   1.031081 S    
C47   C51   1.383296 A    
C29   C33   1.415858 A    
Cu3   O13   1.959073 S    
C9    C41   1.400119 A    
Cu4   O16   1.957421 S    
C42   C46   1.386978 A    
C39   C41   1.419733 A    
N5    O17   1.297188 A    
C77   C79   1.413181 A    
C66   C80   1.403072 A    
C33   C49   1.413987 A    
C10   H10   1.084155 S    
N10   C92   1.445775 S    
C17   C61   1.404408 A    
H32   C82   1.084337 S    
C43   C47   1.386899 A    
C5    C14   1.464943 S    
C24   N10   1.426700 S    
C66   H34   1.083757 S    
C17   H17   1.081603 S    
C84   H42   1.065151 S    
C73   C75   1.440339 A    
C10   C60   1.388625 A    
O2    C2    1.307944 A    
