data_str_m3_o41_o41_f0_fof.sym.47
_audit_creation_date              2012-12-10T16:39:35-0500
_audit_creation_method            fapswitch 2.2
_symmetry_space_group_name_H-M    P1
_symmetry_Int_Tables_number       1
_space_group_crystal_system       triclinic
_cell_length_a                    16.696566
_cell_length_b                    16.696316
_cell_length_c                    16.696272
_cell_angle_alpha                 66.034734
_cell_angle_beta                  66.033325
_cell_angle_gamma                 66.034856
_cell_volume                      3720.82856274

loop_
_atom_site_label
_atom_site_type_symbol
_atom_type_description
_atom_site_fract_x
_atom_site_fract_y
_atom_site_fract_z
_atom_type_partial_charge
C1    C     C_R   0.329117 0.938520 0.462327 0.050537
C2    C     C_R   0.329149 0.462353 0.938427 0.050690
C3    C     C_R   0.547984 0.413119 0.984409 -0.002210
C4    C     C_R   0.015573 0.452015 0.586893 -0.002223
C5    C     C_R   0.984435 0.547982 0.413109 -0.002209
C6    C     C_1   0.264702 0.033855 0.808678 0.188335
C7    C     C_1   0.735354 0.966038 0.191368 0.188301
C8    C     C_1   0.033804 0.808702 0.264741 0.188388
C9    C     C_1   0.966190 0.191308 0.735224 0.188391
C10   C     C_1   0.808775 0.264855 0.033622 0.188430
C11   C     C_1   0.191350 0.735298 0.966082 0.188433
C12   C     C_1   0.190658 0.967577 0.734522 0.188686
C13   C     C_R   0.061550 0.670854 0.537658 0.050659
C14   C     C_1   0.809349 0.032432 0.265461 0.188639
C15   C     C_1   0.734476 0.190636 0.967601 0.188649
C16   C     C_1   0.265454 0.809321 0.032484 0.188636
C17   C     C_1   0.967722 0.734432 0.190587 0.188646
C18   C     C_1   0.032649 0.265364 0.809240 0.188646
C19   C     C_3   0.382048 0.150261 0.748953 -0.853837
C20   C     C_3   0.617954 0.849720 0.251045 -0.853886
C21   C     C_3   0.150259 0.748922 0.382039 -0.854064
C22   C     C_3   0.849740 0.251079 0.617961 -0.854042
C23   C     C_3   0.748915 0.382023 0.150234 -0.854159
C24   C     C_R   0.938442 0.329151 0.462345 0.050689
C25   C     C_3   0.251069 0.617964 0.849723 -0.854108
C26   C     C_3   0.251030 0.849979 0.618060 -0.853938
C27   C     C_3   0.748961 0.150006 0.381948 -0.853976
C28   C     C_3   0.618051 0.251034 0.849963 -0.853915
C29   C     C_3   0.381948 0.748969 0.150024 -0.853912
C30   C     C_3   0.850027 0.618089 0.250980 -0.853947
C31   C     C_3   0.150030 0.381930 0.748987 -0.854163
C32   C     C_R   0.460500 0.970583 0.460494 -0.024161
C33   C     C_R   0.539516 0.029380 0.539513 -0.024159
C34   C     C_R   0.970599 0.460494 0.460490 -0.024162
C35   C     C_R   0.029396 0.539511 0.539515 -0.024162
C36   C     C_R   0.460491 0.460502 0.970579 -0.024161
C37   C     C_R   0.539516 0.539523 0.029367 -0.024158
C38   C     C_R   0.961404 0.179735 0.438208 0.909320
C39   C     C_R   0.670891 0.061454 0.537680 0.050532
C40   C     C_R   0.038591 0.820266 0.561794 0.909335
C41   C     C_R   0.179733 0.438208 0.961404 0.909326
C42   C     C_R   0.820266 0.561793 0.038594 0.909332
C43   C     C_R   0.438209 0.961404 0.179732 0.909303
C44   C     C_R   0.561793 0.038590 0.820268 0.909318
C45   C     C_R   0.561798 0.820270 0.038578 0.909345
C46   C     C_R   0.438200 0.179729 0.961424 0.909360
C47   C     C_R   0.038586 0.561795 0.820271 0.909373
C48   C     C_R   0.961417 0.438203 0.179730 0.909370
C49   C     C_R   0.820270 0.038573 0.561802 0.909364
C50   C     C_R   0.938513 0.462334 0.329115 0.050539
C51   C     C_R   0.179731 0.961422 0.438200 0.909365
C52   C     C_R   0.417285 0.949511 0.417281 -0.013630
C53   C     C_R   0.582727 0.050460 0.582726 -0.013634
C54   C     C_R   0.949519 0.417282 0.417276 -0.013632
C55   C     C_R   0.050478 0.582721 0.582727 -0.013628
C56   C     C_R   0.417277 0.417284 0.949509 -0.013626
C57   C     C_R   0.582727 0.582732 0.050452 -0.013636
C58   C     C_R   0.279384 0.937548 0.410163 -0.120344
C59   C     C_R   0.720620 0.062436 0.589843 -0.120333
C60   C     C_R   0.937539 0.410168 0.279384 -0.120342
C61   C     C_R   0.061496 0.537665 0.670884 0.050547
C62   C     C_R   0.062463 0.589832 0.720619 -0.120337
C63   C     C_R   0.410160 0.279382 0.937549 -0.120358
C64   C     C_R   0.589836 0.720619 0.062451 -0.120348
C65   C     C_R   0.589830 0.062476 0.720607 -0.120372
C66   C     C_R   0.410175 0.937508 0.279395 -0.120385
C67   C     C_R   0.720606 0.589832 0.062478 -0.120340
C68   C     C_R   0.279393 0.410171 0.937514 -0.120350
C69   C     C_R   0.062477 0.720605 0.589834 -0.120357
C70   C     C_R   0.937515 0.279397 0.410171 -0.120363
C71   C     C_R   0.441869 0.073835 0.704453 0.169726
C72   C     C_R   0.462323 0.329120 0.938512 0.050534
C73   C     C_R   0.558142 0.926140 0.295549 0.169731
C74   C     C_R   0.073798 0.704472 0.441882 0.169841
C75   C     C_R   0.926194 0.295538 0.558119 0.169811
C76   C     C_R   0.704477 0.441886 0.073767 0.169868
C77   C     C_R   0.295538 0.558134 0.926167 0.169814
C78   C     C_R   0.295420 0.926460 0.558067 0.169925
C79   C     C_R   0.704588 0.073511 0.441941 0.169958
C80   C     C_R   0.558063 0.295426 0.926444 0.169922
C81   C     C_R   0.441932 0.704577 0.073540 0.169928
C82   C     C_R   0.926472 0.558073 0.295409 0.169915
C83   C     C_R   0.537675 0.670888 0.061469 0.050548
C84   C     C_R   0.073575 0.441916 0.704572 0.169953
C85   C     C_R   0.322174 0.931838 0.322173 -0.311269
C86   C     C_R   0.677831 0.068144 0.677831 -0.311283
C87   C     C_R   0.931831 0.322178 0.322175 -0.311273
C88   C     C_R   0.068161 0.677824 0.677831 -0.311275
C89   C     C_R   0.322170 0.322168 0.931847 -0.311264
C90   C     C_R   0.677825 0.677830 0.068160 -0.311276
C91   C     C_R   0.671392 0.036182 0.402583 0.014235
C92   C     C_R   0.328622 0.963779 0.597427 0.014244
C93   C     C_R   0.036270 0.402546 0.671359 0.014283
C94   C     C_R   0.537650 0.061559 0.670851 0.050719
C95   C     C_R   0.963786 0.597428 0.328622 0.014249
C96   C     C_R   0.402566 0.671377 0.036220 0.014242
C97   C     C_R   0.597429 0.328634 0.963751 0.014251
C98   C     C_R   0.597630 0.963289 0.328819 0.014325
C99   C     C_R   0.402386 0.036674 0.671187 0.014326
C100  C     C_R   0.328802 0.597611 0.963329 0.014324
C101  C     C_R   0.671218 0.402428 0.036579 0.014313
C102  C     C_R   0.963368 0.328802 0.597587 0.014311
C103  C     C_R   0.036630 0.671209 0.402411 0.014327
C104  C     C_R   0.719676 0.018415 0.316356 -0.059375
C105  C     C_R   0.462359 0.938418 0.329152 0.050729
C106  C     C_R   0.280342 0.981544 0.683654 -0.059389
C107  C     C_R   0.018548 0.316305 0.719606 -0.059379
C108  C     C_R   0.981557 0.683647 0.280344 -0.059376
C109  C     C_R   0.316330 0.719644 0.018478 -0.059377
C110  C     C_R   0.683664 0.280362 0.981491 -0.059378
C111  C     C_R   0.684089 0.980618 0.280762 -0.059233
C112  C     C_R   0.315940 0.019325 0.719254 -0.059271
C113  C     C_R   0.280734 0.684053 0.980681 -0.059295
C114  C     C_R   0.719299 0.316000 0.019201 -0.059314
C115  C     C_R   0.980744 0.280720 0.684011 -0.059279
C116  C     C_R   0.670857 0.537660 0.061537 0.050660
C117  C     C_R   0.019294 0.719274 0.315960 -0.059299
C118  C     C_R   0.548080 0.984202 0.413191 -0.002275
C119  C     C_R   0.451938 0.015762 0.586816 -0.002268
C120  C     C_R   0.984250 0.413182 0.548053 -0.002262
C121  C     C_R   0.015747 0.586825 0.451950 -0.002266
C122  C     C_R   0.413181 0.548072 0.984220 -0.002266
C123  C     C_R   0.586828 0.451959 0.015715 -0.002260
C124  C     C_R   0.586912 0.015521 0.452031 -0.002211
C125  C     C_R   0.413106 0.984439 0.547979 -0.002207
C126  C     C_R   0.452022 0.586906 0.015536 -0.002212
H1    H     H_    0.283443 0.931750 0.283438 0.198498
H2    H     H_    0.673709 0.805502 0.283448 0.224225
H3    H     H_    0.578373 0.804885 0.261119 0.217444
H4    H     H_    0.648504 0.876125 0.176563 0.269397
H5    H     H_    0.123901 0.823426 0.351564 0.269434
H6    H     H_    0.195195 0.738702 0.421574 0.217493
H7    H     H_    0.194367 0.716590 0.326215 0.224246
H8    H     H_    0.804815 0.261275 0.578425 0.217487
H9    H     H_    0.876108 0.176576 0.648443 0.269439
H10   H     H_    0.805621 0.283420 0.673776 0.224249
H11   H     H_    0.823424 0.351577 0.123883 0.269453
H12   H     H_    0.716560 0.068237 0.716566 0.198502
H13   H     H_    0.738645 0.421526 0.195219 0.217524
H14   H     H_    0.716611 0.326173 0.194289 0.224264
H15   H     H_    0.261271 0.578426 0.804800 0.217500
H16   H     H_    0.176571 0.648444 0.876094 0.269446
H17   H     H_    0.283397 0.673783 0.805604 0.224249
H18   H     H_    0.176514 0.876304 0.648515 0.269404
H19   H     H_    0.261324 0.804894 0.578645 0.217534
H20   H     H_    0.283349 0.806042 0.673922 0.224223
H21   H     H_    0.738651 0.195100 0.421360 0.217534
H22   H     H_    0.823480 0.123698 0.351499 0.269406
H23   H     H_    0.931733 0.283448 0.283445 0.198490
H24   H     H_    0.716641 0.193931 0.326085 0.224237
H25   H     H_    0.648509 0.176519 0.876292 0.269407
H26   H     H_    0.578634 0.261314 0.804884 0.217523
H27   H     H_    0.673913 0.283360 0.806018 0.224220
H28   H     H_    0.421367 0.738681 0.195103 0.217517
H29   H     H_    0.351496 0.823486 0.123696 0.269410
H30   H     H_    0.326083 0.716649 0.193969 0.224221
H31   H     H_    0.876382 0.648545 0.176472 0.269413
H32   H     H_    0.806094 0.673942 0.283300 0.224214
H33   H     H_    0.804942 0.578701 0.261227 0.217533
H34   H     H_    0.068254 0.716555 0.716562 0.198502
H35   H     H_    0.195109 0.421336 0.738683 0.217563
H36   H     H_    0.193956 0.326053 0.716704 0.224236
H37   H     H_    0.123707 0.351504 0.823495 0.269445
H38   H     H_    0.283435 0.283431 0.931768 0.198514
H39   H     H_    0.716555 0.716561 0.068257 0.198500
H40   H     H_    0.421618 0.195118 0.738859 0.217441
H41   H     H_    0.326274 0.194463 0.716568 0.224224
H42   H     H_    0.351519 0.123852 0.823442 0.269402
N1    N     N_1   0.222918 0.045487 0.879803 -0.174723
N2    N     N_1   0.224016 0.880667 0.043678 -0.174844
N3    N     N_1   0.956740 0.775769 0.119146 -0.174828
N4    N     N_1   0.043876 0.223878 0.880570 -0.174743
N5    N     N_1   0.777163 0.954354 0.120268 -0.174803
N6    N     N_1   0.045430 0.879837 0.222984 -0.174744
N7    N     N_1   0.954515 0.120195 0.776981 -0.174815
N8    N     N_1   0.879943 0.223166 0.045177 -0.174806
N9    N     N_1   0.120259 0.777075 0.954378 -0.174727
N10   N     N_1   0.119311 0.956417 0.775962 -0.174810
N11   N     N_1   0.880682 0.043640 0.223989 -0.174854
N12   N     N_1   0.775855 0.119242 0.956509 -0.174872
O1    O     O_R   0.982940 0.138950 0.510160 -0.618655
O2    O     O_R   0.982940 0.510160 0.138950 -0.618681
O3    O     O_R   0.861050 0.017060 0.489840 -0.618699
O4    O     O_R   0.138950 0.982940 0.510160 -0.618687
O5    O     O_R   0.867700 0.025880 0.612340 -0.626791
O6    O     O_R   0.132300 0.974120 0.387660 -0.626788
O7    O     O_R   0.025880 0.612340 0.867700 -0.626793
O8    O     O_R   0.974120 0.387660 0.132300 -0.626792
O9    O     O_R   0.612340 0.867700 0.025880 -0.626779
O10   O     O_R   0.387660 0.132300 0.974120 -0.626788
O11   O     O_R   0.387660 0.974120 0.132300 -0.626760
O12   O     O_R   0.017060 0.861050 0.489840 -0.618667
O13   O     O_R   0.612340 0.025880 0.867700 -0.626757
O14   O     O_R   0.132300 0.387660 0.974120 -0.626771
O15   O     O_R   0.867700 0.612340 0.025880 -0.626757
O16   O     O_R   0.974120 0.132300 0.387660 -0.626754
O17   O     O_R   0.025880 0.867700 0.612340 -0.626760
O18   O     O_R   0.138950 0.510160 0.982940 -0.618653
O19   O     O_R   0.861050 0.489840 0.017060 -0.618668
O20   O     O_R   0.510160 0.982940 0.138950 -0.618636
O21   O     O_R   0.489840 0.017060 0.861050 -0.618663
O22   O     O_R   0.489840 0.861050 0.017060 -0.618695
O23   O     O_R   0.510160 0.138950 0.982940 -0.618683
O24   O     O_R   0.017060 0.489840 0.861050 -0.618683
Zn1   Zn    Zn3+2 0.004880 0.004880 0.583590 0.975320
Zn2   Zn    Zn3+2 0.995120 0.995120 0.416410 0.975309
Zn3   Zn    Zn3+2 0.004880 0.583590 0.004880 0.975321
Zn4   Zn    Zn3+2 0.995120 0.416410 0.995120 0.975321
Zn5   Zn    Zn3+2 0.583590 0.004880 0.004880 0.975309
Zn6   Zn    Zn3+2 0.416410 0.995120 0.995120 0.975288

loop_
_geom_bond_atom_site_label_1
_geom_bond_atom_site_label_2
_ccdc_geom_bond_type
C30   H31   S    
C12   N10   T    
C38   C70   S    
C30   C82   S    
C1    C78   A    
C80   C97   A    
C4    C120  A    
C49   O5    A    
C19   C71   S    
C25   H16   S    
C64   C90   A    
C20   H3    S    
C92   C125  A    
C47   C62   S    
C31   H35   S    
C29   H28   S    
C11   C113  S    
C24   C70   A    
C65   C86   A    
C21   H6    S    
C71   C94   A    
C106  C112  A    
C98   C111  A    
C39   C53   A    
C44   O13   A    
C101  C123  A    
C38   O1    A    
C22   H8    S    
C25   C77   S    
C25   H17   S    
C23   H13   S    
C42   O19   A    
C46   O10   A    
C20   H2    S    
C27   C79   S    
C8    N6    T    
C40   O17   A    
C24   C54   A    
C5    C121  A    
C77   C100  A    
O2    Zn3   S    
C26   H20   S    
C18   C107  S    
C21   H5    S    
C102  C115  A    
C71   C99   A    
C81   C83   A    
C49   O3    A    
O17   Zn1   S    
C32   C52   A    
O24   Zn4   S    
C7    C111  S    
C45   O22   A    
C56   C72   A    
C16   C109  S    
C75   C102  A    
C57   C83   A    
C98   C118  A    
C43   O20   A    
C11   N9    T    
C19   H40   S    
C41   C68   S    
C91   C104  A    
C89   H38   S    
C79   C91   A    
C14   N11   T    
C10   C114  S    
C109  C113  A    
C29   H29   S    
O18   Zn3   S    
C4    C35   A    
C43   O11   A    
C37   C123  A    
C15   N12   T    
C10   N8    T    
C101  C114  A    
C15   C110  S    
C44   C65   S    
C103  C117  A    
C19   H41   S    
C22   C75   S    
C66   C85   A    
C26   H18   S    
C70   C87   A    
C21   H7    S    
C5    C95   A    
C60   C87   A    
C3    C123  A    
C8    C117  S    
C48   C60   S    
C57   C116  A    
C23   C76   S    
C33   C53   A    
C30   H33   S    
C31   H37   S    
O13   Zn5   S    
C40   C69   S    
O6    Zn2   S    
C35   C55   A    
C9    C115  S    
O5    Zn1   S    
C23   H14   S    
C35   C121  A    
C51   O4    A    
C95   C108  A    
C17   C108  S    
C20   H4    S    
C81   C96   A    
C86   H12   S    
C27   H22   S    
C78   C92   A    
C20   C73   S    
C62   C88   A    
C21   C74   S    
C67   C90   A    
C31   C84   S    
C22   H10   S    
C39   C79   A    
C32   C125  A    
C122  C126  A    
C26   H19   S    
O1    Zn1   S    
C67   C116  A    
C64   C83   A    
C29   C81   S    
C41   O14   A    
C36   C56   A    
C33   C124  A    
C14   C104  S    
C3    C97   A    
C73   C105  A    
C40   O12   A    
C39   C59   A    
C5    C34   A    
C63   C89   A    
C68   C89   A    
C42   O15   A    
C96   C126  A    
C51   C58   S    
C118  C124  A    
C13   C74   A    
C107  C115  A    
C69   C88   A    
C28   H25   S    
C29   H30   S    
C119  C125  A    
C92   C106  A    
C65   C94   A    
C52   C105  A    
C33   C119  A    
C27   H24   S    
C91   C124  A    
O9    Zn5   S    
C90   H39   S    
C42   C67   S    
C85   H1    S    
C19   H42   S    
C55   C61   A    
C66   C105  A    
C47   O7    A    
C103  C121  A    
C58   C85   A    
O21   Zn6   S    
C50   C54   A    
C102  C120  A    
C50   C82   A    
C37   C126  A    
C45   O9    A    
C76   C101  A    
C30   H32   S    
C110  C114  A    
O8    Zn4   S    
C82   C95   A    
O22   Zn6   S    
C53   C94   A    
O12   Zn2   S    
C108  C117  A    
C23   H11   S    
C25   H15   S    
C100  C113  A    
C32   C118  A    
C41   O18   A    
C61   C84   A    
C104  C111  A    
C17   N3    T    
C24   C75   A    
C48   O8    A    
C18   N4    T    
C12   C106  S    
O14   Zn4   S    
C96   C109  A    
C22   H9    S    
C45   C64   S    
C2    C68   A    
O20   Zn5   S    
C49   C59   S    
C46   C63   S    
C50   C60   A    
C28   H26   S    
O10   Zn6   S    
C59   C86   A    
C46   O23   A    
C72   C80   A    
C36   C122  A    
C2    C56   A    
C1    C58   A    
C93   C107  A    
C48   O2    A    
C97   C110  A    
C34   C54   A    
C28   H27   S    
C13   C69   A    
C3    C36   A    
C43   C66   S    
C99   C112  A    
C7    N5    T    
O19   Zn4   S    
C76   C116  A    
C38   O16   A    
C47   O24   A    
C9    N7    T    
C100  C122  A    
C84   C93   A    
C88   H34   S    
O16   Zn2   S    
C61   C62   A    
C28   C80   S    
C1    C52   A    
C73   C98   A    
C31   H36   S    
C26   C78   S    
O4    Zn1   S    
O11   Zn6   S    
C99   C119  A    
C4    C93   A    
C16   N2    T    
O15   Zn3   S    
C63   C72   A    
C34   C120  A    
C27   H21   S    
C87   H23   S    
O7    Zn3   S    
C51   O6    A    
O3    Zn2   S    
C2    C77   A    
O23   Zn5   S    
C6    C112  S    
C44   O21   A    
C37   C57   A    
C74   C103  A    
C13   C55   A    
C6    N1    T    
