data_str_m3_o12_o16_f0_pcu.sym.53
_audit_creation_date              2012-12-10T17:17:30-0500
_audit_creation_method            fapswitch 2.2
_symmetry_space_group_name_H-M    P1
_symmetry_Int_Tables_number       1
_space_group_crystal_system       triclinic
_cell_length_a                    10.191344
_cell_length_b                    10.663978
_cell_length_c                    12.49828
_cell_angle_alpha                 90.686158
_cell_angle_beta                  110.413712
_cell_angle_gamma                 96.064952
_cell_volume                      1264.14817758

loop_
_atom_site_label
_atom_site_type_symbol
_atom_type_description
_atom_site_fract_x
_atom_site_fract_y
_atom_site_fract_z
_atom_type_partial_charge
C1    C     C_R   0.053736 0.733646 0.495779 0.988851
C2    C     C_R   0.218317 0.540854 0.837114 -0.088892
C3    C     C_2   0.093478 0.868927 0.508706 -0.296824
C4    C     C_R   0.138343 0.522554 0.713349 0.928610
C5    C     C_2   0.035369 0.936358 0.567214 -0.197895
C6    C     C_2   0.926113 0.131069 0.527065 -0.056595
C7    C     C_2   0.043177 0.071440 0.560211 -0.191668
C8    C     C_2   0.432381 0.515276 0.505199 -0.116733
C9    C     C_2   0.567365 0.485584 0.492909 -0.124344
C10   C     C_R   0.948486 0.265976 0.508912 0.902575
C11   C     C_R   0.862177 0.477929 0.287418 0.870468
C12   C     C_R   0.413822 0.454395 0.975436 -0.143306
C13   C     C_R   0.771023 0.421257 0.972261 -0.167316
C14   C     C_R   0.781183 0.445076 0.167265 -0.100061
C15   C     C_R   0.149030 0.542203 0.917214 0.047433
C16   C     C_R   0.201189 0.474727 0.015572 -0.228764
C17   C     C_R   0.323450 0.416504 0.036420 0.395241
C18   C     C_3   0.780381 0.058171 0.505155 -0.436330
C19   C     C_3   0.653422 0.133017 0.456279 -0.321266
C20   C     C_3   0.514486 0.046513 0.422635 -0.768765
C21   C     C_3   0.021802 0.612359 0.900075 -0.406304
C22   C     C_3   0.051091 0.751408 0.876190 -0.336029
C23   C     C_R   0.361347 0.521718 0.876211 -0.099236
C24   C     C_3   0.922021 0.820639 0.858086 -0.775150
C25   C     C_R   0.557170 0.437176 0.013178 0.120909
C26   C     C_R   0.631243 0.447978 0.936183 0.103343
C27   C     C_R   0.576432 0.512390 0.836696 -0.333106
C28   C     C_R   0.453599 0.568865 0.819624 0.495696
C29   C     C_R   0.635137 0.440895 0.129551 -0.098092
C30   C     C_R   0.846713 0.420375 0.089016 -0.168910
H1    H     H_    0.957485 0.410074 0.118353 0.170425
H2    H     H_    0.584581 0.456936 0.190566 0.194750
H3    H     H_    0.142661 0.460391 0.072185 0.164341
H4    H     H_    0.146888 0.120711 0.572705 0.183137
H5    H     H_    0.507338 0.975970 0.354120 0.274740
H6    H     H_    0.505883 0.996554 0.497843 0.260436
H7    H     H_    0.424939 0.103633 0.390191 0.276042
H8    H     H_    0.653721 0.204071 0.522094 0.233970
H9    H     H_    0.658527 0.181336 0.379226 0.264462
H10   H     H_    0.766460 0.977242 0.443648 0.235989
H11   H     H_    0.778199 0.019370 0.586795 0.218206
H12   H     H_    0.966324 0.891231 0.608598 0.188998
H13   H     H_    0.832519 0.777260 0.782827 0.271687
H14   H     H_    0.890981 0.816650 0.934921 0.285766
H15   H     H_    0.946676 0.921096 0.842191 0.251856
H16   H     H_    0.141015 0.798613 0.949348 0.251736
H17   H     H_    0.079073 0.758367 0.798057 0.245069
H18   H     H_    0.928659 0.566183 0.829714 0.217988
H19   H     H_    0.993919 0.610017 0.978498 0.202117
H20   H     H_    0.405579 0.162025 0.011190 0.360180
H21   H     H_    0.303958 0.862168 0.740001 0.379475
H22   H     H_    0.164120 0.913250 0.468428 0.161888
H23   H     H_    0.566024 0.405620 0.438342 0.204095
H24   H     H_    0.433185 0.596709 0.557370 0.224768
H25   H     H_    0.684158 0.629456 0.595909 0.191781
H26   H     H_    0.316435 0.367100 0.408465 0.222132
H27   H     H_    0.643702 0.542060 0.788706 0.165795
H28   H     H_    0.824837 0.414378 0.912100 0.139279
N1    N     N_2   0.313640 0.446500 0.454900 -0.194435
N2    N     N_2   0.686360 0.553430 0.545150 -0.208140
O1    O     O_R   0.936910 0.692950 0.509080 -0.616753
O2    O     O_2   0.201785 0.207461 0.096457 -0.299224
O3    O     O_3   0.452345 0.189798 0.092892 -0.524067
O4    O     O_2   0.527448 0.807631 0.894492 -0.293213
O5    O     O_2   0.543512 0.757243 0.709159 -0.371545
O6    O     O_3   0.295577 0.770607 0.720703 -0.612826
O7    O     O_R   0.138320 0.658600 0.480130 -0.571465
O8    O     O_R   0.002900 0.525670 0.675280 -0.624266
O9    O     O_R   0.204310 0.491320 0.646330 -0.600730
O10   O     O_R   0.861680 0.341400 0.519870 -0.619898
O11   O     O_R   0.063090 0.307050 0.490920 -0.617305
O12   O     O_R   0.795690 0.508680 0.353670 -0.605761
O13   O     O_R   0.997100 0.474330 0.324720 -0.603488
O14   O     O_2   0.401629 0.324876 0.244869 -0.368817
S1    S     S_3+6 0.343372 0.282604 0.120837 -0.018965
S2    S     S_3+6 0.457973 0.729381 0.784338 -0.012406
Zn1   Zn    Zn3+2 0.865520 0.522940 0.519330 0.937649
Zn2   Zn    Zn3+2 0.134480 0.477060 0.480670 0.987011

loop_
_geom_bond_atom_site_label_1
_geom_bond_atom_site_label_2
_ccdc_geom_bond_type
C5    H12   S    
C19   C20   S    
C21   H19   S    
C12   C23   A    
C26   C27   A    
O5    S2    D    
C24   H15   S    
C29   H2    S    
C8    N1    D    
C30   H1    S    
C11   C14   S    
C15   C16   A    
C18   C19   S    
C18   H10   S    
C20   H5    S    
O1    Zn1   S    
C8    C9    S    
C12   C17   A    
O13   Zn2   S    
C21   H18   S    
C10   O11   A    
C22   H17   S    
C21   C22   S    
O10   Zn1   S    
H20   O3    S    
O9    Zn2   S    
O7    Zn2   S    
C14   C30   A    
N1    Zn2   S    
C4    O9    A    
C25   C29   A    
C6    C18   S    
N2    Zn1   S    
O14   S1    D    
C13   C30   A    
C11   O13   A    
C18   H11   S    
C8    H24   S    
C4    O8    A    
C11   O12   A    
C16   C17   A    
C13   H28   S    
C25   C26   A    
C1    C3    S    
H21   O6    S    
C2    C4    S    
O12   Zn1   S    
C19   H8    S    
C16   H3    S    
O6    S2    S    
O4    S2    D    
C23   C28   A    
C2    C15   A    
C19   H9    S    
C10   O10   A    
C22   H16   S    
C27   H27   S    
C24   H14   S    
C7    H4    S    
C22   C24   S    
O2    S1    D    
C9    H23   S    
C14   C29   A    
C28   S2    S    
C27   C28   A    
C5    C7    S    
O8    Zn1   S    
C3    C5    D    
C1    O1    A    
C6    C10   S    
C3    H22   S    
C6    C7    D    
H26   N1    S    
C12   C25   A    
C9    N2    D    
C20   H7    S    
O3    S1    S    
C1    O7    A    
C13   C26   A    
C20   H6    S    
C15   C21   S    
C2    C23   A    
C17   S1    S    
C24   H13   S    
H25   N2    S    
O11   Zn2   S    
