data_str_m3_o14_o16_f0_pcu.sym.79
_audit_creation_date              2012-12-10T17:42:44-0500
_audit_creation_method            fapswitch 2.2
_symmetry_space_group_name_H-M    P1
_symmetry_Int_Tables_number       1
_space_group_crystal_system       triclinic
_cell_length_a                    9.912749
_cell_length_b                    10.689689
_cell_length_c                    13.139075
_cell_angle_alpha                 91.836811
_cell_angle_beta                  70.21433
_cell_angle_gamma                 90.16908
_cell_volume                      1309.36016997

loop_
_atom_site_label
_atom_site_type_symbol
_atom_type_description
_atom_site_fract_x
_atom_site_fract_y
_atom_site_fract_z
_atom_type_partial_charge
C1    C     C_R   0.504277 0.739135 0.489086 0.855853
C2    C     C_R   0.364128 0.489739 0.822034 -0.130249
C3    C     C_R   0.278686 0.888515 0.432199 0.037238
C4    C     C_R   0.419397 0.500663 0.704346 0.851743
C5    C     C_R   0.142893 0.944892 0.464014 -0.168950
C6    C     C_R   0.114079 0.052226 0.530557 -0.187200
C7    C     C_R   0.225043 0.111270 0.555299 -0.164581
C8    C     C_R   0.365543 0.060057 0.516679 0.085503
C9    C     C_R   0.385097 0.938121 0.472528 0.049531
C10   C     C_R   0.508185 0.872213 0.474866 -0.132641
C11   C     C_R   0.624651 0.936159 0.487954 -0.233940
C12   C     C_R   0.423646 0.495022 0.986765 0.077615
C13   C     C_R   0.617335 0.063292 0.504258 -0.208776
C14   C     C_R   0.489090 0.126414 0.517270 -0.120832
C15   C     C_R   0.809969 0.685423 0.621705 -0.153860
C16   C     C_R   0.495202 0.260361 0.509141 0.880918
C17   C     C_R   0.858579 0.781228 0.674308 -0.230612
C18   C     C_R   0.993793 0.773412 0.682390 -0.177912
C19   C     C_R   0.084261 0.674615 0.630784 -0.142294
C20   C     C_R   0.045244 0.587439 0.563267 0.156184
C21   C     C_R   0.901983 0.589795 0.561140 0.166453
C22   C     C_R   0.954946 0.414818 0.440278 -0.140823
C23   C     C_R   0.437286 0.545347 0.885877 0.089559
C24   C     C_R   0.098364 0.415413 0.439710 -0.112304
C25   C     C_R   0.580203 0.500315 0.295618 0.877512
C26   C     C_R   0.735985 0.653927 0.031275 -0.224225
C27   C     C_R   0.628502 0.516170 0.178724 -0.090532
C28   C     C_R   0.251898 0.406726 0.868235 -0.244502
C29   C     C_R   0.220898 0.371843 0.975061 0.065707
C30   C     C_R   0.309261 0.411731 0.032940 -0.240871
C31   C     C_3   0.864131 0.631264 0.163390 -0.405957
C32   C     C_3   0.837251 0.757672 0.225234 -0.314698
C33   C     C_3   0.955348 0.787742 0.271984 -0.858813
C34   C     C_R   0.526465 0.529882 0.035546 0.097403
C35   C     C_1   0.312017 0.795285 0.345017 0.172616
C36   C     C_1   0.103020 0.289302 0.023465 0.132941
C37   C     C_R   0.626775 0.624790 0.989773 0.143277
C38   C     C_R   0.616285 0.690586 0.903339 -0.215190
C39   C     C_R   0.523247 0.650629 0.850919 -0.206104
C40   C     C_R   0.533000 0.473858 0.128128 -0.254223
C41   C     C_R   0.740884 0.597870 0.124550 0.089750
H1    H     H_    0.059216 0.905741 0.437458 0.142493
H2    H     H_    0.681440 0.772048 0.876333 0.147658
H3    H     H_    0.173996 0.346362 0.390399 0.151418
H4    H     H_    0.816519 0.722113 0.991849 0.139121
H5    H     H_    0.458090 0.402464 0.167478 0.145568
H6    H     H_    0.192180 0.365808 0.820075 0.156148
H7    H     H_    0.284215 0.378781 0.113981 0.134828
H8    H     H_    0.516325 0.703036 0.783891 0.127634
H9    H     H_    0.721111 0.888096 0.487115 0.177744
H10   H     H_    0.955138 0.718987 0.333699 0.266481
H11   H     H_    0.061833 0.786071 0.206888 0.267632
H12   H     H_    0.007508 0.093171 0.558460 0.145165
H13   H     H_    0.936286 0.882797 0.310799 0.237194
H14   H     H_    0.832785 0.832861 0.169899 0.217718
H15   H     H_    0.732856 0.756357 0.292025 0.230535
H16   H     H_    0.885497 0.556733 0.212744 0.230844
H17   H     H_    0.964219 0.636668 0.092125 0.197340
H18   H     H_    0.199271 0.195663 0.605944 0.162172
H19   H     H_    0.712199 0.111727 0.507230 0.167070
H20   H     H_    0.922850 0.345325 0.391483 0.149242
H21   H     H_    0.699562 0.687605 0.632567 0.203458
H22   H     H_    0.788144 0.858593 0.713738 0.145127
H23   H     H_    0.028133 0.843219 0.729755 0.152748
H24   H     H_    0.183209 0.668746 0.645753 0.200391
N1    N     N_R   0.856860 0.501200 0.500990 -0.118462
N2    N     N_R   0.142450 0.501280 0.501020 -0.121273
N3    N     N_1   0.337719 0.721788 0.274362 -0.195251
N4    N     N_1   0.008209 0.223139 0.062453 -0.218776
O1    O     O_R   0.385310 0.683220 0.500000 -0.629761
O2    O     O_R   0.614640 0.683250 0.500010 -0.646063
O3    O     O_R   0.328400 0.499950 0.653610 -0.638966
O4    O     O_R   0.557730 0.499970 0.653620 -0.608348
O5    O     O_R   0.385360 0.316750 0.499990 -0.626745
O6    O     O_R   0.614690 0.316780 0.500000 -0.613843
O7    O     O_R   0.442270 0.500030 0.346380 -0.593010
O8    O     O_R   0.671600 0.500050 0.346390 -0.616363
Zn1   Zn    Zn3+2 0.346880 0.499980 0.499990 0.932325
Zn2   Zn    Zn3+2 0.653120 0.500020 0.500010 0.929096

loop_
_geom_bond_atom_site_label_1
_geom_bond_atom_site_label_2
_ccdc_geom_bond_type
C5    H1    S    
C28   H6    S    
C21   N1    A    
O1    Zn1   S    
C34   C37   A    
C20   N2    A    
C19   C20   A    
O2    Zn2   S    
C7    C8    A    
C13   H19   S    
C33   H11   S    
C40   H5    S    
N1    Zn2   S    
C29   C36   S    
C1    O2    A    
C25   O8    A    
C31   H17   S    
C30   H7    S    
C28   C29   A    
C37   C38   A    
O7    Zn1   S    
C5    C6    A    
C16   O6    A    
C18   C19   A    
C22   N1    A    
O3    Zn1   S    
C24   N2    A    
C8    C9    A    
C14   C16   S    
C9    C10   A    
C32   H14   S    
C26   H4    S    
C13   C14   A    
N2    Zn1   S    
C7    H18   S    
O8    Zn2   S    
C2    C4    S    
C29   C30   A    
C3    C9    A    
C27   C41   A    
C31   C32   S    
C12   C23   A    
C3    C35   S    
C27   C40   A    
C17   C18   A    
O4    Zn2   S    
C4    O4    A    
C39   H8    S    
C24   H3    S    
C34   C40   A    
C25   C27   S    
C6    H12   S    
C12   C34   A    
C4    O3    A    
C36   N4    T    
C33   H13   S    
C15   C17   A    
C8    C14   A    
C31   C41   S    
C12   C30   A    
C1    C10   S    
C3    C5    A    
C26   C37   A    
C6    C7    A    
C16   O5    A    
C33   H10   S    
C1    O1    A    
C25   O7    A    
C32   C33   S    
C31   H16   S    
C38   H2    S    
C11   H9    S    
C17   H22   S    
C22   H20   S    
C11   C13   A    
C18   H23   S    
C38   C39   A    
C35   N3    T    
C23   C39   A    
C15   H21   S    
C19   H24   S    
C22   C24   A    
C10   C11   A    
C15   C21   A    
C20   C21   A    
O5    Zn1   S    
C2    C23   A    
C2    C28   A    
O6    Zn2   S    
C32   H15   S    
C26   C41   A    
