data_str_m2_o14_o22_f0_pcu.sym.68
_audit_creation_date              2012-12-10T17:21:41-0500
_audit_creation_method            fapswitch 2.2
_symmetry_space_group_name_H-M    P1
_symmetry_Int_Tables_number       1
_space_group_crystal_system       triclinic
_cell_length_a                    10.753318
_cell_length_b                    10.778473
_cell_length_c                    9.603873
_cell_angle_alpha                 89.872934
_cell_angle_beta                  89.537924
_cell_angle_gamma                 93.086647
_cell_volume                      1111.47569101

loop_
_atom_site_label
_atom_site_type_symbol
_atom_type_description
_atom_site_fract_x
_atom_site_fract_y
_atom_site_fract_z
_atom_type_partial_charge
C1    C     C_R   0.496554 0.262543 0.500155 0.790593
C2    C     C_R   0.391817 0.059121 0.569821 0.090179
C3    C     C_R   0.489264 0.128248 0.500233 -0.100607
C4    C     C_R   0.259793 0.499942 0.500957 0.747264
C5    C     C_R   0.581558 0.068744 0.427153 -0.192079
C6    C     C_R   0.581813 0.940633 0.426813 -0.208785
C7    C     C_R   0.489848 0.870397 0.499694 -0.085476
C8    C     C_R   0.664779 0.666976 0.142393 -0.147781
C9    C     C_R   0.745506 0.748749 0.069462 -0.208717
C10   C     C_R   0.745300 0.749222 0.925908 -0.197784
C11   C     C_R   0.664364 0.667919 0.854398 -0.141335
C12   C     C_3   0.877955 0.504945 0.500203 0.134245
C13   C     C_R   0.580121 0.583133 0.924373 0.210320
C14   C     C_R   0.580351 0.582771 0.073940 0.213834
C15   C     C_R   0.425736 0.419170 0.074766 -0.044366
C16   C     C_R   0.497739 0.737122 0.499865 0.758941
C17   C     C_R   0.427011 0.418255 0.926982 -0.023549
C18   C     C_R   0.740040 0.503613 0.499708 0.740340
C19   C     C_3   0.069110 0.523411 0.653798 0.028622
C20   C     C_3   0.927945 0.536932 0.647947 -0.376106
C21   C     C_3   0.079197 0.607763 0.407698 -0.411430
C22   C     C_3   0.063850 0.376575 0.446781 -0.366969
C23   C     C_3   0.935623 0.604092 0.398246 -0.404021
C24   C     C_3   0.121450 0.501143 0.503402 0.107080
C25   C     C_3   0.920465 0.375285 0.456389 -0.362490
C26   C     C_R   0.291950 0.116969 0.635059 -0.187884
C27   C     C_R   0.195303 0.046226 0.699515 -0.120271
C28   C     C_R   0.195821 0.917263 0.699572 -0.153068
C29   C     C_R   0.292894 0.858261 0.635026 -0.182099
C30   C     C_R   0.392202 0.927986 0.569653 0.108668
Cu1   Cu    Cu3+1 0.499990 0.499990 0.640660 0.939476
Cu2   Cu    Cu3+1 0.500010 0.500010 0.359340 0.932913
H1    H     H_    0.113291 0.610807 0.696399 0.127840
H2    H     H_    0.655640 0.896009 0.371862 0.131496
H3    H     H_    0.364765 0.352824 0.130536 0.146552
H4    H     H_    0.673523 0.673088 0.252133 0.188801
H5    H     H_    0.809197 0.811768 0.125076 0.144713
H6    H     H_    0.808919 0.812577 0.869177 0.143514
H7    H     H_    0.673130 0.674797 0.744505 0.191564
H8    H     H_    0.369231 0.349544 0.872601 0.167375
H9    H     H_    0.880150 0.476044 0.727557 0.216863
H10   H     H_    0.906856 0.634047 0.674969 0.133868
H11   H     H_    0.113982 0.699222 0.449623 0.156218
H12   H     H_    0.880225 0.348078 0.353760 0.169568
H13   H     H_    0.901678 0.697274 0.423352 0.141466
H14   H     H_    0.092576 0.364590 0.336201 0.178941
H15   H     H_    0.097973 0.296499 0.505683 0.172404
H16   H     H_    0.886128 0.304200 0.533849 0.174244
H17   H     H_    0.118762 0.599404 0.300898 0.200632
H18   H     H_    0.907071 0.581485 0.289680 0.195398
H19   H     H_    0.655187 0.122001 0.372402 0.145448
H20   H     H_    0.286316 0.216706 0.634513 0.157243
H21   H     H_    0.118899 0.091412 0.748348 0.166648
H22   H     H_    0.120011 0.862642 0.748476 0.130188
H23   H     H_    0.287820 0.757993 0.634705 0.142923
I1    I     I_    0.103463 0.380245 0.805345 -0.524552
N1    N     N_R   0.501200 0.501210 0.147910 -0.204254
N2    N     N_R   0.501250 0.501290 0.852040 -0.201470
O1    O     O_R   0.499990 0.319640 0.618810 -0.573171
O2    O     O_R   0.500000 0.319660 0.381240 -0.574357
O3    O     O_R   0.317680 0.499970 0.618790 -0.564941
O4    O     O_R   0.317700 0.499990 0.381210 -0.580612
O5    O     O_R   0.500000 0.680340 0.618760 -0.597979
O6    O     O_R   0.500010 0.680360 0.381190 -0.588129
O7    O     O_R   0.682300 0.500010 0.618790 -0.601626
O8    O     O_R   0.682320 0.500030 0.381210 -0.600476

loop_
_geom_bond_atom_site_label_1
_geom_bond_atom_site_label_2
_ccdc_geom_bond_type
C19   I1    S    
C20   H10   S    
C27   H21   S    
C6    C7    A    
C23   H13   S    
C16   O5    A    
C26   H20   S    
C18   O8    A    
C11   C13   A    
C9    C10   A    
Cu1   O3    S    
Cu1   Cu2   S    
C25   H16   S    
C2    C30   A    
C12   C25   S    
C10   H6    S    
C4    O4    A    
C12   C20   S    
C19   C20   S    
C9    H5    S    
C22   H15   S    
Cu2   O4    S    
C2    C26   A    
C7    C30   A    
C18   O7    A    
C13   C14   A    
C17   N2    A    
C11   H7    S    
C15   N1    A    
C12   C23   S    
Cu2   O6    S    
C26   C27   A    
C29   C30   A    
Cu2   N1    S    
C8    C14   A    
Cu1   N2    S    
C21   H17   S    
C7    C16   S    
C22   H14   S    
C16   O6    A    
C20   H9    S    
C2    C3    A    
C1    O1    A    
C21   C23   S    
C8    H4    S    
C5    C6    A    
C4    C24   S    
C22   C24   S    
C21   C24   S    
C15   H3    S    
C10   C11   A    
Cu2   O2    S    
Cu1   O1    S    
Cu1   O5    S    
C25   H12   S    
Cu2   O8    S    
C19   H1    S    
C1    O2    A    
C12   C18   S    
C27   C28   A    
C15   C17   A    
C14   N1    A    
Cu1   O7    S    
C28   C29   A    
C23   H18   S    
C28   H22   S    
C13   N2    A    
C29   H23   S    
C3    C5    A    
C21   H11   S    
C19   C24   S    
C4    O3    A    
C22   C25   S    
C5    H19   S    
C6    H2    S    
C8    C9    A    
C1    C3    S    
C17   H8    S    
