data_str_m2_o4_o16_f0_pcu.sym.198
_audit_creation_date              2012-12-10T19:00:14-0500
_audit_creation_method            fapswitch 2.2
_symmetry_space_group_name_H-M    P1
_symmetry_Int_Tables_number       1
_space_group_crystal_system       triclinic
_cell_length_a                    9.556645
_cell_length_b                    10.852447
_cell_length_c                    13.42679
_cell_angle_alpha                 90.501605
_cell_angle_beta                  72.912412
_cell_angle_gamma                 90.778058
_cell_volume                      1330.9221927

loop_
_atom_site_label
_atom_site_type_symbol
_atom_type_description
_atom_site_fract_x
_atom_site_fract_y
_atom_site_fract_z
_atom_type_partial_charge
C1    C     C_R   0.499887 0.737408 0.502343 0.795583
C2    C     C_R   0.433687 0.511932 0.979541 0.091965
C3    C     C_R   0.465492 0.545581 0.873625 0.091309
C4    C     C_R   0.541771 0.534106 0.031771 0.066115
C5    C     C_R   0.674426 0.598073 0.980331 0.088803
C6    C     C_R   0.688957 0.648949 0.882072 -0.210655
C7    C     C_R   0.585994 0.623636 0.830120 -0.225940
C8    C     C_R   0.521711 0.493314 0.133625 -0.218802
C9    C     C_R   0.755556 0.578025 0.135286 -0.251175
C10   C     C_R   0.373391 0.503084 0.814713 -0.102378
C11   C     C_R   0.374015 0.933345 0.505452 0.085606
C12   C     C_R   0.421607 0.504101 0.700062 0.780140
C13   C     C_R   0.496686 0.870164 0.511897 -0.072741
C14   C     C_R   0.613394 0.937364 0.530333 -0.202948
C15   C     C_R   0.612636 0.066144 0.529079 -0.195847
C16   C     C_R   0.495927 0.128716 0.508326 -0.052055
C17   C     C_R   0.374461 0.059810 0.501382 0.043944
C18   C     C_3   0.285741 0.057365 0.425302 -0.205276
C19   C     C_3   0.285769 0.917472 0.431275 -0.458610
C20   C     C_R   0.961918 0.471519 0.411498 0.249876
C21   C     C_R   0.892155 0.540480 0.583938 -0.073289
C22   C     C_R   0.040537 0.540437 0.584063 -0.076241
C23   C     C_R   0.499055 0.262221 0.500893 0.849692
C24   C     C_R   0.109432 0.471511 0.411465 0.248756
C25   C     C_3   0.134318 0.351773 0.354670 -0.466006
C26   C     C_3   0.976688 0.353186 0.352937 -0.466376
C27   C     C_R   0.578282 0.502634 0.300079 0.848882
C28   C     C_R   0.785263 0.614214 0.031057 -0.010538
C29   C     C_R   0.622457 0.521144 0.187116 -0.074513
C30   C     C_R   0.238563 0.446947 0.865541 -0.129830
C31   C     C_R   0.197896 0.428353 0.972294 -0.125127
C32   C     C_R   0.294614 0.458179 0.028740 -0.179537
Cu1   Cu    Cu3+1 0.359330 0.500020 0.500010 0.958739
Cu2   Cu    Cu3+1 0.640670 0.499980 0.499990 0.951110
H1    H     H_    0.835542 0.595576 0.176757 0.190340
H2    H     H_    0.705848 0.116011 0.540268 0.159253
H3    H     H_    0.174232 0.094174 0.460361 0.124197
H4    H     H_    0.175710 0.877240 0.469812 0.194600
H5    H     H_    0.347522 0.869867 0.358062 0.205052
H6    H     H_    0.810219 0.571869 0.652506 0.152565
H7    H     H_    0.067843 0.571735 0.652781 0.177334
H8    H     H_    0.214105 0.358411 0.276367 0.190405
H9    H     H_    0.156054 0.278886 0.404447 0.204880
H10   H     H_    0.965563 0.365525 0.273506 0.198309
H11   H     H_    0.778439 0.710327 0.844485 0.178754
H12   H     H_    0.908819 0.277475 0.398913 0.219703
H13   H     H_    0.426916 0.440578 0.174552 0.143015
H14   H     H_    0.165153 0.415371 0.822413 0.165378
H15   H     H_    0.255379 0.440460 0.110909 0.124192
H16   H     H_    0.092367 0.387066 0.011182 0.146603
H17   H     H_    0.600159 0.668177 0.756023 0.152586
H18   H     H_    0.707279 0.891045 0.541534 0.161700
N1    N     N_R   0.852320 0.499070 0.499340 -0.189425
N2    N     N_R   0.148230 0.499110 0.499340 -0.193966
O1    O     O_R   0.381190 0.680360 0.500000 -0.576181
O2    O     O_R   0.618780 0.680320 0.499990 -0.589407
O3    O     O_R   0.323230 0.500000 0.650990 -0.582936
O4    O     O_R   0.560820 0.499960 0.650980 -0.590087
O5    O     O_R   0.381220 0.319680 0.500010 -0.582327
O6    O     O_R   0.618810 0.319640 0.500000 -0.586114
O7    O     O_R   0.439180 0.500040 0.349020 -0.580252
O8    O     O_R   0.676770 0.500000 0.349010 -0.582789
C33   C     C_2   0.360526 0.103548 0.316369 0.872900
O9    O     O_2   0.480904 0.153856 0.294717 -0.610625
O10   O     O_R   0.289167 0.088280 0.239897 -0.752964
H19   H     H_    0.347615 0.123543 0.170169 0.329980
C34   C     C_2   0.933579 0.665952 0.978815 0.818542
O11   O     O_2   0.992137 0.647784 0.885969 -0.635910
O12   O     O_R   0.009956 0.730286 0.037547 -0.753273
H20   H     H_    0.111194 0.757831 0.994213 0.343330

loop_
_geom_bond_atom_site_label_1
_geom_bond_atom_site_label_2
_ccdc_geom_bond_type
C25   H8    S    
Cu1   O1    S    
C2    C4    A    
C34   O11   D    
C33   O10   S    
Cu2   O2    S    
C6    C7    A    
C27   O8    A    
C27   C29   S    
C5    C28   A    
C10   C30   A    
C3    C7    A    
C31   C32   A    
C17   C18   S    
C9    C29   A    
C30   C31   A    
C4    C8    A    
C12   O4    A    
C25   H9    S    
C2    C3    A    
C23   O5    A    
C8    H13   S    
C7    H17   S    
Cu1   O5    S    
C3    C10   A    
C13   C14   A    
Cu2   O6    S    
C11   C13   A    
C11   C19   S    
O12   H20   S    
C21   H6    S    
C19   H5    S    
C5    C6    A    
C8    C29   A    
C21   N1    A    
C2    C32   A    
C30   H14   S    
C19   H4    S    
C18   H3    S    
Cu1   Cu2   S    
C16   C23   S    
C10   C12   S    
C22   N2    A    
C1    O1    A    
C23   O6    A    
C32   H15   S    
Cu2   O4    S    
C14   H18   S    
C18   C33   S    
C22   H7    S    
C1    C13   S    
C12   O3    A    
C31   H16   S    
C26   H10   S    
C33   O9    D    
C16   C17   A    
C20   C24   A    
C15   H2    S    
Cu2   O8    S    
C28   C34   S    
C18   C19   S    
C24   C25   S    
Cu2   N1    S    
Cu1   O7    S    
O10   H19   S    
Cu1   N2    S    
C9    H1    S    
C26   H12   S    
C14   C15   A    
C4    C5    A    
Cu1   O3    S    
C27   O7    A    
C25   C26   S    
C21   C22   A    
C24   N2    A    
C6    H11   S    
C1    O2    A    
C11   C17   A    
C15   C16   A    
C9    C28   A    
C20   C26   S    
C20   N1    A    
C34   O12   S    
