data_str_m12_o9_o13_f0_bcu.sym.59
_audit_creation_date              2012-12-11T17:43:38-0500
_audit_creation_method            fapswitch 2.2
_symmetry_space_group_name_H-M    P1
_symmetry_Int_Tables_number       1
_space_group_crystal_system       triclinic
_cell_length_a                    15.061459
_cell_length_b                    15.214234
_cell_length_c                    16.927994
_cell_angle_alpha                 108.70978
_cell_angle_beta                  106.141048
_cell_angle_gamma                 109.460412
_cell_volume                      3125.94172746

loop_
_atom_site_label
_atom_site_type_symbol
_atom_type_description
_atom_site_fract_x
_atom_site_fract_y
_atom_site_fract_z
_atom_type_partial_charge
C1    C     C_R   0.086626 0.290017 0.078002 -0.160965
C2    C     C_R   0.077478 0.085178 0.032702 -0.248221
C3    C     C_R   0.000753 0.919359 0.031401 0.068806
C4    C     C_R   0.001732 0.107015 0.053542 0.053592
C5    C     C_R   0.076658 0.991135 0.019135 0.021224
C6    C     C_R   0.924755 0.035639 0.065266 0.051916
C7    C     C_R   0.735231 0.994442 0.031029 0.237166
C8    C     C_R   0.255627 0.014743 0.029828 0.214805
C9    C     C_R   0.699984 0.112587 0.139641 -0.111923
C10   C     C_R   0.268809 0.923915 0.888976 -0.170197
C11   C     C_R   0.493123 0.595653 0.273140 -0.108448
C12   C     C_R   0.909466 0.722343 0.961875 -0.139499
C13   C     C_R   0.508008 0.309349 0.647715 -0.109436
C14   C     C_R   0.481655 0.569350 0.182611 -0.129901
C15   C     C_R   0.496332 0.321256 0.729028 -0.137617
C16   C     C_R   0.935791 0.514804 0.744585 -0.135591
C17   C     C_R   0.064569 0.549664 0.264806 -0.123826
C18   C     C_R   0.451798 0.465817 0.122073 0.114584
C19   C     C_R   0.473284 0.400579 0.773317 0.115356
C20   C     C_R   0.434495 0.389344 0.153493 -0.193340
C21   C     C_R   0.460541 0.466499 0.733763 -0.170692
C22   C     C_R   0.444547 0.415812 0.243719 -0.129694
C23   C     C_R   0.027400 0.571094 0.741251 0.074740
C24   C     C_R   0.471926 0.454013 0.652218 -0.102994
C25   C     C_R   0.473934 0.518965 0.303549 -0.087195
C26   C     C_R   0.495867 0.375703 0.609364 -0.096068
C27   C     C_R   0.523108 0.420008 0.013269 -0.230459
C28   C     C_R   0.381371 0.429342 0.873696 -0.241094
C29   C     C_R   0.537886 0.416245 0.934861 0.058567
C30   C     C_R   0.373530 0.443945 0.957018 0.067859
C31   C     C_R   0.464471 0.415528 0.861502 0.023533
C32   C     C_R   0.444998 0.438522 0.027485 0.015825
C33   C     C_R   0.664489 0.022867 0.058147 -0.202622
C34   C     C_R   0.972519 0.536379 0.273909 0.057222
C35   C     C_R   0.315974 0.991178 0.983622 -0.129064
C36   C     C_R   0.964613 0.581615 0.360664 0.123998
C37   C     C_R   0.036414 0.607591 0.672353 0.124121
C38   C     C_R   0.141820 0.677532 0.601277 -0.228911
C39   C     C_R   0.861193 0.563708 0.446693 -0.202267
C40   C     C_R   0.777491 0.203889 0.812596 -0.133678
C41   C     C_R   0.278690 0.785411 0.177223 -0.142641
C42   C     C_R   0.134494 0.655623 0.673282 -0.200254
C43   C     C_R   0.867032 0.550960 0.363466 -0.170310
C44   C     C_R   0.946411 0.588267 0.601472 -0.277603
C45   C     C_R   0.761374 0.198473 0.726006 0.108853
C46   C     C_R   0.055941 0.640771 0.443457 -0.270717
C47   C     C_R   0.952449 0.602553 0.525775 0.181301
C48   C     C_R   0.050771 0.645054 0.524900 0.188169
C49   C     C_R   0.721039 0.103640 0.640042 0.024136
C50   C     C_R   0.442529 0.859098 0.324171 0.028475
C51   C     C_R   0.589578 0.031392 0.393290 0.766946
C52   C     C_R   0.616207 0.915529 0.556058 0.762308
C53   C     C_R   0.496852 0.950546 0.318965 -0.340015
C54   C     C_R   0.686113 0.005052 0.638654 -0.335088
C55   C     C_R   0.488465 0.844231 0.399645 -0.238908
C56   C     C_R   0.334514 0.783924 0.256494 0.118778
C57   C     C_R   0.701567 0.109880 0.556620 -0.202587
C58   C     C_R   0.579423 0.925244 0.475262 -0.091652
C59   C     C_R   0.627016 0.021790 0.474110 -0.097935
C60   C     C_R   0.806588 0.175349 0.195705 -0.076578
C61   C     C_R   0.161158 0.878581 0.838869 -0.106097
C62   C     C_R   0.878190 0.148399 0.170781 -0.189598
C63   C     C_R   0.099646 0.897806 0.883242 -0.140946
C64   C     C_R   0.263866 0.538350 0.953307 -0.138563
C65   C     C_R   0.699070 0.402260 0.994050 -0.155788
C66   C     C_R   0.844225 0.058385 0.088901 0.056523
C67   C     C_R   0.292242 0.466214 0.971117 0.048167
C68   C     C_R   0.145516 0.965643 0.978130 0.017401
C69   C     C_R   0.782645 0.298340 0.734822 -0.141482
C70   C     C_R   0.273553 0.690728 0.253686 -0.151693
C71   C     C_R   0.247540 0.436393 0.024628 -0.105949
C72   C     C_R   0.704545 0.500586 0.920801 -0.123277
C73   C     C_R   0.108881 0.598585 0.822000 -0.134891
C74   C     C_R   0.890422 0.464974 0.187397 -0.129972
C75   C     C_R   0.913815 0.203976 0.999247 -0.134014
C76   C     C_R   0.084312 0.805946 0.042752 -0.110271
C77   C     C_R   0.999384 0.198512 0.048469 0.069271
C78   C     C_R   0.640928 0.434725 0.944082 0.057116
C79   C     C_R   0.996969 0.819796 0.017025 0.054648
C80   C     C_3   0.691433 0.897821 0.939979 -0.400732
C81   C     C_3   0.711252 0.925728 0.865426 -0.882615
C82   C     C_3   0.305182 0.090801 0.132379 -0.416280
C83   C     C_3   0.422729 0.131837 0.183978 -0.894218
C84   C     C_R   0.927793 0.942885 0.057172 -0.237246
F1    F     F_    0.636321 0.122276 0.389477 -0.725092
F2    F     F_    0.575664 0.822008 0.557338 -0.729909
H1    H     H_    0.165038 0.315378 0.126465 0.103987
H2    H     H_    0.443684 0.528714 0.766826 0.110208
H3    H     H_    0.430316 0.356610 0.267485 0.124467
H4    H     H_    0.462733 0.505476 0.622497 0.121903
H5    H     H_    0.580650 0.422323 0.070339 0.130008
H6    H     H_    0.323552 0.430009 0.819159 0.133126
H7    H     H_    0.131946 0.670956 0.443684 0.122374
H8    H     H_    0.870408 0.553521 0.600336 0.123637
H9    H     H_    0.795045 0.509904 0.301136 0.121305
H10   H     H_    0.205597 0.673048 0.727505 0.121328
H11   H     H_    0.217760 0.710591 0.601436 0.138327
H12   H     H_    0.829529 0.705543 0.926509 0.101175
H13   H     H_    0.785203 0.532917 0.446871 0.135965
H14   H     H_    0.857284 0.493726 0.700112 0.093511
H15   H     H_    0.143608 0.598815 0.317373 0.099870
H16   H     H_    0.581195 0.976064 0.015506 0.112348
H17   H     H_    0.399861 0.025460 0.019260 0.125327
H18   H     H_    0.733874 0.184729 0.556403 0.179515
H19   H     H_    0.449078 0.773780 0.404361 0.175508
H20   H     H_    0.705202 0.996998 0.701524 0.156993
H21   H     H_    0.465202 0.962911 0.260296 0.147785
H22   H     H_    0.644571 0.133655 0.159173 0.132104
H23   H     H_    0.482666 0.539674 0.373678 0.126974
H24   H     H_    0.316137 0.908022 0.854115 0.121796
H25   H     H_    0.833887 0.245142 0.258673 0.132095
H26   H     H_    0.125143 0.829938 0.765107 0.140345
H27   H     H_    0.960756 0.198206 0.215414 0.129714
H28   H     H_    0.016059 0.862191 0.842995 0.127490
H29   H     H_    0.767936 0.141192 0.831267 0.097163
H30   H     H_    0.308063 0.837815 0.149685 0.094557
H31   H     H_    0.287720 0.579254 0.915259 0.097606
H32   H     H_    0.670846 0.341307 0.013963 0.096916
H33   H     H_    0.777193 0.323191 0.681584 0.102870
H34   H     H_    0.505009 0.366446 0.546440 0.111253
H35   H     H_    0.297673 0.655329 0.295874 0.095435
H36   H     H_    0.251587 0.379898 0.048905 0.109335
H37   H     H_    0.682178 0.533956 0.875903 0.106351
H38   H     H_    0.189336 0.655879 0.849491 0.090305
H39   H     H_    0.808014 0.436414 0.168666 0.094752
H40   H     H_    0.832815 0.150388 0.974529 0.114890
H41   H     H_    0.164738 0.864769 0.083443 0.099141
H42   H     H_    0.872979 0.888425 0.070033 0.125175
H43   H     H_    0.132673 0.138109 0.018772 0.133953
H44   H     H_    0.678022 0.978533 0.855340 0.247162
H45   H     H_    0.518118 0.675718 0.319996 0.134100
H46   H     H_    0.795904 0.963974 0.883887 0.258989
H47   H     H_    0.672838 0.853170 0.799056 0.270753
H48   H     H_    0.723539 0.844193 0.949047 0.187853
H49   H     H_    0.605601 0.851980 0.913842 0.187163
H50   H     H_    0.441189 0.065813 0.177750 0.260318
H51   H     H_    0.465940 0.179736 0.156753 0.247599
H52   H     H_    0.449190 0.182368 0.258424 0.268830
H53   H     H_    0.290711 0.159376 0.140266 0.194344
H54   H     H_    0.266570 0.051623 0.167435 0.197867
H55   H     H_    0.526575 0.248705 0.614491 0.121614
H56   H     H_    0.497139 0.629571 0.159970 0.116154
H57   H     H_    0.505727 0.268935 0.757664 0.115953
H58   H     H_    0.412507 0.309386 0.107819 0.125961
N1    N     N_R   0.055660 0.348550 0.045620 -0.037622
N2    N     N_R   0.185200 0.638170 0.176300 -0.040387
N3    N     N_R   0.201680 0.494570 0.045620 -0.042167
N4    N     N_R   0.798320 0.505430 0.954380 -0.040186
N5    N     N_R   0.068420 0.560530 0.871650 -0.038528
N6    N     N_R   0.931580 0.439470 0.128350 -0.039529
N7    N     N_R   0.948070 0.295860 0.997670 -0.039901
N8    N     N_R   0.051930 0.704140 0.002330 -0.041631
N9    N     N_R   0.944340 0.651450 0.954380 -0.040617
N10   N     N_R   0.960830 0.507850 0.823700 -0.039945
N11   N     N_R   0.039170 0.492150 0.176300 -0.041260
N12   N     N_R   0.811290 0.303410 0.871650 -0.043379
N13   N     N_R   0.188710 0.696590 0.128350 -0.042112
N14   N     N_R   0.205200 0.552990 0.997670 -0.041236
N15   N     N_R   0.794800 0.447010 0.002330 -0.038180
N16   N     N_R   0.814800 0.361830 0.823700 -0.041070
Ni1   Ni    Ni4+2 0.119340 0.493420 0.109960 0.218126
Ni2   Ni    Ni4+2 0.880660 0.506580 0.890040 0.216947
Ni3   Ni    Ni4+2 0.872590 0.372590 0.000000 0.214912
Ni4   Ni    Ni4+2 0.127410 0.627410 0.000000 0.215437

loop_
_geom_bond_atom_site_label_1
_geom_bond_atom_site_label_2
_ccdc_geom_bond_type
C84   H42   S    
C71   N3    A    
C14   H56   S    
C1    H1    S    
C27   C29   A    
C1    C77   A    
C20   H58   S    
C71   H36   S    
C1    N1    A    
C76   C79   A    
C12   N9    A    
C65   N15   A    
C19   C31   S    
C51   F1    S    
C80   H48   S    
N2    N13   A    
N11   Ni1   S    
C9    H22   S    
C15   C19   A    
N6    Ni3   S    
C80   H49   S    
C55   H19   S    
C42   H10   S    
C19   C21   A    
C24   C26   A    
C38   C42   A    
C35   H17   S    
C5    C68   S    
C11   C14   A    
C57   C59   A    
C40   H29   S    
C76   N8    A    
C49   C54   A    
C12   C79   A    
C69   N16   A    
C49   C57   A    
C60   C62   A    
C37   C42   A    
C61   C63   A    
C17   H15   S    
C82   H54   S    
C63   H28   S    
C29   C78   S    
N12   Ni3   S    
C75   N7    A    
C22   C25   A    
C43   H9    S    
C65   H32   S    
C27   H5    S    
C10   C35   A    
C70   N2    A    
N15   Ni3   S    
C13   H55   S    
C18   C20   A    
C30   C67   S    
C44   C47   A    
N14   Ni4   S    
C21   H2    S    
C3    C79   S    
C9    C33   A    
C7    C33   A    
C23   C73   A    
C38   H11   S    
C52   C54   A    
C40   C45   A    
N2    Ni1   S    
C46   C48   A    
C50   C53   A    
C6    C84   A    
C54   H20   S    
C45   C69   A    
C33   H16   S    
C64   C67   A    
N12   N16   A    
C62   H27   S    
C4    C6    A    
N3    Ni1   S    
C62   C66   A    
C16   H14   S    
C81   H46   S    
C39   C43   A    
C3    C84   A    
C58   C59   A    
C23   C37   S    
C69   H33   S    
C50   C56   S    
C64   H31   S    
C24   H4    S    
C51   C53   A    
N4    N15   A    
N16   Ni2   S    
C2    C4    A    
N5    N10   A    
C41   C56   A    
C82   H53   S    
C53   H21   S    
C39   H13   S    
C47   C48   A    
C45   C49   S    
C73   H38   S    
C28   H6    S    
N5    Ni4   S    
N1    N7    A    
C36   C46   A    
C75   C77   A    
N13   Ni4   S    
C83   H50   S    
N8    Ni4   S    
C52   C58   A    
C34   C74   A    
C41   N13   A    
C20   C22   A    
C8    C68   A    
C16   C23   A    
N7    Ni3   S    
N6    N11   A    
C13   C15   A    
C72   H37   S    
C16   N10   A    
C15   H57   S    
C13   C26   A    
C21   C24   A    
C10   C61   A    
C18   C32   S    
C17   C34   A    
C41   H30   S    
C64   N14   A    
C17   N11   A    
C83   H51   S    
C39   C47   A    
C57   H18   S    
C63   C68   A    
C65   C78   A    
C73   N5    A    
C27   C32   A    
C38   C48   A    
C14   C18   A    
N10   Ni2   S    
C28   C31   A    
C74   N6    A    
C8    C82   S    
C26   H34   S    
C80   C81   S    
C3    C5    A    
C11   H45   S    
C81   H47   S    
C25   H23   S    
C56   C70   A    
C50   C55   A    
N9    Ni2   S    
C75   H40   S    
N4    Ni2   S    
C9    C60   A    
C37   C44   A    
C28   C30   A    
C4    C77   S    
C29   C31   A    
C60   H25   S    
C72   N4    A    
C7    C66   A    
C30   C32   A    
N3    N14   A    
C70   H35   S    
C81   H44   S    
C46   H7    S    
N1    Ni1   S    
C52   F2    S    
C22   H3    S    
C2    H43   S    
C10   H24   S    
C67   C71   A    
C74   H39   S    
C44   H8    S    
C2    C5    A    
C6    C66   S    
C51   C59   A    
N8    N9    A    
C34   C36   S    
C82   C83   S    
C55   C58   A    
C72   C78   A    
C12   H12   S    
C76   H41   S    
C11   C25   A    
C40   N12   A    
C36   C43   A    
C61   H26   S    
C8    C35   A    
C83   H52   S    
C7    C80   S    
