data_str_m9_o16_o16_f0_sra.sym.58
_audit_creation_date              2012-12-11T15:06:41-0500
_audit_creation_method            fapswitch 2.2
_symmetry_space_group_name_H-M    P1
_symmetry_Int_Tables_number       1
_space_group_crystal_system       triclinic
_cell_length_a                    7.237977
_cell_length_b                    14.804076
_cell_length_c                    22.484972
_cell_angle_alpha                 90.001015
_cell_angle_beta                  89.998626
_cell_angle_gamma                 88.980647
_cell_volume                      2408.91857293

loop_
_atom_site_label
_atom_site_type_symbol
_atom_type_description
_atom_site_fract_x
_atom_site_fract_y
_atom_site_fract_z
_atom_type_partial_charge
O1    O     O_R   0.390810 0.844810 0.447340 -0.521766
O2    O     O_R   0.109190 0.155190 0.947340 -0.521737
O3    O     O_R   0.890810 0.655190 0.552660 -0.522643
O4    O     O_R   0.609190 0.344810 0.052660 -0.522755
O5    O     O_R   0.720550 0.655820 0.440420 -0.539051
O6    O     O_R   0.779450 0.344180 0.940420 -0.539150
O7    O     O_R   0.220550 0.844180 0.559580 -0.531748
O8    O     O_R   0.279450 0.155820 0.059580 -0.531725
C1    C     C_R   0.553638 0.626054 0.426490 0.739375
C2    C     C_R   0.946363 0.373946 0.926490 0.739069
C3    C     C_R   0.050827 0.873791 0.573504 0.740352
C4    C     C_R   0.449170 0.126211 0.073505 0.740350
O9    O     O_R   0.720530 0.844130 0.440420 -0.531984
O10   O     O_R   0.779470 0.155870 0.940420 -0.532000
O11   O     O_R   0.220530 0.655870 0.559580 -0.532397
O12   O     O_R   0.279470 0.344130 0.059580 -0.532371
O13   O     O_R   0.890830 0.844810 0.552660 -0.538975
O14   O     O_R   0.609170 0.155190 0.052660 -0.538988
O15   O     O_R   0.390830 0.655190 0.447340 -0.531759
O16   O     O_R   0.109170 0.344810 0.947340 -0.531688
C5    C     C_R   0.550851 0.873585 0.426354 0.672520
C6    C     C_R   0.949152 0.126415 0.926354 0.672556
C7    C     C_R   0.053552 0.626615 0.573901 0.670718
C8    C     C_R   0.446447 0.373385 0.073903 0.670728
O17   O     O_3   0.557310 0.749980 0.536820 -0.374925
O18   O     O_3   0.942690 0.250020 0.036820 -0.374963
O19   O     O_3   0.057310 0.750020 0.463180 -0.373879
O20   O     O_3   0.442690 0.249980 0.963180 -0.373859
V1    V     V_3+5 0.832160 0.749980 0.493170 1.492475
V2    V     V_3+5 0.667840 0.250020 0.993170 1.492315
V3    V     V_3+5 0.332160 0.750020 0.506830 1.502522
V4    V     V_3+5 0.167840 0.249980 0.006830 1.502581
C9    C     C_R   0.862425 0.605491 0.858826 -0.208139
C10   C     C_R   0.637425 0.394487 0.358832 -0.208221
C11   C     C_R   0.532091 0.890804 0.135106 -0.207693
C12   C     C_R   0.967686 0.109178 0.635105 -0.207723
H1    H     H_    0.832494 0.724891 0.771701 0.127363
H2    H     H_    0.667619 0.275135 0.271683 0.127362
H3    H     H_    0.599744 0.769108 0.218750 0.128109
H4    H     H_    0.899964 0.230865 0.718752 0.128100
H5    H     H_    0.811263 0.671962 0.871724 0.152649
H6    H     H_    0.688483 0.327999 0.371714 0.152911
H7    H     H_    0.558220 0.822474 0.119424 0.153666
H8    H     H_    0.941445 0.177496 0.619424 0.153629
C13   C     C_R   0.947351 0.451065 0.884632 -0.107396
C14   C     C_R   0.552654 0.548921 0.384641 -0.107462
C15   C     C_R   0.463778 0.048874 0.114896 -0.105642
C16   C     C_R   0.036202 0.951131 0.614892 -0.105648
C17   C     C_R   0.121258 0.467527 0.598123 -0.120156
C18   C     C_R   0.378601 0.532451 0.098144 -0.120518
C19   C     C_R   0.504656 0.035790 0.406650 -0.101429
C20   C     C_R   0.995511 0.964220 0.906648 -0.101374
C21   C     C_R   0.142309 0.396132 0.637800 -0.121575
C22   C     C_R   0.357511 0.603837 0.137828 -0.121539
C23   C     C_R   0.472188 0.108778 0.368963 -0.114975
C24   C     C_R   0.028037 0.891238 0.868959 -0.115006
C25   C     C_R   0.098250 0.407284 0.697696 -0.172730
C26   C     C_R   0.401652 0.592695 0.197717 -0.172685
C27   C     C_R   0.468019 0.096742 0.307504 -0.174816
C28   C     C_R   0.032136 0.903269 0.807500 -0.174792
C29   C     C_R   0.026854 0.490480 0.719513 0.084898
C30   C     C_R   0.473173 0.509519 0.219519 0.084910
C31   C     C_R   0.500525 0.010703 0.281737 0.084141
C32   C     C_R   0.999511 0.989302 0.781735 0.084132
C33   C     C_R   0.003184 0.563470 0.678154 0.069945
C34   C     C_R   0.496877 0.436539 0.178152 0.070012
C35   C     C_R   0.536480 0.936053 0.320871 0.067097
C36   C     C_R   0.963484 0.063944 0.820870 0.067085
C37   C     C_R   0.980317 0.503960 0.781014 0.087631
C38   C     C_R   0.519740 0.496040 0.281016 0.087681
C39   C     C_R   0.497284 0.996117 0.218601 0.088808
C40   C     C_R   0.002707 0.003886 0.718598 0.088811
C41   C     C_R   0.910414 0.589668 0.799249 0.120742
C42   C     C_R   0.589600 0.410335 0.299247 0.120660
C43   C     C_R   0.532628 0.907779 0.196476 0.119065
C44   C     C_R   0.967229 0.092211 0.696476 0.119081
C45   C     C_R   0.887627 0.659641 0.757947 -0.199106
C46   C     C_R   0.612466 0.340378 0.257935 -0.199186
C47   C     C_R   0.569800 0.836320 0.235616 -0.196568
C48   C     C_R   0.929997 0.163662 0.735617 -0.196591
C49   C     C_R   0.934072 0.647112 0.698553 -0.195878
C50   C     C_R   0.566062 0.352913 0.198540 -0.195899
C51   C     C_R   0.570432 0.849888 0.296716 -0.193034
C52   C     C_R   0.929419 0.150098 0.796717 -0.193058
C53   C     C_R   0.998160 0.435378 0.825024 -0.240159
C54   C     C_R   0.501956 0.564621 0.325027 -0.240236
C55   C     C_R   0.462558 0.065953 0.176482 -0.240672
C56   C     C_R   0.037512 0.934062 0.676478 -0.240694
C57   C     C_R   0.879803 0.537480 0.901968 -0.022594
C58   C     C_R   0.619985 0.462477 0.401993 -0.022738
C59   C     C_R   0.498436 0.960081 0.093761 -0.024445
C60   C     C_R   0.001384 0.039907 0.593758 -0.024438
C61   C     C_R   0.052819 0.551497 0.617358 -0.070061
C62   C     C_R   0.447169 0.448502 0.117363 -0.070120
C63   C     C_R   0.536071 0.949203 0.383545 -0.075353
C64   C     C_R   0.963952 0.050797 0.883544 -0.075400
H9    H     H_    0.045953 0.368028 0.814201 0.101336
H10   H     H_    0.454289 0.631983 0.314200 0.101290
H11   H     H_    0.438372 0.135022 0.189917 0.098335
H12   H     H_    0.061815 0.865004 0.689912 0.098349
H13   H     H_    0.161175 0.457598 0.552087 0.133668
H14   H     H_    0.338608 0.542369 0.052115 0.133936
H15   H     H_    0.502631 0.046670 0.454319 0.130712
H16   H     H_    0.997602 0.953345 0.954317 0.130717
H17   H     H_    0.123710 0.349633 0.725842 0.113944
H18   H     H_    0.376111 0.650331 0.225872 0.113932
H19   H     H_    0.437732 0.156146 0.281467 0.115088
H20   H     H_    0.062461 0.843868 0.781463 0.115096
H21   H     H_    0.196482 0.331735 0.622178 0.133695
H22   H     H_    0.303231 0.668217 0.122218 0.133735
H23   H     H_    0.447128 0.175322 0.387603 0.133411
H24   H     H_    0.053200 0.824701 0.887599 0.133329
H25   H     H_    0.914505 0.703743 0.668622 0.110719
H26   H     H_    0.585676 0.296292 0.168603 0.110764
H27   H     H_    0.599418 0.792139 0.324964 0.102576
H28   H     H_    0.900388 0.207843 0.824967 0.102632
C65   C     C_2   0.826355 0.559575 0.964466 0.729125
O21   O     O_2   0.885942 0.514382 0.006003 -0.562924
O22   O     O_R   0.709639 0.633899 0.975960 -0.662959
H29   H     H_    0.683692 0.642388 0.019948 0.308723
C66   C     C_2   0.672981 0.440297 0.464529 0.728637
O23   O     O_2   0.614306 0.485877 0.506035 -0.562861
O24   O     O_R   0.788028 0.365396 0.476106 -0.662957
H30   H     H_    0.813723 0.356903 0.520110 0.308901
C67   C     C_2   0.502414 0.936901 0.029151 0.721371
O25   O     O_2   0.429307 0.986794 0.992372 -0.562715
O26   O     O_R   0.588298 0.856428 0.010328 -0.663518
H31   H     H_    0.582300 0.847961 0.965619 0.309360
C68   C     C_2   0.997268 0.063071 0.529146 0.721375
O27   O     O_2   0.070350 0.013185 0.492355 -0.562688
O28   O     O_R   0.911262 0.143515 0.510336 -0.663505
H32   H     H_    0.917149 0.151965 0.465624 0.309431

loop_
_geom_bond_atom_site_label_1
_geom_bond_atom_site_label_2
_ccdc_geom_bond_type
O17   V3    S    
C25   H17   S    
C26   C30   A    
C23   C27   A    
O19   V1    S    
O13   V1    S    
O3    C7    A    
C10   H6    S    
C48   C52   A    
O15   V3    S    
O24   H30   S    
C11   C59   A    
O1    C5    A    
C11   C43   A    
O5    C1    A    
C18   C22   A    
C32   C36   A    
O9    V1    S    
C9    C57   A    
C65   O22   S    
C17   H13   S    
O4    C8    A    
C19   H15   S    
O1    V3    S    
C30   C38   A    
O2    V4    S    
O3    V1    S    
C12   C44   A    
C1    O15   A    
C20   H16   S    
C2    O16   A    
C19   C63   A    
C38   C42   A    
C16   C56   A    
C37   C41   A    
O14   V2    S    
C11   H7    S    
O5    V1    S    
C28   H20   S    
C40   C44   A    
C34   C62   A    
C12   C60   A    
O11   C7    A    
C1    C14   S    
O12   C8    A    
C35   C63   A    
C3    C16   S    
C15   C59   A    
O10   V2    S    
C4    C15   S    
C40   C56   A    
O16   V4    S    
C55   H11   S    
C31   C35   A    
C39   C43   A    
O7    V3    S    
C30   C34   A    
O8    V4    S    
C51   H27   S    
C50   H26   S    
C21   C25   A    
O18   V4    S    
C18   C62   A    
H2    C46   S    
H1    C45   S    
C27   H19   S    
C7    C61   S    
C26   H18   S    
C22   H22   S    
C36   C52   A    
O7    C3    A    
C10   C58   A    
O2    C6    A    
C8    C62   S    
C34   C50   A    
C46   C50   A    
C33   C49   A    
C45   C49   A    
O8    C4    A    
C2    C13   S    
H4    C48   S    
O9    C5    A    
C36   C64   A    
C35   C51   A    
C68   O28   S    
C25   C29   A    
C66   O23   D    
C56   H12   S    
C10   C42   A    
C39   C55   A    
C9    C41   A    
O6    V2    S    
C31   C39   A    
C18   H14   S    
C16   C60   A    
C67   O25   D    
C58   C66   S    
C12   H8    S    
C4    O14   A    
O26   H31   S    
C38   C54   A    
C37   C53   A    
C68   O27   D    
C22   C26   A    
C29   C37   A    
C3    O13   A    
C13   C57   A    
C59   C67   S    
C23   H23   S    
C6    C64   S    
C44   C48   A    
C57   C65   S    
O6    C2    A    
O22   H29   S    
O11   V3    S    
C14   C58   A    
O12   V4    S    
C5    C63   S    
C27   C31   A    
C13   C53   A    
C28   C32   A    
C9    H5    S    
O10   C6    A    
O20   V2    S    
C60   C68   S    
C65   O21   D    
C47   C51   A    
C17   C21   A    
C33   C61   A    
C20   C64   A    
C19   C23   A    
C32   C40   A    
O28   H32   S    
C54   H10   S    
C66   O24   S    
C53   H9    S    
C29   C33   A    
C24   C28   A    
C52   H28   S    
C42   C46   A    
C49   H25   S    
C67   O26   S    
C41   C45   A    
C21   H21   S    
C17   C61   A    
C43   C47   A    
C24   H24   S    
O4    V2    S    
C20   C24   A    
H3    C47   S    
C14   C54   A    
C15   C55   A    
