data_str_m9_o16_o24_f0_sra.sym.23
_audit_creation_date              2012-12-11T15:13:42-0500
_audit_creation_method            fapswitch 2.2
_symmetry_space_group_name_H-M    P1
_symmetry_Int_Tables_number       1
_space_group_crystal_system       triclinic
_cell_length_a                    6.943517
_cell_length_b                    13.491898
_cell_length_c                    20.106963
_cell_angle_alpha                 104.092038
_cell_angle_beta                  89.967014
_cell_angle_gamma                 90.574718
_cell_volume                      1826.86292065

loop_
_atom_site_label
_atom_site_type_symbol
_atom_type_description
_atom_site_fract_x
_atom_site_fract_y
_atom_site_fract_z
_atom_type_partial_charge
O1    O     O_R   0.506780 0.600060 0.449950 -0.532022
O2    O     O_R   0.179840 0.597110 0.589410 -0.543632
O3    O     O_R   0.004570 0.399940 0.550050 -0.539097
C1    C     C_R   0.348483 0.619080 0.616846 0.690701
O4    O     O_R   0.177380 0.612160 0.452890 -0.542579
O5    O     O_R   0.002100 0.415100 0.412560 -0.543784
C2    C     C_R   0.346850 0.638869 0.436244 0.706894
O6    O     O_R   0.509250 0.584900 0.587440 -0.542409
O7    O     O_3   0.337570 0.435330 0.486930 -0.372224
V1    V     V_3+5 0.064650 0.512000 0.502430 1.423742
O8    O     O_R   0.672090 0.402890 0.410590 -0.535950
C3    C     C_R   0.840716 0.381103 0.383097 0.723303
O9    O     O_R   0.674540 0.387840 0.547110 -0.544278
C4    C     C_R   0.843159 0.360868 0.563561 0.689055
V2    V     V_3+5 0.564040 0.488000 0.497570 1.436169
O10   O     O_3   0.840990 0.564670 0.513070 -0.372175
C5    C     C_R   0.916536 0.109896 0.608477 -0.174561
H1    H     H_    0.906686 0.159077 0.514801 0.101153
H2    H     H_    0.958355 0.986280 0.691454 0.115629
H3    H     H_    0.946515 0.031515 0.582011 0.109289
C6    C     C_R   0.853599 0.283329 0.602963 -0.030369
C7    C     C_R   0.827504 0.318054 0.932718 -0.169876
C8    C     C_R   0.810679 0.394271 0.897544 -0.112901
C9    C     C_R   0.823004 0.370710 0.826257 -0.157467
C10   C     C_R   0.854676 0.269123 0.788009 0.074452
C11   C     C_R   0.876916 0.191729 0.824633 0.058117
C12   C     C_R   0.865117 0.241757 0.714811 0.072306
C13   C     C_R   0.903651 0.138673 0.680288 0.117356
C14   C     C_R   0.929052 0.064905 0.717491 -0.186375
C15   C     C_R   0.914092 0.090565 0.788398 -0.126979
C16   C     C_R   0.838931 0.313024 0.674411 -0.214527
C17   C     C_R   0.892904 0.182021 0.570097 -0.173720
C18   C     C_R   0.860607 0.217154 0.897032 -0.070777
H4    H     H_    0.809331 0.392437 0.696615 0.093349
H5    H     H_    0.814621 0.337778 0.988104 0.091454
H6    H     H_    0.808095 0.434054 0.802904 0.103453
H7    H     H_    0.786833 0.472385 0.925734 0.118669
H8    H     H_    0.932758 0.030076 0.814611 0.124780
C19   C     C_3   0.675867 0.230179 0.225386 -0.194647
C20   C     C_3   0.754564 0.204071 0.291312 -0.203798
H9    H     H_    0.671483 0.167630 0.326252 0.112059
H10   H     H_    0.527188 0.214691 0.204925 0.114571
C21   C     C_3   0.850578 0.310654 0.312640 -0.069419
C22   C     C_3   0.775170 0.335705 0.247226 0.525755
C23   C     C_3   0.961244 0.295179 0.208770 -0.212492
C24   C     C_3   0.037437 0.268645 0.274815 -0.175602
C25   C     C_3   0.941260 0.161274 0.252660 -0.115201
C26   C     C_3   0.863677 0.188615 0.187572 -0.061525
H11   H     H_    0.045666 0.332628 0.174624 0.103435
H12   H     H_    0.185861 0.284115 0.295538 0.133776
H13   H     H_    0.010576 0.088067 0.254225 0.118023
C27   C     C_3   0.534287 0.748789 0.722548 -0.196331
C28   C     C_3   0.405143 0.842859 0.746732 0.508631
H14   H     H_    0.680032 0.748591 0.699763 0.114390
C29   C     C_3   0.356444 0.810572 0.812731 -0.068142
C30   C     C_3   0.483221 0.715179 0.789074 -0.191298
C31   C     C_3   0.305199 0.654797 0.753035 -0.115091
C32   C     C_3   0.178529 0.750965 0.777486 -0.168312
C33   C     C_3   0.227036 0.784601 0.710829 -0.212752
C34   C     C_3   0.355394 0.689334 0.687348 -0.061492
H15   H     H_    0.587090 0.686669 0.821873 0.116626
H16   H     H_    0.264052 0.575849 0.755041 0.110150
H17   H     H_    0.033028 0.751781 0.800541 0.129399
H18   H     H_    0.121583 0.812330 0.678214 0.099972
C35   C     C_R   0.433362 0.888813 0.390501 -0.162337
H19   H     H_    0.431743 0.839191 0.484070 0.095999
H20   H     H_    0.478889 0.011554 0.307015 0.115344
H21   H     H_    0.473279 0.966452 0.416504 0.110920
C36   C     C_R   0.359343 0.716234 0.396741 -0.035484
C37   C     C_R   0.296262 0.682793 0.067314 0.461914
C38   C     C_R   0.255265 0.609859 0.104128 -0.208439
C39   C     C_R   0.273114 0.633785 0.175229 -0.256805
C40   C     C_R   0.334560 0.732142 0.212210 0.090443
C41   C     C_R   0.371194 0.807623 0.174868 0.004463
C42   C     C_R   0.357140 0.758673 0.285097 0.087184
C43   C     C_R   0.409512 0.860657 0.319003 0.139290
C44   C     C_R   0.439894 0.933701 0.281417 -0.207845
C45   C     C_R   0.422676 0.907697 0.210561 -0.179225
C46   C     C_R   0.332800 0.687252 0.325658 -0.189348
C47   C     C_R   0.409420 0.816804 0.429079 -0.182150
C48   C     C_R   0.350817 0.782241 0.102522 -0.181211
H22   H     H_    0.299094 0.607882 0.303647 0.113191
H23   H     H_    0.234907 0.573662 0.199668 0.139182
H24   H     H_    0.205918 0.534243 0.077395 0.133363
H25   H     H_    0.449763 0.967297 0.184037 0.119577
O11   O     O_R   0.203580 0.914920 0.912610 -0.540862
O12   O     O_R   0.535710 0.887810 0.047120 -0.549214
O13   O     O_R   0.710730 0.084950 0.087430 -0.546416
C49   C     C_R   0.365981 0.860940 0.063660 0.752751
O14   O     O_R   0.533010 0.902850 0.910600 -0.541240
O15   O     O_R   0.708010 0.100090 0.949930 -0.533036
C50   C     C_R   0.364226 0.880912 0.883179 0.749959
O16   O     O_R   0.206300 0.899780 0.050100 -0.532628
O17   O     O_3   0.375170 0.064580 0.013100 -0.377518
V3    V     V_3+5 0.648200 0.988020 0.997570 1.437820
O18   O     O_R   0.038030 0.112330 0.952840 -0.543543
C51   C     C_R   0.869562 0.139026 0.936288 0.685449
O19   O     O_R   0.040730 0.097300 0.089360 -0.545424
C52   C     C_R   0.872335 0.118738 0.116959 0.689326
V4    V     V_3+5 0.148780 0.012220 0.002360 1.442280
O20   O     O_3   0.871930 0.935430 0.986900 -0.368692
O21   O     O_3   0.691189 0.430826 0.248332 -0.558313
C53   C     C_3   0.627263 0.431176 0.181929 -0.280422
H26   H     H_    0.498846 0.380618 0.167570 0.132245
H27   H     H_    0.742711 0.409168 0.142858 0.122875
H28   H     H_    0.584818 0.509998 0.181801 0.182197
O22   O     O_3   0.456904 0.944689 0.747907 -0.557599
C54   C     C_3   0.475690 0.955177 0.680193 -0.253415
H29   H     H_    0.336679 0.940173 0.651966 0.121598
H30   H     H_    0.590170 0.904768 0.652048 0.119913
H31   H     H_    0.517737 0.035302 0.682044 0.183935
O23   O     O_3   0.264376 0.659901 0.997302 -0.557754
C55   C     C_3   0.423426 0.605121 0.964114 -0.292442
H32   H     H_    0.437065 0.530035 0.977321 0.142772
H33   H     H_    0.559430 0.650373 0.976380 0.135647
H34   H     H_    0.400731 0.589709 0.907894 0.166871

loop_
_geom_bond_atom_site_label_1
_geom_bond_atom_site_label_2
_ccdc_geom_bond_type
C20   C25   S    
C29   C30   S    
C30   H15   S    
C40   C41   A    
H20   C44   S    
C21   C22   S    
C28   C33   S    
O14   V3    S    
C44   C45   A    
C27   C28   S    
C7    H5    S    
C6    C16   A    
C33   H18   S    
C9    H6    S    
C35   C43   A    
C4    C6    S    
C13   C14   A    
C55   H32   S    
C3    C21   S    
O5    C3    A    
V2    O10   S    
C5    H3    S    
C30   C31   S    
C15   H8    S    
C26   C52   S    
C37   C48   A    
C27   C34   S    
O8    V2    S    
C20   C21   S    
O12   V3    S    
C8    C9    A    
C37   C38   A    
O1    V2    S    
O17   V4    S    
O11   V4    S    
O7    V1    S    
C1    O6    A    
C55   H34   S    
C48   C49   S    
O13   V3    S    
C33   C34   S    
C35   C47   A    
O9    C4    A    
C49   O16   A    
C40   C42   A    
O17   V3    S    
O23   C55   S    
C27   H14   S    
C19   H10   S    
C28   C29   S    
C6    C17   A    
C12   C16   A    
O13   C52   A    
C31   H16   S    
C9    C10   A    
C19   C20   S    
O4    C2    A    
C22   O21   S    
C31   C34   S    
C25   H13   S    
C32   C33   S    
C8    H7    S    
O15   C51   A    
O2    C1    A    
C42   C43   A    
C2    C36   S    
C14   C15   A    
C28   O22   S    
C11   C18   A    
O14   C50   A    
C25   C26   S    
C23   H11   S    
O22   C54   S    
C35   H21   S    
O18   C51   A    
C1    C34   S    
C16   H4    S    
C53   H27   S    
C43   C44   A    
O16   V4    S    
O3    C4    A    
C37   O23   S    
C45   H25   S    
C20   H9    S    
C29   C50   S    
C11   C15   A    
O6    V2    S    
O19   V4    S    
O12   C49   A    
C36   C46   A    
H1    C17   S    
C41   C48   A    
O2    V1    S    
C12   C13   A    
C22   C23   S    
C38   H24   S    
C23   C26   S    
C32   H17   S    
C7    C18   A    
C24   C25   S    
O1    C2    A    
C5    C13   A    
C39   C40   A    
O5    V1    S    
C46   H22   S    
O8    C3    A    
C19   C22   S    
C10   C12   A    
H19   C47   S    
C24   H12   S    
V3    O20   S    
C54   H31   S    
O9    V2    S    
C10   C11   A    
O4    V1    S    
O3    V1    S    
O11   C50   A    
C31   C32   S    
O18   V4    S    
V4    O20   S    
C54   H30   S    
C53   H28   S    
C18   C51   S    
O7    V2    S    
O21   C53   S    
C21   C24   S    
C39   H23   S    
O15   V3    S    
C23   C24   S    
C38   C39   A    
O19   C52   A    
C41   C45   A    
C29   C32   S    
C53   H26   S    
C5    C17   A    
C7    C8    A    
C36   C47   A    
V1    O10   S    
C54   H29   S    
C42   C46   A    
C27   C30   S    
C19   C26   S    
C55   H33   S    
H2    C14   S    
