data_str_m4_o17_o17_f0_acs.sym.87
_audit_creation_date              2012-12-11T14:30:21-0500
_audit_creation_method            fapswitch 2.2
_symmetry_space_group_name_H-M    P1
_symmetry_Int_Tables_number       1
_space_group_crystal_system       triclinic
_cell_length_a                    12.716692
_cell_length_b                    12.716688
_cell_length_c                    27.089383
_cell_angle_alpha                 90.043519
_cell_angle_beta                  90.043649
_cell_angle_gamma                 120.069962
_cell_volume                      3791.14860366

loop_
_atom_site_label
_atom_site_type_symbol
_atom_type_description
_atom_site_fract_x
_atom_site_fract_y
_atom_site_fract_z
_atom_type_partial_charge
C1    C     C_R   0.559504 0.456648 0.822467 0.542739
C2    C     C_R   0.455484 0.558442 0.177746 0.542965
C3    C     C_R   0.045071 0.326735 0.478320 0.024796
C4    C     C_R   0.332298 0.045359 0.030543 0.018067
C5    C     C_R   0.671977 0.721793 0.478756 0.023079
C6    C     C_R   0.287560 0.956208 0.530302 0.017613
C7    C     C_R   0.956851 0.282344 0.978102 0.024296
C8    C     C_R   0.675834 0.712792 0.530980 0.021446
C9    C     C_R   0.326731 0.045064 0.978319 0.024797
C10   C     C_R   0.045366 0.332303 0.530544 0.018068
C11   C     C_R   0.721793 0.671978 0.978755 0.023079
C12   C     C_3   0.916400 0.174057 0.061153 -0.408658
C13   C     C_R   0.440429 0.896890 0.322464 0.543254
C14   C     C_3   0.174401 0.951354 0.451648 -0.415606
C15   C     C_3   0.821621 0.771171 0.060270 -0.409461
C16   C     C_3   0.050785 0.224516 0.451787 -0.415490
C17   C     C_3   0.258799 0.085219 0.061473 -0.408378
C18   C     C_3   0.757822 0.839326 0.452009 -0.408206
C19   C     C_3   0.174056 0.916394 0.561153 -0.408662
C20   C     C_3   0.951367 0.174407 0.951648 -0.415606
C21   C     C_3   0.771176 0.821614 0.560271 -0.409468
C22   C     C_3   0.224508 0.050769 0.951785 -0.415482
C23   C     C_3   0.085230 0.258808 0.561474 -0.408389
C24   C     C_R   0.103675 0.544623 0.177557 0.543888
C25   C     C_3   0.839323 0.757827 0.952008 -0.408207
C26   C     C_R   0.003939 0.494161 0.973631 0.047066
C27   C     C_R   0.504194 0.018754 0.525068 0.047341
C28   C     C_R   0.507584 0.510431 0.973984 0.046263
C29   C     C_R   0.982945 0.486242 0.525229 0.047407
C30   C     C_R   0.491682 0.998396 0.973827 0.046749
C31   C     C_R   0.516072 0.497311 0.525386 0.045063
C32   C     C_R   0.494161 0.003937 0.473631 0.047066
C33   C     C_R   0.896341 0.440953 0.677582 0.543768
C34   C     C_R   0.018755 0.504194 0.025068 0.047341
C35   C     C_R   0.510433 0.507583 0.473983 0.046264
C36   C     C_R   0.486242 0.982945 0.025229 0.047407
C37   C     C_R   0.998396 0.491681 0.473827 0.046749
C38   C     C_R   0.497313 0.516069 0.025387 0.045061
C39   C     C_R   0.069487 0.709286 0.968261 -0.128675
C40   C     C_R   0.720261 0.086752 0.519217 -0.130795
C41   C     C_R   0.292232 0.359740 0.968401 -0.128777
C42   C     C_R   0.913738 0.632873 0.519255 -0.131651
C43   C     C_R   0.640812 0.932259 0.968405 -0.129383
C44   C     C_R   0.543707 0.103453 0.822518 0.543318
C45   C     C_R   0.368112 0.280748 0.519088 -0.129734
C46   C     C_R   0.709287 0.069490 0.468261 -0.128675
C47   C     C_R   0.086751 0.720261 0.019217 -0.130798
C48   C     C_R   0.359745 0.292229 0.468400 -0.128778
C49   C     C_R   0.632879 0.913744 0.019256 -0.131647
C50   C     C_R   0.932254 0.640807 0.468404 -0.129385
C51   C     C_R   0.280751 0.368106 0.019089 -0.129731
C52   C     C_R   0.994564 0.582489 0.894752 -0.144222
C53   C     C_R   0.629168 0.076156 0.599037 -0.136361
C54   C     C_R   0.418851 0.409638 0.895326 -0.141650
C55   C     C_R   0.558442 0.455483 0.677745 0.542965
C56   C     C_R   0.924191 0.552753 0.599043 -0.137966
C57   C     C_R   0.589950 0.008251 0.895032 -0.141970
C58   C     C_R   0.448872 0.370563 0.598834 -0.138018
C59   C     C_R   0.582489 0.994565 0.394752 -0.144223
C60   C     C_R   0.076156 0.629168 0.099037 -0.136361
C61   C     C_R   0.409641 0.418850 0.395325 -0.141651
C62   C     C_R   0.552755 0.924194 0.099044 -0.137967
C63   C     C_R   0.008249 0.589948 0.395032 -0.141972
C64   C     C_R   0.370565 0.448868 0.098834 -0.138019
C65   C     C_R   0.053637 0.527916 0.127459 -0.008644
C66   C     C_R   0.896890 0.440429 0.822464 0.543255
C67   C     C_R   0.468740 0.949585 0.372510 -0.004516
C68   C     C_R   0.471935 0.524520 0.127744 -0.012073
C69   C     C_R   0.051777 0.520107 0.372675 -0.005079
C70   C     C_R   0.474235 0.946648 0.127554 -0.009671
C71   C     C_R   0.481230 0.531112 0.372565 -0.005580
C72   C     C_R   0.527917 0.053637 0.627459 -0.008644
C73   C     C_R   0.949585 0.468740 0.872510 -0.004516
C74   C     C_R   0.524521 0.471933 0.627743 -0.012072
C75   C     C_R   0.520108 0.051778 0.872675 -0.005079
C76   C     C_R   0.946646 0.474234 0.627554 -0.009671
C77   C     C_R   0.544623 0.103676 0.677557 0.543888
C78   C     C_R   0.531112 0.481229 0.872566 -0.005581
C79   C     C_R   0.023924 0.596206 0.945258 0.020150
C80   C     C_R   0.618104 0.059235 0.547969 0.014282
C81   C     C_R   0.405438 0.426915 0.945637 0.021581
C82   C     C_R   0.941730 0.558874 0.548036 0.015108
C83   C     C_R   0.574116 0.978754 0.945474 0.021140
C84   C     C_R   0.442773 0.382766 0.547948 0.015333
C85   C     C_R   0.596206 0.023925 0.445258 0.020149
C86   C     C_R   0.059235 0.618104 0.047969 0.014282
C87   C     C_R   0.426918 0.405437 0.445637 0.021581
C88   C     C_R   0.456648 0.559503 0.322467 0.542738
C89   C     C_R   0.558877 0.941733 0.048036 0.015107
C90   C     C_R   0.978752 0.574113 0.445473 0.021140
C91   C     C_R   0.382769 0.442768 0.047948 0.015333
C92   C     C_R   0.942872 0.371843 0.900136 -0.125423
C93   C     C_R   0.413920 0.006693 0.604975 -0.136304
C94   C     C_R   0.626954 0.574193 0.899816 -0.126361
C95   C     C_R   0.993826 0.407350 0.605169 -0.136074
C96   C     C_R   0.429852 0.058345 0.900294 -0.125946
C97   C     C_R   0.588984 0.586672 0.605881 -0.131071
C98   C     C_R   0.371843 0.942870 0.400136 -0.125423
C99   C     C_R   0.440953 0.896342 0.177582 0.543768
C100  C     C_R   0.006691 0.413919 0.104975 -0.136303
C101  C     C_R   0.574193 0.626954 0.399816 -0.126361
C102  C     C_R   0.407349 0.993826 0.105169 -0.136074
C103  C     C_R   0.058344 0.429851 0.400294 -0.125945
C104  C     C_R   0.586673 0.588984 0.105882 -0.131070
C105  C     C_R   0.969348 0.382563 0.950461 0.008934
C106  C     C_R   0.400501 0.991597 0.553647 0.009532
C107  C     C_R   0.619380 0.586757 0.950826 0.007380
C108  C     C_R   0.009685 0.409528 0.553856 0.009695
C109  C     C_R   0.414561 0.032694 0.950667 0.008660
C110  C     C_R   0.103452 0.543707 0.322517 0.543318
C111  C     C_R   0.593863 0.600557 0.554304 0.012918
C112  C     C_R   0.382562 0.969344 0.450461 0.008934
C113  C     C_R   0.991599 0.400502 0.053647 0.009532
C114  C     C_R   0.586757 0.619380 0.450826 0.007380
C115  C     C_R   0.409526 0.009682 0.053856 0.009694
C116  C     C_R   0.032696 0.414561 0.450667 0.008661
C117  C     C_R   0.600559 0.593862 0.054305 0.012919
C118  C     C_R   0.956213 0.287561 0.030302 0.017613
C119  C     C_R   0.282341 0.956843 0.478102 0.024294
C120  C     C_R   0.712794 0.675833 0.030980 0.021448
Cr1   Cr    Cr6+3 0.487630 0.241180 0.750000 1.008421
Cr2   Cr    Cr6+3 0.753550 0.512370 0.750000 1.008706
Cr3   Cr    Cr6+3 0.758820 0.246450 0.750000 1.008604
Cr4   Cr    Cr6+3 0.241180 0.487630 0.250000 1.008421
Cr5   Cr    Cr6+3 0.512370 0.753550 0.250000 1.008706
Cr6   Cr    Cr6+3 0.246450 0.758820 0.250000 1.008604
H1    H     H_    0.113774 0.718009 0.116106 0.129445
H2    H     H_    0.657899 0.000448 0.873759 0.108231
H3    H     H_    0.886191 0.603653 0.615985 0.131438
H4    H     H_    0.343416 0.339929 0.874343 0.107762
H5    H     H_    0.119707 0.808268 0.036267 0.114211
H6    H     H_    0.788602 0.089047 0.446849 0.108077
H7    H     H_    0.192407 0.314109 0.035940 0.114564
H8    H     H_    0.911212 0.699898 0.447100 0.105194
H9    H     H_    0.685998 0.879305 0.036389 0.118678
H10   H     H_    0.299685 0.212826 0.446969 0.106377
H11   H     H_    0.808269 0.119710 0.536267 0.114212
H12   H     H_    0.658369 0.002982 0.373383 0.107079
H13   H     H_    0.089042 0.788601 0.946850 0.108078
H14   H     H_    0.314117 0.192404 0.535939 0.114565
H15   H     H_    0.699903 0.911217 0.947101 0.105192
H16   H     H_    0.879297 0.685992 0.536388 0.118680
H17   H     H_    0.212828 0.299680 0.946970 0.106375
H18   H     H_    0.990850 0.337570 0.127724 0.133700
H19   H     H_    0.283519 0.906403 0.383064 0.146081
H20   H     H_    0.662861 0.638041 0.130278 0.130808
H21   H     H_    0.093866 0.377411 0.383113 0.145900
H22   H     H_    0.346652 0.009325 0.127940 0.133752
H23   H     H_    0.281175 0.399078 0.115490 0.130535
H24   H     H_    0.632565 0.711211 0.381116 0.143807
H25   H     H_    0.337571 0.990855 0.627724 0.133701
H26   H     H_    0.906404 0.283519 0.883064 0.146081
H27   H     H_    0.638039 0.662861 0.630277 0.130809
H28   H     H_    0.377413 0.093869 0.883113 0.145899
H29   H     H_    0.009324 0.346652 0.627941 0.133754
H30   H     H_    0.711211 0.632566 0.881116 0.143807
H31   H     H_    0.995556 0.179901 0.081011 0.108187
H32   H     H_    0.846426 0.164221 0.088186 0.135772
H33   H     H_    0.872622 0.089094 0.039429 0.134740
H34   H     H_    0.000445 0.657896 0.373758 0.108230
H35   H     H_    0.204901 0.012354 0.419075 0.112468
H36   H     H_    0.112468 0.857769 0.438739 0.132768
H37   H     H_    0.124992 0.984526 0.474712 0.119253
H38   H     H_    0.801551 0.788748 0.097918 0.112427
H39   H     H_    0.892716 0.745132 0.062215 0.142983
H40   H     H_    0.859557 0.861850 0.042826 0.108972
H41   H     H_    0.143904 0.257268 0.438182 0.132279
H42   H     H_    0.019752 0.142381 0.474926 0.117637
H43   H     H_    0.988314 0.192744 0.419616 0.112260
H44   H     H_    0.318994 0.154547 0.088808 0.135142
H45   H     H_    0.603657 0.886196 0.115986 0.131439
H46   H     H_    0.218501 0.129898 0.039886 0.135664
H47   H     H_    0.184804 0.005934 0.080991 0.108289
H48   H     H_    0.704315 0.869156 0.429944 0.132489
H49   H     H_    0.816550 0.917349 0.475882 0.126266
H50   H     H_    0.818013 0.824048 0.427019 0.109894
H51   H     H_    0.179886 0.995552 0.581003 0.108188
H52   H     H_    0.089093 0.872594 0.539430 0.134749
H53   H     H_    0.164230 0.846435 0.588192 0.135766
H54   H     H_    0.012359 0.204907 0.919073 0.112469
H55   H     H_    0.984554 0.125009 0.974711 0.119250
H56   H     H_    0.339932 0.343415 0.374342 0.107761
H57   H     H_    0.857781 0.112463 0.938743 0.132768
H58   H     H_    0.788767 0.801529 0.597914 0.112428
H59   H     H_    0.861851 0.859562 0.542822 0.108976
H60   H     H_    0.745131 0.892703 0.562226 0.142982
H61   H     H_    0.257253 0.143894 0.938186 0.132277
H62   H     H_    0.192750 0.988307 0.919610 0.112262
H63   H     H_    0.142363 0.019713 0.974924 0.117630
H64   H     H_    0.154545 0.318997 0.588813 0.135138
H65   H     H_    0.005949 0.184803 0.580986 0.108292
H66   H     H_    0.129925 0.218529 0.539889 0.135671
H67   H     H_    0.718009 0.113774 0.616107 0.129445
H68   H     H_    0.869158 0.704323 0.929944 0.132488
H69   H     H_    0.824039 0.818012 0.927017 0.109895
H70   H     H_    0.917345 0.816563 0.975880 0.126259
H71   H     H_    0.002979 0.658368 0.873383 0.107080
H72   H     H_    0.399083 0.281172 0.615490 0.130536
O1    O     O_R   0.460870 0.120930 0.805240 -0.525109
O2    O     O_R   0.120930 0.460870 0.194760 -0.523376
O3    O     O_R   0.539130 0.660060 0.305240 -0.525593
O4    O     O_R   0.339940 0.879070 0.194760 -0.523289
O5    O     O_R   0.498910 0.350470 0.801870 -0.498939
O6    O     O_R   0.851560 0.501090 0.698130 -0.501858
O7    O     O_R   0.649530 0.148440 0.801870 -0.499122
O8    O     O_R   0.498910 0.350470 0.698130 -0.502135
O9    O     O_R   0.851560 0.501090 0.801870 -0.498576
O10   O     O_R   0.649530 0.148440 0.698130 -0.501795
O11   O     O_R   0.350470 0.498910 0.301870 -0.498938
O12   O     O_R   0.660060 0.539130 0.694760 -0.522135
O13   O     O_R   0.501090 0.851560 0.198130 -0.501858
O14   O     O_R   0.148440 0.649530 0.301870 -0.499122
O15   O     O_R   0.350470 0.498910 0.198130 -0.502135
O16   O     O_R   0.501090 0.851560 0.301870 -0.498576
O17   O     O_R   0.148440 0.649530 0.198130 -0.501795
O18   O     O_3   0.666667 0.333333 0.750000 -0.233823
O19   O     O_3   0.333333 0.666667 0.250000 -0.233822
O20   O     O_R   0.879070 0.339940 0.805240 -0.525191
O21   O     O_R   0.460870 0.120930 0.694760 -0.523376
O22   O     O_R   0.660060 0.539130 0.805240 -0.525593
O23   O     O_R   0.879070 0.339940 0.694760 -0.523289
O24   O     O_R   0.120930 0.460870 0.305240 -0.525110
O25   O     O_R   0.539130 0.660060 0.194760 -0.522135
O26   O     O_R   0.339940 0.879070 0.305240 -0.525191

loop_
_geom_bond_atom_site_label_1
_geom_bond_atom_site_label_2
_ccdc_geom_bond_type
C36   C89   A    
C21   H58   S    
C56   C76   A    
C5    C114  A    
C43   C83   A    
C4    C115  A    
C10   C108  A    
C42   C82   A    
C59   H12   S    
C44   O7    A    
C57   H2    S    
C23   H65   S    
Cr5   O13   S    
C17   H46   S    
C103  H21   S    
C21   H60   S    
C20   H54   S    
C37   C116  A    
C99   O13   A    
Cr6   O4    S    
C34   C113  A    
C40   C46   A    
C6    C19   S    
Cr3   O23   S    
Cr5   O3    S    
C61   H56   S    
Cr2   O22   S    
C37   C90   A    
C64   C68   A    
C78   C94   A    
C41   H17   S    
C2    C68   S    
C3    C116  A    
C76   C95   A    
C46   H6    S    
C97   C111  A    
C24   O17   A    
Cr6   O26   S    
C9    C22   S    
Cr4   O11   S    
C11   C25   S    
C16   H41   S    
Cr3   O20   S    
C62   C89   A    
C101  H24   S    
C30   C83   A    
C53   H67   S    
C15   C120  S    
C62   C70   A    
C35   C114  A    
C34   C86   A    
Cr2   O6    S    
C22   H61   S    
Cr1   O1    S    
C102  C115  A    
C61   C87   A    
C67   C98   A    
C59   C67   A    
C55   C74   S    
C35   C87   A    
C16   H43   S    
C50   C90   A    
C96   H28   S    
C63   C69   A    
C92   H26   S    
C40   C80   A    
C29   C108  A    
C97   H27   S    
C12   H31   S    
C52   C79   A    
C19   H51   S    
C56   H3    S    
C25   H69   S    
Cr6   O19   S    
C46   C85   A    
C102  H22   S    
C18   H49   S    
C61   C71   A    
Cr5   O25   S    
C49   H9    S    
C1    O5    A    
Cr3   O18   S    
C51   C91   A    
C101  C114  A    
C38   C117  A    
C7    C118  A    
Cr1   O8    S    
C11   C120  A    
C26   C105  A    
C23   H66   S    
C17   H47   S    
C75   C96   A    
C74   C97   A    
Cr4   O15   S    
C69   C103  A    
C9    C109  A    
C54   H4    S    
C39   H13   S    
C94   C107  A    
C98   C112  A    
C30   C109  A    
C1    C78   S    
C14   C119  S    
Cr1   O18   S    
C104  H20   S    
C15   H38   S    
C8    C111  A    
C53   C80   A    
Cr1   O5    S    
C27   C80   A    
C50   H8    S    
C117  C120  A    
C60   C86   A    
C17   H44   S    
C43   C49   A    
C5    C18   S    
Cr3   O7    S    
C66   C73   S    
C38   C91   A    
C45   H14   S    
C18   H50   S    
C31   C84   A    
C71   C88   S    
C47   H5    S    
C39   C79   A    
C13   O16   A    
C14   H36   S    
C44   C75   S    
C47   C86   A    
C42   H16   S    
C72   C77   S    
C62   H45   S    
C58   C84   A    
C93   C106  A    
C5    C8    A    
Cr5   O16   S    
C33   C76   S    
C110  O14   A    
C28   C38   A    
C41   C81   A    
C40   H11   S    
C57   C83   A    
C8    C21   S    
C6    C106  A    
C48   C87   A    
C15   H40   S    
C22   H63   S    
C21   H59   S    
C19   H52   S    
C25   H70   S    
C24   C65   S    
C42   C50   A    
Cr2   O12   S    
C12   C118  S    
C72   C93   A    
C18   H48   S    
C69   C110  S    
Cr4   O24   S    
C60   C65   A    
C52   C73   A    
C88   O11   A    
C20   H57   S    
C99   O4    A    
C100  H18   S    
C88   O3    A    
C31   C35   A    
C93   H25   S    
C45   C84   A    
C4    C17   S    
C13   O26   A    
C110  O24   A    
C19   H53   S    
C6    C119  A    
C70   C99   S    
C58   C74   A    
C39   C47   A    
C104  C117  A    
C13   C67   S    
C45   C48   A    
C55   O8    A    
Cr4   O19   S    
C58   H72   S    
C32   C112  A    
C26   C34   A    
C27   C32   A    
Cr1   O21   S    
Cr2   O9    S    
C48   H10   S    
C60   H1    S    
C77   O21   A    
C100  C113  A    
C68   C104  A    
C73   C92   A    
C49   C89   A    
C65   C100  A    
C14   H37   S    
C112  C119  A    
C70   C102  A    
C56   C82   A    
C44   O1    A    
C98   H19   S    
C10   C23   S    
C96   C109  A    
Cr4   O2    S    
C33   O6    A    
C63   H34   S    
C26   C79   A    
C27   C106  A    
C30   C36   A    
C64   H23   S    
C57   C75   A    
C14   H35   S    
C103  C116  A    
C28   C81   A    
C29   C82   A    
C66   O20   A    
C3    C10   A    
Cr6   O14   S    
C55   O12   A    
C11   C107  A    
C66   O9    A    
C51   H7    S    
C16   H42   S    
C53   C72   A    
C32   C85   A    
C63   C90   A    
C2    O25   A    
Cr2   O18   S    
Cr3   O10   S    
C1    O22   A    
C95   H29   S    
C23   H64   S    
C12   H33   S    
C71   C101  A    
C43   H15   S    
C95   C108  A    
C3    C16   S    
Cr6   O17   S    
C113  C118  A    
C92   C105  A    
C22   H62   S    
C77   O10   A    
C24   O2    A    
C2    O15   A    
C94   H30   S    
C7    C20   S    
C7    C105  A    
C29   C37   A    
C31   C111  A    
C15   H39   S    
C52   H71   S    
C28   C107  A    
C64   C91   A    
C12   H32   S    
C4    C9    A    
C36   C115  A    
C59   C85   A    
C41   C51   A    
C54   C81   A    
C25   H68   S    
C33   O23   A    
C20   H55   S    
C54   C78   A    
Cr5   O19   S    
