data_str_m9_o13_o16_f0_sra.sym.58
_audit_creation_date              2012-12-11T14:43:35-0500
_audit_creation_method            fapswitch 2.2
_symmetry_space_group_name_H-M    P1
_symmetry_Int_Tables_number       1
_space_group_crystal_system       triclinic
_cell_length_a                    20.816622
_cell_length_b                    7.105526
_cell_length_c                    16.380012
_cell_angle_alpha                 91.009776
_cell_angle_beta                  92.427591
_cell_angle_gamma                 89.970735
_cell_volume                      2420.26716843

loop_
_atom_site_label
_atom_site_type_symbol
_atom_type_description
_atom_site_fract_x
_atom_site_fract_y
_atom_site_fract_z
_atom_type_partial_charge
O1    O     O_R   0.564840 0.505290 0.579830 -0.538419
O2    O     O_R   0.435160 0.005290 0.420170 -0.532702
O3    O     O_R   0.556720 0.179930 0.409350 -0.540407
O4    O     O_R   0.443280 0.679930 0.590650 -0.537888
C1    C     C_R   0.569694 0.342356 0.379963 0.714174
C2    C     C_R   0.430248 0.846159 0.619593 0.709168
O5    O     O_R   0.572280 0.175810 0.578530 -0.534338
O6    O     O_R   0.427720 0.675810 0.421470 -0.545892
O7    O     O_R   0.450830 0.001920 0.590540 -0.540840
O8    O     O_R   0.549170 0.501920 0.409460 -0.538193
C3    C     C_R   0.590157 0.345060 0.604288 0.696362
C4    C     C_R   0.408518 0.843458 0.397262 0.686415
O9    O     O_3   0.460130 0.338030 0.503750 -0.372473
O10   O     O_3   0.539870 0.838030 0.496250 -0.368147
V1    V     V_3+5 0.507400 0.064560 0.499310 1.399125
V2    V     V_3+5 0.492600 0.564560 0.500690 1.382050
C5    C     C_R   0.141761 0.925227 0.169374 -0.056555
C6    C     C_R   0.858051 0.409965 0.831205 -0.035683
C7    C     C_R   0.352096 0.846482 0.338082 -0.083539
C8    C     C_R   0.644830 0.356038 0.665377 -0.065321
C9    C     C_R   0.298347 0.695758 0.219033 -0.197289
C10   C     C_R   0.680905 0.341175 0.808344 -0.177256
C11   C     C_R   0.350627 0.711942 0.274387 -0.216900
C12   C     C_R   0.631790 0.333024 0.747764 -0.222754
C13   C     C_R   0.298928 0.971499 0.345714 0.066684
C14   C     C_R   0.709304 0.384969 0.642648 0.087376
C15   C     C_R   0.245943 0.958109 0.287077 0.128838
C16   C     C_R   0.759768 0.392846 0.704961 0.128215
C17   C     C_R   0.245831 0.816786 0.224518 0.127612
C18   C     C_R   0.744754 0.371289 0.788127 0.129309
C19   C     C_R   0.193498 0.799277 0.167236 -0.229936
C20   C     C_R   0.793856 0.379336 0.850327 -0.218456
C21   C     C_R   0.142103 0.065965 0.230428 -0.168117
C22   C     C_R   0.873033 0.430998 0.749477 -0.176603
C23   C     C_R   0.192736 0.081331 0.288748 -0.192414
C24   C     C_R   0.824952 0.421570 0.687188 -0.179854
H1    H     H_    0.194111 0.692273 0.119237 0.119047
H2    H     H_    0.782134 0.362865 0.913653 0.097141
H3    H     H_    0.102763 0.165576 0.232992 0.121203
H4    H     H_    0.922410 0.454047 0.733694 0.107979
H5    H     H_    0.299253 0.588279 0.171308 0.128777
H6    H     H_    0.668836 0.323628 0.871479 0.120665
H7    H     H_    0.189593 0.193419 0.333716 0.129472
H8    H     H_    0.840052 0.436848 0.625428 0.126649
H9    H     H_    0.390592 0.617431 0.267484 0.137542
H10   H     H_    0.582925 0.308895 0.765389 0.116755
C25   C     C_R   0.381685 0.909889 0.838553 -0.190836
C26   C     C_R   0.625294 0.232923 0.166574 -0.198934
H11   H     H_    0.301030 0.944278 0.958620 0.125298
H12   H     H_    0.708566 0.203821 0.049393 0.119313
H13   H     H_    0.404232 0.930233 0.898985 0.112194
H14   H     H_    0.606922 0.168120 0.109845 0.109405
C27   C     C_R   0.391172 0.860458 0.692668 -0.062689
C28   C     C_R   0.608532 0.339138 0.305979 -0.059262
C29   C     C_R   0.078692 0.881032 0.732460 -0.166232
C30   C     C_R   0.916500 0.491637 0.264471 -0.161967
C31   C     C_R   0.113629 0.861337 0.662374 -0.124448
C32   C     C_R   0.879187 0.521008 0.331914 -0.120211
C33   C     C_R   0.180630 0.860943 0.667336 -0.159100
C34   C     C_R   0.813416 0.483983 0.327010 -0.167362
C35   C     C_R   0.214875 0.880702 0.743519 0.087600
C36   C     C_R   0.783045 0.412586 0.254035 0.087154
C37   C     C_R   0.178513 0.903076 0.815396 0.067456
C38   C     C_R   0.822097 0.379580 0.185119 0.071786
C39   C     C_R   0.283840 0.879663 0.750730 0.076864
C40   C     C_R   0.715508 0.370697 0.247455 0.072516
C41   C     C_R   0.314404 0.904847 0.829268 0.109131
C42   C     C_R   0.689658 0.290476 0.173311 0.115557
C43   C     C_R   0.277793 0.926012 0.898509 -0.192545
C44   C     C_R   0.728483 0.262996 0.106450 -0.194286
C45   C     C_R   0.211058 0.924366 0.891881 -0.193926
C46   C     C_R   0.793439 0.307927 0.111961 -0.200648
C47   C     C_R   0.323730 0.855285 0.682999 -0.260296
C48   C     C_R   0.672866 0.401218 0.312115 -0.269297
C49   C     C_R   0.420491 0.890122 0.771119 0.136120
C50   C     C_R   0.585009 0.249352 0.232729 0.138452
C51   C     C_R   0.110137 0.902588 0.809128 -0.081238
C52   C     C_R   0.889023 0.421425 0.190716 -0.084688
H15   H     H_    0.304041 0.834209 0.621611 0.097111
H16   H     H_    0.688805 0.466296 0.369227 0.113303
H17   H     H_    0.026627 0.879188 0.726900 0.104652
H18   H     H_    0.967166 0.527131 0.269392 0.103702
H19   H     H_    0.204085 0.845395 0.610267 0.104274
H20   H     H_    0.787806 0.512406 0.381600 0.111562
H21   H     H_    0.088493 0.845517 0.603421 0.116322
H22   H     H_    0.901324 0.575858 0.388423 0.116167
H23   H     H_    0.185091 0.941029 0.947455 0.109357
H24   H     H_    0.821379 0.282447 0.058639 0.114759
O11   O     O_R   0.950790 0.256670 0.090520 -0.535711
O12   O     O_R   0.049210 0.756670 0.909480 -0.533699
O13   O     O_R   0.927720 0.590370 0.921470 -0.535649
O14   O     O_R   0.072280 0.090370 0.078530 -0.541165
C53   C     C_R   0.909868 0.420563 0.895764 0.684988
C54   C     C_R   0.089563 0.923398 0.105105 0.684223
O15   O     O_R   0.943270 0.586180 0.090640 -0.535840
O16   O     O_R   0.056730 0.086180 0.909360 -0.536435
O17   O     O_R   0.064850 0.759970 0.079840 -0.536953
O18   O     O_R   0.935150 0.259970 0.920160 -0.535638
C55   C     C_R   0.929995 0.419556 0.118893 0.677103
C56   C     C_R   0.069799 0.916336 0.881128 0.684183
O19   O     O_3   0.039850 0.428050 0.996240 -0.370851
O20   O     O_3   0.960150 0.928050 0.003760 -0.369033
V3    V     V_3+5 0.992610 0.701540 0.000700 1.428980
V4    V     V_3+5 0.007390 0.201540 0.999300 1.420895
C57   C     C_3   0.297136 0.109573 0.417818 -0.384324
C58   C     C_3   0.318602 0.306072 0.393944 -0.651615
H25   H     H_    0.368131 0.301560 0.371505 0.237890
H26   H     H_    0.286115 0.363793 0.345139 0.207634
H27   H     H_    0.317998 0.402450 0.448006 0.206180
H28   H     H_    0.248335 0.115661 0.442469 0.160032
H29   H     H_    0.327709 0.061862 0.470528 0.177299
C59   C     C_3   0.723594 0.399809 0.552622 -0.387289
C60   C     C_3   0.746198 0.210696 0.518576 -0.754419
H30   H     H_    0.790831 0.163730 0.551665 0.227104
H31   H     H_    0.708267 0.102453 0.524531 0.233609
H32   H     H_    0.756111 0.223362 0.452900 0.217114
H33   H     H_    0.680533 0.444196 0.515781 0.166964
H34   H     H_    0.759508 0.511496 0.542842 0.168211
C61   C     C_3   0.492833 0.901728 0.784714 -0.378576
C62   C     C_3   0.522866 0.706045 0.788582 -0.741409
H35   H     H_    0.503335 0.626397 0.839755 0.220689
H36   H     H_    0.512959 0.626467 0.730567 0.232004
H37   H     H_    0.575757 0.719103 0.798875 0.224298
H38   H     H_    0.514499 0.983295 0.735627 0.180258
H39   H     H_    0.505483 0.978290 0.842979 0.173413
C63   C     C_3   0.518347 0.162623 0.223800 -0.357912
C64   C     C_3   0.465624 0.311301 0.223081 -0.776709
H40   H     H_    0.464977 0.384943 0.283135 0.217309
H41   H     H_    0.473327 0.415067 0.174506 0.225842
H42   H     H_    0.418110 0.242838 0.211154 0.220558
H43   H     H_    0.512729 0.079179 0.165866 0.172819
H44   H     H_    0.511046 0.062037 0.273616 0.190953

loop_
_geom_bond_atom_site_label_1
_geom_bond_atom_site_label_2
_ccdc_geom_bond_type
C30   C52   A    
C40   C42   A    
C57   H28   S    
C63   C64   S    
C11   H9    S    
C15   C17   A    
C50   C63   S    
C26   C50   A    
O1    C3    A    
O2    C4    A    
C2    O7    A    
C13   C57   S    
C61   H38   S    
O5    C3    A    
C21   H3    S    
C58   H26   S    
O11   C55   A    
C22   H4    S    
C33   H19   S    
C59   H33   S    
C29   C51   A    
O15   C55   A    
C31   C33   A    
C58   H25   S    
C32   C34   A    
C40   C48   A    
C39   C47   A    
C51   C56   S    
C34   C36   A    
O12   C56   A    
C43   C45   A    
C36   C38   A    
C28   C48   A    
C8    C12   A    
O15   V3    S    
C39   C41   A    
C20   H2    S    
C29   H17   S    
C23   H7    S    
C22   C24   A    
C62   H37   S    
C60   H32   S    
H11   C43   S    
O5    V1    S    
C57   H29   S    
O6    V2    S    
C48   H16   S    
C27   C49   A    
C5    C21   A    
C32   H22   S    
C25   C41   A    
C59   C60   S    
C46   H24   S    
C62   H36   S    
C3    C8    S    
C33   C35   A    
C36   C40   A    
C1    C28   S    
C49   C61   S    
O4    C2    A    
C25   H13   S    
C54   O17   A    
C15   C23   A    
C9    C17   A    
C19   H1    S    
C41   C43   A    
O4    V2    S    
C7    C11   A    
C64   H41   S    
O13   C53   A    
C63   H44   S    
O6    C4    A    
O14   C54   A    
C47   H15   S    
O1    V2    S    
C26   C42   A    
O20   V4    S    
O2    V1    S    
C6    C22   A    
O17   V3    S    
C9    H5    S    
C61   H39   S    
C42   C44   A    
C37   C45   A    
O19   V4    S    
C29   C31   A    
O11   V4    S    
C5    C19   A    
C45   H23   S    
C24   H8    S    
C6    C20   A    
C2    C27   S    
C64   H40   S    
C14   C59   S    
O3    V1    S    
C62   H35   S    
C60   H30   S    
C37   C51   A    
O16   V4    S    
C10   C18   A    
C28   C50   A    
C38   C52   A    
C35   C37   A    
C27   C47   A    
O13   V3    S    
O3    C1    A    
C61   C62   S    
C30   H18   S    
C13   C15   A    
C57   C58   S    
C14   C16   A    
C12   H10   S    
C9    C11   A    
O7    V1    S    
C64   H42   S    
C25   C49   A    
C1    O8    A    
C17   C19   A    
O8    V2    S    
C18   C20   A    
C34   H20   S    
C10   H6    S    
C8    C14   A    
C63   H43   S    
O18   V4    S    
O16   C56   A    
C4    C7    S    
C16   C18   A    
C21   C23   A    
C30   C32   A    
C10   C12   A    
C38   C46   A    
H12   C44   S    
O20   V3    S    
C7    C13   A    
O12   V3    S    
O14   V4    S    
C35   C39   A    
C26   H14   S    
C16   C24   A    
O19   V3    S    
O9    V2    S    
C52   C55   S    
C6    C53   S    
C59   H34   S    
O10   V1    S    
C44   C46   A    
C5    C54   S    
C53   O18   A    
C31   H21   S    
C60   H31   S    
C58   H27   S    
