data_str_m4_o4_o11_f0_acs.sym.63
_audit_creation_date              2012-12-11T15:41:23-0500
_audit_creation_method            fapswitch 2.2
_symmetry_space_group_name_H-M    P1
_symmetry_Int_Tables_number       1
_space_group_crystal_system       triclinic
_cell_length_a                    19.045531
_cell_length_b                    10.963758
_cell_length_c                    18.835687
_cell_angle_alpha                 90.028786
_cell_angle_beta                  90.165919
_cell_angle_gamma                 90.024488
_cell_volume                      3933.0736203

loop_
_atom_site_label
_atom_site_type_symbol
_atom_type_description
_atom_site_fract_x
_atom_site_fract_y
_atom_site_fract_z
_atom_type_partial_charge
C1    C     C_R   0.725745 0.958451 0.854820 0.550782
C2    C     C_R   0.310582 0.438167 0.034865 -0.001809
C3    C     C_R   0.759965 0.863421 0.353170 0.542602
C4    C     C_2   0.497687 0.168726 0.921093 -0.112901
C5    C     C_2   0.502331 0.168690 0.078919 -0.112540
C6    C     C_2   0.997690 0.668724 0.921094 -0.112959
C7    C     C_2   0.002336 0.668691 0.078921 -0.112394
C8    C     C_2   0.492177 0.069556 0.038159 -0.160812
C9    C     C_2   0.507775 0.069570 0.961787 -0.160983
C10   C     C_2   0.992189 0.569555 0.038162 -0.160787
C11   C     C_2   0.007785 0.569572 0.961790 -0.161055
C12   C     C_R   0.759265 0.421908 0.072540 0.022013
C13   C     C_R   0.189432 0.938167 0.965143 -0.002049
C14   C     C_R   0.240720 0.421993 0.927462 0.021831
C15   C     C_R   0.259259 0.921886 0.072547 0.022111
C16   C     C_R   0.740717 0.921997 0.927463 0.021939
C17   C     C_2   0.571782 0.521646 0.935044 0.261264
C18   C     C_2   0.428296 0.521548 0.065001 0.261389
C19   C     C_2   0.071780 0.021626 0.935050 0.261251
C20   C     C_2   0.928302 0.021517 0.064993 0.261367
C21   C     C_R   0.810584 0.938157 0.034864 -0.001800
C22   C     C_R   0.812194 0.386041 0.957576 -0.164333
C23   C     C_R   0.187814 0.385954 0.042419 -0.164461
C24   C     C_R   0.312188 0.886005 0.957585 -0.164460
C25   C     C_R   0.687811 0.885967 0.042421 -0.164451
C26   C     C_R   0.816669 0.385396 0.030778 -0.159239
C27   C     C_R   0.183310 0.385436 0.969214 -0.159228
C28   C     C_R   0.316661 0.885355 0.030786 -0.159157
C29   C     C_R   0.274247 0.958409 0.145192 0.550453
C30   C     C_R   0.683305 0.885449 0.969216 -0.159202
C31   C     C_3   0.648949 0.555149 0.042807 -0.272033
C32   C     C_3   0.351121 0.555182 0.957282 -0.272173
C33   C     C_3   0.148945 0.055133 0.042813 -0.272019
C34   C     C_3   0.851125 0.055168 0.957280 -0.272130
C35   C     C_3   0.644108 0.549466 0.962359 -0.108489
C36   C     C_3   0.355981 0.549431 0.037729 -0.108373
C37   C     C_3   0.144105 0.049450 0.962365 -0.108476
C38   C     C_3   0.855988 0.049414 0.037726 -0.108399
C39   C     C_R   0.748363 0.412268 0.923560 0.009438
C40   C     C_R   0.225745 0.458450 0.854819 0.550945
C41   C     C_R   0.251660 0.412189 0.076445 0.009382
C42   C     C_R   0.248359 0.912250 0.923567 0.009121
C43   C     C_R   0.751659 0.912193 0.076445 0.009389
C44   C     C_R   0.509359 0.171043 0.420436 0.018571
C45   C     C_R   0.519334 0.169662 0.567681 0.018369
C46   C     C_R   0.010922 0.671341 0.419633 0.019588
C47   C     C_R   0.022190 0.669558 0.566731 0.020384
C48   C     C_R   0.520769 0.279858 0.457832 0.025411
C49   C     C_R   0.524863 0.278136 0.529990 0.036168
C50   C     C_R   0.022754 0.780052 0.456999 0.028220
C51   C     C_R   0.774250 0.458416 0.145188 0.550629
C52   C     C_R   0.027403 0.778149 0.529177 0.039136
C53   C     C_R   0.522441 0.058843 0.530118 -0.161350
C54   C     C_R   0.518495 0.059592 0.455966 -0.166550
C55   C     C_R   0.026374 0.558956 0.528928 -0.154317
C56   C     C_R   0.021569 0.560051 0.454756 -0.156065
C57   C     C_R   0.530027 0.177646 0.850902 0.548969
C58   C     C_R   0.469982 0.177633 0.149104 0.548310
C59   C     C_R   0.030027 0.677646 0.850901 0.549664
C60   C     C_R   0.969983 0.677633 0.149105 0.547681
C61   C     C_3   0.480380 0.397953 0.459738 -0.268654
C62   C     C_R   0.695180 0.445610 0.038676 -0.026659
C63   C     C_3   0.485437 0.394268 0.539551 -0.280101
C64   C     C_3   0.982208 0.897758 0.459431 -0.268385
C65   C     C_3   0.987904 0.893994 0.539171 -0.277431
C66   C     C_R   0.761110 0.432510 0.428175 0.020458
C67   C     C_R   0.237172 0.441096 0.569827 0.014808
C68   C     C_R   0.251042 0.902261 0.420064 0.015111
C69   C     C_R   0.737791 0.937196 0.570407 0.018052
C70   C     C_R   0.820355 0.417969 0.471338 0.044772
C71   C     C_R   0.181976 0.390846 0.531078 0.037764
C72   C     C_R   0.299766 0.832212 0.458289 0.030930
C73   C     C_R   0.304824 0.445660 0.961333 -0.026678
C74   C     C_R   0.681158 0.893263 0.530921 0.042096
C75   C     C_R   0.815517 0.411242 0.543974 0.016871
C76   C     C_R   0.184953 0.380617 0.458672 0.027558
C77   C     C_R   0.295396 0.822487 0.530690 0.038371
C78   C     C_R   0.683939 0.884794 0.458319 0.028306
C79   C     C_R   0.691015 0.447832 0.534879 -0.163913
C80   C     C_R   0.294379 0.490710 0.457830 -0.164534
C81   C     C_R   0.186617 0.932975 0.529762 -0.160447
C82   C     C_R   0.796599 0.984219 0.459028 -0.168738
C83   C     C_R   0.696445 0.455054 0.460858 -0.174967
C84   C     C_R   0.195175 0.945594 0.038682 -0.026638
C85   C     C_R   0.291078 0.500656 0.532146 -0.160923
C86   C     C_R   0.190281 0.941727 0.455435 -0.166807
C87   C     C_R   0.794020 0.990595 0.533442 -0.165580
C88   C     C_3   0.876904 0.324073 0.468143 -0.264931
C89   C     C_3   0.145829 0.271458 0.540576 -0.279583
C90   C     C_3   0.378390 0.838229 0.461618 -0.269467
C91   C     C_3   0.641402 0.776951 0.538952 -0.277016
C92   C     C_3   0.873629 0.319658 0.548321 -0.270720
C93   C     C_3   0.148946 0.259086 0.460761 -0.270501
C94   C     C_3   0.372891 0.827116 0.541351 -0.280676
C95   C     C_R   0.804824 0.945652 0.961332 -0.026637
C96   C     C_3   0.643380 0.767547 0.458907 -0.269265
C97   C     C_R   0.749950 0.415922 0.576667 0.014600
C98   C     C_R   0.244414 0.419469 0.421435 0.016258
C99   C     C_R   0.242680 0.881343 0.568443 0.014504
C100  C     C_R   0.744674 0.919219 0.421628 0.017852
C101  C     C_R   0.738409 0.365025 0.852296 0.542954
C102  C     C_R   0.261600 0.365005 0.147701 0.543411
C103  C     C_R   0.238408 0.865020 0.852298 0.543859
C104  C     C_R   0.761600 0.865005 0.147701 0.543211
C105  C     C_R   0.726312 0.959235 0.645645 0.544696
C106  C     C_R   0.689436 0.438182 0.965139 -0.001872
C107  C     C_R   0.271910 0.953735 0.351979 0.543031
C108  C     C_R   0.225906 0.460713 0.645228 0.544390
C109  C     C_R   0.773122 0.457296 0.353537 0.544151
C110  C     C_R   0.533115 0.176308 0.642636 0.542479
C111  C     C_R   0.471720 0.176668 0.354059 0.543206
C112  C     C_R   0.034145 0.676350 0.642073 0.543716
C113  C     C_R   0.972032 0.676709 0.353857 0.545450
C114  C     C_R   0.739165 0.362191 0.646278 0.548193
C115  C     C_R   0.259975 0.363519 0.353116 0.541318
C116  C     C_R   0.237670 0.856187 0.643998 0.542288
Cr1   Cr    Cr6+3 0.769260 0.163750 0.750730 1.023176
Cr2   Cr    Cr6+3 0.385810 0.322400 0.252290 1.051065
Cr3   Cr    Cr6+3 0.114190 0.822400 0.747710 1.054398
Cr4   Cr    Cr6+3 0.885810 0.822400 0.252290 1.051178
Cr5   Cr    Cr6+3 0.230740 0.163750 0.249270 1.021931
Cr6   Cr    Cr6+3 0.269260 0.663750 0.750730 1.024896
Cr7   Cr    Cr6+3 0.730740 0.663750 0.249270 1.022854
Cr8   Cr    Cr6+3 0.612640 0.009910 0.748780 1.033153
Cr9   Cr    Cr6+3 0.387360 0.009910 0.251220 1.029299
Cr10  Cr    Cr6+3 0.112640 0.509910 0.748780 1.032508
Cr11  Cr    Cr6+3 0.887360 0.509910 0.251220 1.032910
Cr12  Cr    Cr6+3 0.614190 0.322400 0.747710 1.054003
H1    H     H_    0.471320 0.986143 0.060773 0.156084
H2    H     H_    0.433926 0.380549 0.566063 0.139030
H3    H     H_    0.011343 0.975012 0.435141 0.129530
H4    H     H_    0.936707 0.879705 0.566150 0.138944
H5    H     H_    0.639721 0.456964 0.558528 0.140635
H6    H     H_    0.338382 0.530467 0.429951 0.123012
H7    H     H_    0.141570 0.970075 0.556923 0.132072
H8    H     H_    0.841607 0.020939 0.431572 0.116323
H9    H     H_    0.650165 0.474814 0.429370 0.123312
H10   H     H_    0.331473 0.551047 0.559977 0.132068
H11   H     H_    0.148780 0.987967 0.426810 0.123180
H12   H     H_    0.528577 0.986151 0.939118 0.156005
H13   H     H_    0.836896 0.032387 0.562035 0.118431
H14   H     H_    0.926934 0.360560 0.447721 0.140170
H15   H     H_    0.091490 0.281413 0.561017 0.134584
H16   H     H_    0.398583 0.928438 0.444912 0.166955
H17   H     H_    0.587665 0.790499 0.560161 0.135247
H18   H     H_    0.859025 0.238481 0.442214 0.137204
H19   H     H_    0.178857 0.203662 0.569158 0.139792
H20   H     H_    0.403726 0.758079 0.436163 0.130969
H21   H     H_    0.672616 0.705204 0.566266 0.143854
H22   H     H_    0.856887 0.229766 0.568466 0.161220
H23   H     H_    0.971339 0.486138 0.060778 0.156029
H24   H     H_    0.184251 0.184645 0.443611 0.166933
H25   H     H_    0.394592 0.740125 0.562124 0.135741
H26   H     H_    0.674888 0.689236 0.440233 0.172085
H27   H     H_    0.921176 0.357588 0.574536 0.130325
H28   H     H_    0.096422 0.260986 0.434873 0.129142
H29   H     H_    0.390173 0.910459 0.570211 0.138388
H30   H     H_    0.590815 0.776920 0.433700 0.128032
H31   H     H_    0.525995 0.250298 0.056660 0.095267
H32   H     H_    0.474071 0.250337 0.943403 0.095156
H33   H     H_    0.025997 0.750301 0.056661 0.095275
H34   H     H_    0.028592 0.486157 0.939121 0.155998
H35   H     H_    0.974069 0.750330 0.943404 0.095132
H36   H     H_    0.858412 0.360328 0.927651 0.149075
H37   H     H_    0.141597 0.360184 0.072335 0.149066
H38   H     H_    0.358407 0.860284 0.927662 0.148993
H39   H     H_    0.641593 0.860202 0.072339 0.149104
H40   H     H_    0.867222 0.364131 0.054036 0.154479
H41   H     H_    0.132739 0.364198 0.945951 0.154601
H42   H     H_    0.367213 0.864076 0.054045 0.154555
H43   H     H_    0.632732 0.864219 0.945954 0.154609
H44   H     H_    0.177381 0.136964 0.062059 0.170342
H45   H     H_    0.927314 0.886537 0.441487 0.170471
H46   H     H_    0.822734 0.137021 0.938104 0.170126
H47   H     H_    0.677384 0.636980 0.062052 0.170302
H48   H     H_    0.322726 0.637030 0.938105 0.170038
H49   H     H_    0.599085 0.535178 0.071101 0.163168
H50   H     H_    0.400964 0.535213 0.928958 0.163094
H51   H     H_    0.099082 0.035162 0.071107 0.163172
H52   H     H_    0.900966 0.035191 0.928954 0.163110
H53   H     H_    0.670063 0.627499 0.935235 0.152240
H54   H     H_    0.330084 0.627455 0.064927 0.152277
H55   H     H_    0.170059 0.127481 0.935239 0.152287
H56   H     H_    0.020571 0.968695 0.561425 0.137876
H57   H     H_    0.830097 0.127442 0.064926 0.152240
H58   H     H_    0.525141 0.972723 0.557848 0.131570
H59   H     H_    0.515492 0.973882 0.427599 0.123126
H60   H     H_    0.030798 0.472784 0.556403 0.128434
H61   H     H_    0.020132 0.474952 0.425841 0.120173
H62   H     H_    0.543562 0.442313 0.954096 0.092552
H63   H     H_    0.456452 0.442197 0.045886 0.092533
H64   H     H_    0.043556 0.942303 0.954112 0.092485
H65   H     H_    0.956449 0.942158 0.045879 0.092571
H66   H     H_    0.425428 0.388034 0.441317 0.170270
H67   H     H_    0.518105 0.468858 0.561985 0.136639
H68   H     H_    0.510054 0.474886 0.435759 0.128474
O1    O     O_R   0.784290 0.290360 0.830540 -0.529691
O2    O     O_R   0.456020 0.282110 0.333230 -0.522456
O3    O     O_R   0.043980 0.782110 0.666770 -0.516961
O4    O     O_R   0.956020 0.782110 0.333230 -0.523931
O5    O     O_R   0.679070 0.374030 0.674430 -0.508246
O6    O     O_R   0.320930 0.374030 0.325570 -0.508824
O7    O     O_R   0.179070 0.874030 0.674430 -0.507445
O8    O     O_R   0.820930 0.874030 0.325570 -0.508316
O9    O     O_3   0.665360 0.165350 0.749070 -0.257586
O10   O     O_3   0.334640 0.165350 0.250930 -0.254688
O11   O     O_3   0.165360 0.665350 0.749070 -0.260062
O12   O     O_R   0.215710 0.290360 0.169460 -0.529567
O13   O     O_3   0.834640 0.665350 0.250930 -0.255617
O14   O     O_R   0.762610 0.041070 0.825230 -0.499549
O15   O     O_R   0.237390 0.041070 0.174770 -0.499721
O16   O     O_R   0.262610 0.541070 0.825230 -0.499488
O17   O     O_R   0.737390 0.541070 0.174770 -0.499535
O18   O     O_R   0.667390 0.924160 0.829970 -0.517143
O19   O     O_R   0.332610 0.924160 0.170030 -0.516836
O20   O     O_R   0.167390 0.424160 0.829970 -0.516908
O21   O     O_R   0.832610 0.424160 0.170030 -0.517248
O22   O     O_R   0.553980 0.081420 0.821780 -0.497392
O23   O     O_R   0.284290 0.790360 0.830540 -0.529432
O24   O     O_R   0.446020 0.081420 0.178220 -0.497536
O25   O     O_R   0.053980 0.581420 0.821780 -0.496854
O26   O     O_R   0.946020 0.581420 0.178220 -0.498582
O27   O     O_R   0.543210 0.283170 0.826740 -0.499273
O28   O     O_R   0.456790 0.283170 0.173260 -0.499489
O29   O     O_R   0.043210 0.783170 0.826740 -0.499007
O30   O     O_R   0.956790 0.783170 0.173260 -0.499707
O31   O     O_R   0.678350 0.375000 0.822720 -0.482642
O32   O     O_R   0.321650 0.375000 0.177280 -0.481968
O33   O     O_R   0.178350 0.875000 0.822720 -0.481802
O34   O     O_R   0.715710 0.790360 0.169460 -0.529637
O35   O     O_R   0.821650 0.875000 0.177280 -0.482164
O36   O     O_R   0.785060 0.289300 0.670580 -0.521726
O37   O     O_R   0.214940 0.289300 0.329420 -0.520693
O38   O     O_R   0.285060 0.789300 0.670580 -0.516616
O39   O     O_R   0.714940 0.789300 0.329420 -0.521660
O40   O     O_R   0.763330 0.040090 0.676940 -0.506507
O41   O     O_R   0.236670 0.040090 0.323060 -0.508476
O42   O     O_R   0.263330 0.540090 0.676940 -0.506730
O43   O     O_R   0.736670 0.540090 0.323060 -0.508225
O44   O     O_R   0.668160 0.923110 0.670000 -0.514075
O45   O     O_R   0.554690 0.080440 0.673480 -0.509481
O46   O     O_R   0.331840 0.923110 0.330000 -0.517916
O47   O     O_R   0.168160 0.423110 0.670000 -0.514571
O48   O     O_R   0.831840 0.423110 0.330000 -0.513351
O49   O     O_2   0.544501 0.587802 0.890810 -0.517796
O50   O     O_2   0.455641 0.587669 0.109274 -0.517609
O51   O     O_2   0.044504 0.087765 0.890802 -0.517714
O52   O     O_2   0.955654 0.087633 0.109264 -0.517729
O53   O     O_R   0.445310 0.080440 0.326520 -0.512336
O54   O     O_R   0.054690 0.580440 0.673480 -0.510404
O55   O     O_R   0.945310 0.580440 0.326520 -0.506611
O56   O     O_R   0.543980 0.282110 0.666770 -0.516938

loop_
_geom_bond_atom_site_label_1
_geom_bond_atom_site_label_2
_ccdc_geom_bond_type
C103  O33   A    
C7    C10   D    
C96   H30   S    
C55   C56   A    
C49   C63   S    
C15   C29   S    
Cr8   O9    S    
C33   H51   S    
C50   C64   S    
C77   C94   S    
C34   H52   S    
C83   H9    S    
C113  O55   A    
C70   C88   S    
C42   C103  S    
C25   C43   A    
C81   H7    S    
C15   C28   A    
Cr10  O25   S    
C19   O51   D    
C44   C48   A    
C31   H47   S    
C53   C54   A    
C25   H39   S    
C32   H48   S    
C13   C84   A    
C26   H40   S    
C80   C85   A    
C5    C58   S    
C31   H49   S    
Cr3   O3    S    
C32   C36   S    
Cr1   O14   S    
Cr2   O10   S    
Cr1   O9    S    
C99   C116  S    
C111  O2    A    
C114  O36   A    
C71   C76   A    
C76   C93   S    
C9    H12   S    
C101  O1    A    
C67   C108  S    
C29   O19   A    
C67   C71   A    
C12   C62   A    
C2    C41   A    
C16   C30   A    
C47   C112  S    
C37   H55   S    
C115  O6    A    
Cr9   O10   S    
Cr4   O13   S    
C80   H6    S    
C41   C102  S    
Cr12  O27   S    
C63   H2    S    
C61   C63   S    
C43   C104  S    
C90   H20   S    
C19   C37   S    
Cr11  O26   S    
C3    O39   A    
C66   C83   A    
C21   C43   A    
C58   O24   A    
C3    C100  S    
Cr11  O13   S    
C96   H26   S    
C21   C38   S    
C88   C92   S    
C78   C96   S    
C8    C9    S    
C5    H31   S    
C4    C57   S    
C50   C52   A    
C107  O46   A    
C90   C94   S    
C68   C107  S    
C23   C27   A    
C14   C27   A    
C59   O25   A    
C27   H41   S    
C112  O3    A    
Cr11  O55   S    
C81   C86   A    
C69   C87   A    
C19   H64   S    
C51   O17   A    
C6    H35   S    
C91   C96   S    
C45   C53   A    
C23   H37   S    
Cr9   O19   S    
C89   C93   S    
C3    O8    A    
C31   C62   S    
C32   H50   S    
Cr2   O6    S    
C7    H33   S    
Cr5   O10   S    
Cr6   O11   S    
Cr4   O35   S    
C88   H14   S    
C13   C42   A    
C39   C101  S    
C92   H22   S    
Cr7   O43   S    
C109  O43   A    
C105  O44   A    
C79   H5    S    
Cr8   O22   S    
C18   H63   S    
C67   C85   A    
Cr6   O23   S    
Cr2   O28   S    
C14   C73   A    
C69   C74   A    
Cr3   O7    S    
C34   C95   S    
C61   H66   S    
C94   H25   S    
C6    C11   D    
C91   H21   S    
C12   C51   S    
C69   C105  S    
C45   C110  S    
C107  O41   A    
C104  O35   A    
Cr8   O18   S    
C81   C99   A    
C109  O48   A    
C110  O56   A    
C89   H15   S    
C11   H34   S    
C33   C37   S    
C35   H53   S    
C12   C26   A    
C74   C91   S    
C78   C100  A    
C24   H38   S    
C53   H58   S    
C97   C114  S    
C72   C77   A    
C34   H46   S    
C10   H23   S    
C20   C38   S    
C18   O50   D    
C104  O34   A    
C71   C89   S    
C64   H3    S    
C45   C49   A    
Cr10  O11   S    
C68   C72   A    
Cr6   O16   S    
C40   O20   A    
C115  O37   A    
C102  O32   A    
C114  O5    A    
Cr9   O46   S    
C1    C16   S    
Cr12  O56   S    
C55   H60   S    
C87   H13   S    
C24   C42   A    
C61   H68   S    
C108  O47   A    
Cr11  O21   S    
C15   C84   A    
C2    C73   A    
Cr10  O20   S    
C86   H11   S    
C51   O21   A    
Cr8   O44   S    
Cr7   O39   S    
C68   C86   A    
C75   C92   S    
C28   H42   S    
C48   C49   A    
Cr6   O38   S    
C108  O42   A    
C7    C60   S    
C94   H29   S    
Cr5   O37   S    
C54   H59   S    
Cr7   O17   S    
C22   C26   A    
C44   C111  S    
Cr4   O8    S    
C105  O40   A    
C63   H67   S    
C36   H54   S    
Cr12  O9    S    
C46   C56   A    
Cr2   O2    S    
Cr4   O30   S    
C20   H65   S    
C91   H17   S    
C116  O7    A    
Cr1   O1    S    
C111  O53   A    
Cr3   O29   S    
C47   C55   A    
C72   C90   S    
C57   O27   A    
C2    C36   S    
C25   C30   A    
C89   H19   S    
C40   O16   A    
C56   H61   S    
C16   C95   A    
C58   O28   A    
C46   C113  S    
C80   C98   A    
C1    O14   A    
C34   C38   S    
C82   C100  A    
C6    C59   S    
C79   C97   A    
C93   H28   S    
Cr11  O48   S    
C24   C28   A    
C60   O26   A    
C4    H32   S    
C5    C8    D    
C64   H45   S    
C112  O54   A    
C47   C52   A    
C62   C106  A    
C17   H62   S    
C65   H4    S    
C38   H57   S    
C21   C95   A    
C46   C50   A    
Cr1   O36   S    
C23   C41   A    
C75   C97   A    
C101  O31   A    
Cr10  O54   S    
Cr2   O32   S    
C64   C65   S    
Cr9   O53   S    
C22   H36   S    
Cr8   O45   S    
C35   C106  S    
C29   O15   A    
C79   C83   A    
Cr10  O47   S    
C110  O45   A    
C18   C36   S    
C98   C115  S    
Cr6   O42   S    
Cr7   O34   S    
C102  O12   A    
C13   C37   S    
Cr12  O31   S    
Cr5   O41   S    
C22   C39   A    
Cr7   O13   S    
C31   C35   S    
C74   C78   A    
Cr4   O4    S    
C113  O4    A    
C77   C99   A    
C92   H27   S    
C60   O30   A    
Cr12  O5    S    
Cr5   O15   S    
C66   C109  S    
C82   H8    S    
C59   O29   A    
C33   C84   S    
C30   H43   S    
C8    H1    S    
C10   C11   S    
C17   O49   D    
C14   C40   S    
Cr9   O24   S    
C44   C54   A    
C20   O52   D    
Cr3   O11   S    
C66   C70   A    
C70   C75   A    
C39   C106  A    
C57   O22   A    
C116  O38   A    
C1    O18   A    
C48   C61   S    
C88   H18   S    
C93   H24   S    
C17   C35   S    
Cr5   O12   S    
C4    C9    D    
Cr1   O40   S    
C33   H44   S    
C76   C98   A    
C85   H10   S    
C32   C73   S    
C90   H16   S    
C52   C65   S    
C82   C87   A    
C103  O23   A    
Cr3   O33   S    
C65   H56   S    
