data_str_m9_o1_o16_f0_sra.sym.179
_audit_creation_date              2013-03-05T15:55:31-0500
_audit_creation_method            fapswitch 2.2
_symmetry_space_group_name_H-M    P1
_symmetry_Int_Tables_number       1
_space_group_crystal_system       triclinic
_cell_length_a                    20.119329
_cell_length_b                    7.25745
_cell_length_c                    13.592308
_cell_angle_alpha                 89.865893
_cell_angle_beta                  102.966469
_cell_angle_gamma                 90.110991
_cell_volume                      1934.06755082

loop_
_atom_site_label
_atom_site_type_symbol
_atom_site_description
_atom_site_fract_x
_atom_site_fract_y
_atom_site_fract_z
_atom_type_partial_charge
O1    O     O_R   0.449560 0.506810 0.599700 -0.594449
O2    O     O_R   0.550440 0.006810 0.400300 -0.580302
O3    O     O_R   0.587960 0.180060 0.595760 -0.596750
O4    O     O_R   0.412040 0.680060 0.404240 -0.597625
C1    C     C_R   0.615077 0.344167 0.617053 0.985428
C2    C     C_R   0.384859 0.844163 0.383155 0.985270
O5    O     O_R   0.452380 0.177430 0.611700 -0.576504
O6    O     O_R   0.547620 0.677430 0.388300 -0.591404
O7    O     O_R   0.413900 0.001890 0.416350 -0.598718
O8    O     O_R   0.586100 0.501890 0.583650 -0.599925
C3    C     C_R   0.436878 0.345482 0.638230 1.012575
C4    C     C_R   0.563185 0.845947 0.361865 1.011470
O9    O     O_3   0.487530 0.337490 0.435890 -0.282767
O10   O     O_3   0.512470 0.837490 0.564110 -0.284185
V1    V     V_3+5 0.502310 0.064660 0.511890 1.232420
V2    V     V_3+5 0.497690 0.564660 0.488110 1.221480
C5    C     C_R   0.607010 0.850525 0.105889 -0.117553
C6    C     C_R   0.392846 0.364368 0.893962 -0.116622
H1    H     H_    0.580927 0.842450 0.027309 0.217015
H2    H     H_    0.418814 0.375600 0.972473 0.217038
C7    C     C_R   0.600729 0.854944 0.281321 -0.252390
C8    C     C_R   0.399260 0.352048 0.718712 -0.253814
C9    C     C_R   0.929850 0.853326 0.315540 -0.177310
C10   C     C_R   0.070149 0.366241 0.684299 -0.176914
C11   C     C_R   0.893604 0.848380 0.391173 -0.095079
C12   C     C_R   0.106369 0.363751 0.608618 -0.095211
C13   C     C_R   0.822547 0.851147 0.366970 -0.168755
C14   C     C_R   0.177394 0.357584 0.632842 -0.168853
C15   C     C_R   0.785443 0.859191 0.265081 0.111980
C16   C     C_R   0.214479 0.352765 0.734798 0.112154
C17   C     C_R   0.823059 0.862455 0.188004 0.049956
C18   C     C_R   0.176865 0.354271 0.811894 0.049780
C19   C     C_R   0.712523 0.861647 0.237310 0.082036
C20   C     C_R   0.287395 0.349991 0.762611 0.082214
C21   C     C_R   0.678733 0.862910 0.133335 -0.075640
C22   C     C_R   0.321153 0.351176 0.866565 -0.075558
C23   C     C_R   0.717119 0.871944 0.058361 0.376994
C24   C     C_R   0.282778 0.343586 0.941580 0.375607
C25   C     C_R   0.788112 0.869457 0.086224 -0.336437
C26   C     C_R   0.211789 0.348429 0.913711 -0.337268
C27   C     C_R   0.671897 0.861712 0.309691 -0.251363
C28   C     C_R   0.328061 0.346749 0.690315 -0.250753
C29   C     C_R   0.567465 0.846890 0.178496 0.320827
C30   C     C_R   0.432505 0.364277 0.821483 0.319476
C31   C     C_R   0.895377 0.860164 0.214311 -0.114560
C32   C     C_R   0.104586 0.361364 0.785585 -0.115274
H3    H     H_    0.693854 0.865826 0.389576 0.105182
H4    H     H_    0.306122 0.338931 0.610511 0.104822
H5    H     H_    0.985106 0.851839 0.335975 0.099770
H6    H     H_    0.014940 0.372392 0.663858 0.099775
H7    H     H_    0.798572 0.845419 0.430152 0.103748
H8    H     H_    0.201374 0.358474 0.569608 0.103854
H9    H     H_    0.920810 0.842316 0.469468 0.115246
H10   H     H_    0.079183 0.367842 0.530274 0.115324
H11   H     H_    0.815868 0.876054 0.026632 0.159740
H12   H     H_    0.183987 0.344108 0.973289 0.162082
C33   C     C_R   0.221609 0.022555 0.211274 -0.108582
C34   C     C_R   0.785700 0.520817 0.767929 -0.072027
H13   H     H_    0.201407 0.154456 0.181342 0.148843
H14   H     H_    0.811846 0.652100 0.780760 0.131549
C35   C     C_R   0.286713 0.018062 0.275133 -0.041616
C36   C     C_R   0.720408 0.516594 0.704688 -0.069202
H15   H     H_    0.314496 0.146218 0.292482 0.156041
H16   H     H_    0.698509 0.644196 0.670738 0.126842
C37   C     C_R   0.315648 0.850304 0.315216 -0.150750
C38   C     C_R   0.684165 0.350042 0.685355 -0.148073
C39   C     C_R   0.277439 0.687437 0.290299 -0.057601
C40   C     C_R   0.715156 0.187651 0.730805 -0.033541
H17   H     H_    0.297686 0.555624 0.320352 0.129848
H18   H     H_    0.688989 0.056439 0.717708 0.162533
C41   C     C_R   0.212327 0.691907 0.226479 -0.081005
C42   C     C_R   0.780377 0.191908 0.794257 -0.119742
H19   H     H_    0.184582 0.563671 0.209251 0.132334
H20   H     H_    0.802173 0.064267 0.828273 0.147834
C43   C     C_R   0.183526 0.859414 0.185833 -0.162206
C44   C     C_R   0.816576 0.358644 0.813881 -0.160553
O11   O     O_R   0.913920 0.203370 0.916260 -0.594266
O12   O     O_R   0.086080 0.703370 0.083740 -0.588605
O13   O     O_R   0.047620 0.535540 0.888290 -0.585627
O14   O     O_R   0.952380 0.035540 0.111710 -0.587076
C45   C     C_R   0.064002 0.368541 0.862586 0.902904
C46   C     C_R   0.936037 0.868155 0.137426 0.902293
O15   O     O_R   0.912040 0.532780 0.904220 -0.597099
O16   O     O_R   0.087960 0.032780 0.095780 -0.602282
O17   O     O_R   0.949550 0.708160 0.099720 -0.583171
O18   O     O_R   0.050450 0.208160 0.900280 -0.585708
C47   C     C_R   0.885532 0.364814 0.882747 0.914257
C48   C     C_R   0.114516 0.864974 0.117103 0.912860
O19   O     O_3   0.012480 0.375300 0.064060 -0.289814
O20   O     O_3   0.987520 0.875300 0.935940 -0.289896
V3    V     V_3+5 0.997690 0.648180 0.988110 1.169279
V4    V     V_3+5 0.002310 0.148180 0.011890 1.163186
N1    N     N_R   0.494204 0.835140 0.146199 0.244431
O21   O     O_R   0.466208 0.765001 0.058610 -0.348329
O22   O     O_R   0.454898 0.908256 0.199467 -0.380181
N2    N     N_R   0.505763 0.377142 0.854015 0.244266
O23   O     O_R   0.533439 0.449815 0.941071 -0.347907
O24   O     O_R   0.545469 0.304461 0.801278 -0.379542
N3    N     N_R   0.684954 0.888476 0.953133 0.234095
O25   O     O_R   0.707294 0.792266 0.886702 -0.428269
O26   O     O_R   0.642275 0.022088 0.922328 -0.344648
N4    N     N_R   0.314934 0.325263 0.046758 0.235426
O27   O     O_R   0.291975 0.418037 0.113831 -0.430619
O28   O     O_R   0.358221 0.192592 0.076725 -0.342163

loop_
_geom_bond_atom_site_label_1
_geom_bond_atom_site_label_2
_geom_bond_distance
_ccdc_geom_bond_type
C34   C36   1.399539 A    
O15   C47   1.335995 A    
O11   V4    1.993868 S    
O4    V2    2.022384 S    
N1    O21   1.301758 A    
C9    C31   1.395801 A    
C13   C15   1.419328 A    
C38   C40   1.409245 A    
C31   C46   1.465557 S    
O1    C3    1.328963 A    
C42   C44   1.405986 A    
O2    C4    1.328812 A    
C2    O7    1.317884 A    
O17   V3    2.023134 S    
C34   C44   1.409438 A    
O5    C3    1.329962 A    
C5    C21   1.409838 A    
C24   C26   1.393545 A    
C11   H9    1.082844 S    
C33   H13   1.082852 S    
C39   C41   1.399899 A    
C34   H14   1.082862 S    
C15   C19   1.430641 A    
C35   H15   1.083038 S    
C36   H16   1.083053 S    
C19   C21   1.424199 A    
C7    C29   1.408951 A    
C2    C37   1.488873 S    
C8    C30   1.409831 A    
C20   C28   1.412995 A    
C37   C39   1.408651 A    
N2    O24   1.300240 A    
C16   C18   1.423694 A    
C6    H2    1.080937 S    
C45   O18   1.322994 A    
C40   C42   1.399548 A    
C24   N4    1.436807 S    
O5    V1    2.034556 S    
N1    O22   1.300597 A    
C12   H10   1.082838 S    
C13   H7    1.075907 S    
C10   H6    1.083807 S    
C23   C25   1.393260 A    
C25   H11   1.083015 S    
C36   C38   1.404957 A    
O13   V3    2.034280 S    
C42   H20   1.082946 S    
O13   C45   1.324690 A    
C16   C20   1.430628 A    
C26   H12   1.082928 S    
C4    C7    1.464240 S    
C39   H17   1.083023 S    
O14   V4    2.030160 S    
C5    C29   1.399929 A    
C30   N2    1.443530 S    
C6    C30   1.399992 A    
C32   C45   1.465872 S    
N3    O25   1.300443 A    
O6    C4    1.330365 A    
N2    O23   1.301734 A    
C27   H3    1.076984 S    
O1    V2    2.017200 S    
C28   H4    1.077038 S    
O19   V4    1.789048 S    
N4    O28   1.301425 A    
O2    V1    2.019458 S    
C44   C47   1.489992 S    
C7    C27   1.397617 A    
O4    C2    1.315365 A    
N3    O26   1.301119 A    
C23   N3    1.436331 S    
C18   C26   1.405075 A    
O3    V1    2.021828 S    
C41   H19   1.083019 S    
O12   C48   1.338643 A    
C21   C23   1.411369 A    
C18   C32   1.418463 A    
O16   C48   1.335658 A    
C10   C12   1.387841 A    
C1    C38   1.488849 S    
O3    C1    1.314582 A    
C33   C35   1.399999 A    
O12   V3    1.993703 S    
C11   C13   1.393371 A    
C46   O17   1.323405 A    
O15   V3    2.021931 S    
C3    C8    1.464159 S    
C12   C14   1.393349 A    
C29   N1    1.442862 S    
C19   C27   1.413102 A    
C33   C43   1.409954 A    
C14   C16   1.419247 A    
O7    V1    2.005220 S    
C10   C32   1.395866 A    
C1    O8    1.318200 A    
C15   C17   1.423567 A    
O8    V2    2.005400 S    
C41   C43   1.405266 A    
C14   H8    1.075906 S    
O20   V3    1.786718 S    
C8    C28   1.397922 A    
C22   C24   1.411256 A    
C5    H1    1.080871 S    
O14   C46   1.324409 A    
C17   C25   1.405032 A    
C20   C22   1.423818 A    
C9    C11   1.387832 A    
N4    O27   1.300347 A    
C9    H5    1.083805 S    
C35   C37   1.405465 A    
C43   C48   1.489995 S    
O11   C47   1.337862 A    
O6    V2    2.030431 S    
C17   C31   1.418357 A    
O9    V2    1.789632 S    
C40   H18   1.082809 S    
O10   V1    1.787298 S    
O18   V4    2.020796 S    
O16   V4    2.022483 S    
C6    C22   1.409607 A    
