data_str_m2_o18_o18_f0_pcu.sym.60
_audit_creation_date              2012-12-10T17:46:30-0500
_audit_creation_method            fapswitch 2.2
_symmetry_space_group_name_H-M    P1
_symmetry_Int_Tables_number       1
_space_group_crystal_system       triclinic
_cell_length_a                    20.865629
_cell_length_b                    22.115865
_cell_length_c                    14.700772
_cell_angle_alpha                 88.657319
_cell_angle_beta                  130.048371
_cell_angle_gamma                 91.604818
_cell_volume                      5190.87248833

loop_
_atom_site_label
_atom_site_type_symbol
_atom_type_description
_atom_site_fract_x
_atom_site_fract_y
_atom_site_fract_z
_atom_type_partial_charge
C1    C     C_R   0.602012 0.913846 0.631727 0.814493
C2    C     C_R   0.403226 0.089348 0.374900 0.796911
C3    C     C_R   0.395198 0.914970 0.366402 0.844477
C4    C     C_R   0.601077 0.088091 0.628279 0.796876
C5    C     C_R   0.101816 0.413791 0.631567 0.804578
C6    C     C_R   0.903121 0.589369 0.374778 0.796430
C7    C     C_R   0.895867 0.414491 0.367195 0.846304
C8    C     C_R   0.101112 0.588153 0.628287 0.800959
C9    C     C_R   0.340868 0.771750 0.939131 0.435157
C10   C     C_R   0.667536 0.225579 0.065390 0.460554
C11   C     C_R   0.790252 0.827559 0.186335 0.450763
C12   C     C_R   0.318536 0.220439 0.913143 0.435139
C13   C     C_R   0.847821 0.266517 0.947237 0.451560
C14   C     C_R   0.163596 0.728207 0.061086 0.455119
C15   C     C_R   0.290068 0.327291 0.185898 0.450921
C16   C     C_R   0.822341 0.722556 0.916237 0.453594
C17   C     C_R   0.320682 0.975814 0.657255 -0.441006
C18   C     C_R   0.680731 0.993874 0.342241 -0.426986
C19   C     C_R   0.821091 0.475181 0.657711 -0.414656
C20   C     C_R   0.181037 0.495176 0.342592 -0.407206
C21   C     C_R   0.349505 0.995691 0.597698 0.566177
C22   C     C_R   0.650745 0.002182 0.403654 0.608712
C23   C     C_R   0.849576 0.494945 0.597714 0.572120
C24   C     C_R   0.150687 0.503082 0.403178 0.588494
C25   C     C_R   0.490812 0.989097 0.778797 0.480606
C26   C     C_R   0.510488 0.986680 0.222315 0.481797
C27   C     C_R   0.991029 0.490372 0.778980 0.481367
C28   C     C_R   0.010754 0.486629 0.222458 0.487876
C29   C     C_R   0.464123 0.971384 0.845004 -0.114179
C30   C     C_R   0.538609 0.973582 0.157772 -0.127362
C31   C     C_R   0.964722 0.472511 0.845491 -0.109672
C32   C     C_R   0.039272 0.474256 0.158166 -0.130977
C33   C     C_R   0.376972 0.965054 0.779969 0.051115
C34   C     C_R   0.625701 0.978670 0.221723 0.047129
C35   C     C_R   0.877671 0.465111 0.780621 0.051852
C36   C     C_R   0.126368 0.480017 0.222193 0.027832
C37   C     C_R   0.518828 0.962310 0.972619 0.080389
C38   C     C_R   0.484880 0.960136 0.031641 0.087170
C39   C     C_R   0.019706 0.464202 0.973132 0.086251
C40   C     C_R   0.985804 0.461030 0.032188 0.076250
C41   C     C_R   0.399485 0.943856 0.961316 -0.163855
C42   C     C_R   0.605722 0.955310 0.044735 -0.237184
C43   C     C_R   0.900773 0.443758 0.962271 -0.162757
C44   C     C_R   0.106842 0.458411 0.045117 -0.229171
C45   C     C_R   0.346398 0.946955 0.837767 -0.145668
C46   C     C_R   0.658076 0.967008 0.165514 -0.134066
C47   C     C_R   0.847506 0.446644 0.838769 -0.122844
C48   C     C_R   0.159027 0.469446 0.166037 -0.145065
C49   C     C_R   0.660227 0.139505 0.698939 -0.224040
C50   C     C_R   0.332466 0.867456 0.287996 -0.187207
C51   C     C_R   0.365726 0.149524 0.324789 -0.214043
C52   C     C_R   0.661500 0.865443 0.707098 -0.224849
C53   C     C_R   0.157995 0.641201 0.695977 -0.226524
C54   C     C_R   0.834516 0.366039 0.290284 -0.187890
C55   C     C_R   0.865339 0.649573 0.324381 -0.213346
C56   C     C_R   0.160234 0.364845 0.706076 -0.227576
C57   C     C_R   0.789059 0.196517 0.780162 0.427492
C58   C     C_R   0.209331 0.804303 0.211472 0.433038
C59   C     C_R   0.324694 0.249657 0.334703 0.443253
C60   C     C_R   0.760343 0.791147 0.746437 0.446279
C61   C     C_R   0.277415 0.707062 0.764721 0.418982
C62   C     C_R   0.712124 0.302182 0.214403 0.423953
C63   C     C_R   0.823640 0.749682 0.334038 0.446818
C64   C     C_R   0.254649 0.288036 0.741548 0.442763
C65   C     C_R   0.722535 0.158348 0.692354 0.279515
C66   C     C_R   0.265293 0.851635 0.285248 0.249764
C67   C     C_R   0.358426 0.192779 0.387002 0.276118
C68   C     C_R   0.695067 0.830554 0.667536 0.261528
C69   C     C_R   0.219675 0.661523 0.688712 0.294784
C70   C     C_R   0.768561 0.348999 0.289521 0.254296
C71   C     C_R   0.856975 0.692586 0.385900 0.273685
C72   C     C_R   0.191189 0.328497 0.664635 0.291734
C73   C     C_R   0.656969 0.168334 0.778986 -0.288490
C74   C     C_R   0.338030 0.840193 0.208884 -0.283407
C75   C     C_R   0.342817 0.165799 0.215577 -0.307388
C76   C     C_R   0.690273 0.857119 0.822850 -0.282382
C77   C     C_R   0.151542 0.671744 0.771778 -0.300887
C78   C     C_R   0.840359 0.338966 0.211146 -0.284071
C79   C     C_R   0.843428 0.666182 0.215868 -0.304849
C80   C     C_R   0.189771 0.356814 0.822278 -0.281917
C81   C     C_R   0.722390 0.206289 0.868731 -0.003389
C82   C     C_R   0.277333 0.798632 0.123603 -0.014774
C83   C     C_R   0.321750 0.224971 0.170841 -0.008380
C84   C     C_R   0.747763 0.811459 0.897460 -0.017856
C85   C     C_R   0.215146 0.711514 0.859796 0.003654
C86   C     C_R   0.781000 0.296269 0.127567 -0.013530
C87   C     C_R   0.822178 0.725373 0.171214 -0.006927
C88   C     C_R   0.246230 0.310477 0.896080 -0.008242
C89   C     C_R   0.787516 0.222851 0.866086 -0.119242
C90   C     C_R   0.215908 0.777360 0.131201 -0.074174
C91   C     C_R   0.311410 0.267531 0.230480 -0.137923
C92   C     C_R   0.777970 0.775253 0.853964 -0.117975
C93   C     C_R   0.278560 0.730108 0.854930 -0.136842
C94   C     C_R   0.719353 0.275039 0.134877 -0.077607
C95   C     C_R   0.811205 0.767732 0.230499 -0.135090
C96   C     C_R   0.274515 0.273228 0.851072 -0.146445
C97   C     C_R   0.723521 0.228322 0.960279 0.053167
C98   C     C_R   0.277786 0.776515 0.033462 0.052551
C99   C     C_R   0.309426 0.242155 0.066804 0.053303
C100  C     C_R   0.772649 0.798787 0.011575 0.053678
C101  C     C_R   0.217050 0.732786 0.952560 0.057080
C102  C     C_R   0.782896 0.273014 0.039275 0.052056
C103  C     C_R   0.810587 0.742892 0.067797 0.054235
C104  C     C_R   0.271766 0.298137 0.010687 0.051084
C105  C     C_R   0.337280 0.796393 0.022043 -0.326498
C106  C     C_R   0.670611 0.203371 0.980131 -0.339707
C107  C     C_R   0.765456 0.841383 0.074379 -0.314293
C108  C     C_R   0.335722 0.205646 0.019185 -0.323409
C109  C     C_R   0.841862 0.293059 0.026898 -0.328078
C110  C     C_R   0.164469 0.707505 0.972775 -0.338713
C111  C     C_R   0.265049 0.340942 0.073768 -0.314645
C112  C     C_R   0.837991 0.706944 0.021012 -0.332711
Cu1   Cu    Cu3+1 0.526640 0.000000 0.436960 1.017307
Cu2   Cu    Cu3+1 0.473360 0.000000 0.563040 1.011589
Cu3   Cu    Cu3+1 0.026640 0.500000 0.436960 1.008723
Cu4   Cu    Cu3+1 0.973360 0.500000 0.563040 1.016915
H1    H     H_    0.371744 0.929336 0.999613 0.191021
H2    H     H_    0.635145 0.942562 0.009366 0.202369
H3    H     H_    0.873453 0.428616 0.000891 0.191077
H4    H     H_    0.136530 0.446166 0.009893 0.204566
H5    H     H_    0.391319 0.852428 0.216291 0.190154
H6    H     H_    0.600620 0.162458 0.766866 0.164188
H7    H     H_    0.663670 0.884332 0.851004 0.208475
H8    H     H_    0.339986 0.131161 0.164677 0.178652
H9    H     H_    0.893037 0.351982 0.217486 0.190142
H10   H     H_    0.095303 0.664624 0.759485 0.165040
H11   H     H_    0.164584 0.384968 0.851384 0.205913
H12   H     H_    0.841579 0.631797 0.165415 0.178724
H13   H     H_    0.383593 0.830921 0.076862 0.154952
H14   H     H_    0.635785 0.162910 0.936593 0.135596
H15   H     H_    0.747799 0.887417 0.042844 0.150619
H16   H     H_    0.372425 0.165980 0.064469 0.142748
H17   H     H_    0.885226 0.329759 0.077692 0.155508
H18   H     H_    0.128698 0.667730 0.927370 0.133686
H19   H     H_    0.247302 0.386962 0.042205 0.152106
H20   H     H_    0.874632 0.667226 0.066244 0.142637
H21   H     H_    0.280177 0.937539 0.787312 0.128503
H22   H     H_    0.724639 0.968763 0.214554 0.198424
H23   H     H_    0.781467 0.436558 0.788578 0.135596
H24   H     H_    0.225638 0.471305 0.215257 0.196620
H25   H     H_    0.254139 0.968538 0.607355 0.160780
H26   H     H_    0.746940 0.998397 0.388128 0.149550
H27   H     H_    0.754647 0.467458 0.608048 0.162220
H28   H     H_    0.247259 0.500831 0.389194 0.160244
N1    N     N_R   0.433280 0.000000 0.657760 -0.251093
N2    N     N_R   0.566720 0.000000 0.342240 -0.248399
N3    N     N_R   0.933280 0.500000 0.657760 -0.252623
N4    N     N_R   0.066720 0.500000 0.342240 -0.249954
O1    O     O_R   0.600040 0.935040 0.546740 -0.544943
O2    O     O_R   0.399960 0.064960 0.453260 -0.541442
O3    O     O_R   0.399960 0.935040 0.453260 -0.545069
O4    O     O_R   0.600040 0.064960 0.546740 -0.523105
O5    O     O_R   0.100040 0.435040 0.546740 -0.560129
O6    O     O_R   0.899960 0.564960 0.453260 -0.542547
O7    O     O_R   0.899960 0.435040 0.453260 -0.536639
O8    O     O_R   0.100040 0.564960 0.546740 -0.525834
O9    O     O_R   0.555010 0.935070 0.653220 -0.541505
O10   O     O_R   0.444990 0.064930 0.346780 -0.578160
O11   O     O_R   0.444990 0.935070 0.346780 -0.550490
O12   O     O_R   0.555010 0.064930 0.653220 -0.584637
O13   O     O_R   0.055010 0.435070 0.653220 -0.540694
O14   O     O_R   0.944990 0.564930 0.346780 -0.577361
O15   O     O_R   0.944990 0.435070 0.346780 -0.551195
O16   O     O_R   0.055010 0.564930 0.653220 -0.582173
O17   O     O_3   0.402860 0.792139 0.936132 -0.550254
C113  C     C_3   0.479587 0.765537 0.031088 0.105585
H29   H     H_    0.472760 0.715465 0.033822 0.140566
H30   H     H_    0.503786 0.785095 0.117256 0.124104
C114  C     C_3   0.543688 0.778406 0.014738 -0.758604
H31   H     H_    0.552009 0.827934 0.011112 0.252540
H32   H     H_    0.604844 0.758871 0.089998 0.191132
H33   H     H_    0.522525 0.757672 0.931139 0.264090
O18   O     O_3   0.631357 0.190566 0.102105 -0.564918
C115  C     C_3   0.544816 0.179795 0.009269 0.148934
H34   H     H_    0.526565 0.174862 0.920340 0.100318
H35   H     H_    0.509075 0.217739 0.004650 0.199052
C116  C     C_3   0.519614 0.121410 0.036850 -0.793365
H36   H     H_    0.512511 0.129334 0.104124 0.221110
H37   H     H_    0.459561 0.103367 0.955516 0.228987
H38   H     H_    0.568034 0.086842 0.071549 0.250007
O19   O     O_3   0.796931 0.873687 0.253872 -0.566325
C117  C     C_3   0.881292 0.894404 0.332051 0.117198
H39   H     H_    0.896323 0.920093 0.281643 0.123114
H40   H     H_    0.925871 0.856342 0.380841 0.143244
C118  C     C_3   0.895283 0.935880 0.424846 -0.812203
H41   H     H_    0.871758 0.913738 0.467223 0.269034
H42   H     H_    0.963242 0.945932 0.494501 0.194885
H43   H     H_    0.862787 0.979275 0.383476 0.217228
O20   O     O_3   0.341201 0.180871 0.867092 -0.576763
C119  C     C_3   0.276305 0.137285 0.797152 0.113457
H44   H     H_    0.212387 0.155986 0.747905 0.132168
H45   H     H_    0.284919 0.099508 0.854821 0.131948
C120  C     C_3   0.280258 0.112177 0.705530 -0.788482
H46   H     H_    0.343735 0.095126 0.749442 0.236053
H47   H     H_    0.233786 0.074616 0.657247 0.182055
H48   H     H_    0.265202 0.147783 0.640234 0.273423
O21   O     O_3   0.905761 0.290187 0.938336 -0.525280
C121  C     C_3   0.986868 0.271188 0.037300 0.087704
H49   H     H_    0.992173 0.221646 0.033482 0.133455
H50   H     H_    0.002470 0.281511 0.123458 0.112011
C122  C     C_3   0.051222 0.303646 0.035019 -0.743059
H51   H     H_    0.024884 0.313509 0.942386 0.274032
H52   H     H_    0.070582 0.346734 0.083764 0.244320
H53   H     H_    0.107423 0.275471 0.078419 0.186651
O22   O     O_3   0.130459 0.691758 0.100773 -0.566069
C123  C     C_3   0.043951 0.679455 0.010891 0.154446
H54   H     H_    0.024622 0.671076 0.922141 0.103789
H55   H     H_    0.007664 0.718039 0.003109 0.210825
C124  C     C_3   0.021345 0.622596 0.045954 -0.787890
H56   H     H_    0.015042 0.633008 0.113218 0.220635
H57   H     H_    0.961493 0.602625 0.967458 0.224608
H58   H     H_    0.070682 0.588496 0.083157 0.252896
O23   O     O_3   0.296400 0.373515 0.253055 -0.567469
C125  C     C_3   0.380668 0.394466 0.331199 0.113792
H59   H     H_    0.395261 0.420780 0.280839 0.124494
H60   H     H_    0.425568 0.356520 0.379208 0.147174
C126  C     C_3   0.394817 0.435183 0.425003 -0.797822
H61   H     H_    0.370992 0.412608 0.466642 0.272419
H62   H     H_    0.462834 0.444878 0.495055 0.198045
H63   H     H_    0.362768 0.478821 0.384847 0.215814
O24   O     O_3   0.846648 0.683728 0.871400 -0.567723
C127  C     C_3   0.781971 0.640418 0.798608 0.111154
H64   H     H_    0.717989 0.659635 0.745632 0.132395
H65   H     H_    0.787842 0.602742 0.854582 0.128220
C128  C     C_3   0.789991 0.615059 0.711158 -0.780886
H66   H     H_    0.853173 0.596228 0.759047 0.232986
H67   H     H_    0.742133 0.578743 0.658566 0.179529
H68   H     H_    0.779675 0.651049 0.649270 0.272472
O25   O     O_3   0.249637 0.884622 0.346815 -0.693301
H69   H     H_    0.295097 0.874868 0.431659 0.324108
O26   O     O_3   0.718702 0.142849 0.598725 -0.696288
H70   H     H_    0.660091 0.147865 0.524932 0.337589
O27   O     O_3   0.664238 0.832185 0.551752 -0.740460
H71   H     H_    0.602364 0.833872 0.498950 0.324792
O28   O     O_3   0.384826 0.182182 0.499215 -0.752426
H72   H     H_    0.438465 0.160532 0.545839 0.328905
O29   O     O_3   0.755071 0.380113 0.355456 -0.689512
H73   H     H_    0.800833 0.368420 0.439389 0.327944
O30   O     O_3   0.224819 0.639125 0.607158 -0.661973
H74   H     H_    0.168576 0.643008 0.528189 0.331525
O31   O     O_3   0.159879 0.330127 0.548743 -0.736059
H75   H     H_    0.098195 0.333449 0.496477 0.320737
O32   O     O_3   0.882302 0.681587 0.497352 -0.759315
H76   H     H_    0.936483 0.660601 0.544906 0.327377
O33   O     O_3   0.334048 0.727780 0.751141 -0.518875
C129  C     C_3   0.298724 0.777535 0.671470 0.142044
H77   H     H_    0.273477 0.811559 0.695655 0.132681
H78   H     H_    0.247471 0.761780 0.579379 0.118878
C130  C     C_3   0.365815 0.809124 0.674679 -0.750530
H79   H     H_    0.390209 0.777743 0.645780 0.232590
H80   H     H_    0.338798 0.848984 0.614612 0.183396
H81   H     H_    0.418045 0.825209 0.765804 0.277728
O34   O     O_3   0.642342 0.288143 0.204476 -0.561906
C131  C     C_3   0.664721 0.272218 0.315466 0.166954
H82   H     H_    0.660021 0.312590 0.354284 0.184445
H83   H     H_    0.728992 0.253451 0.380180 0.126699
C132  C     C_3   0.602843 0.224928 0.296607 -0.777719
H84   H     H_    0.617027 0.180063 0.281707 0.262040
H85   H     H_    0.608097 0.222065 0.376589 0.191886
H86   H     H_    0.537651 0.237312 0.219155 0.250408
O35   O     O_3   0.808770 0.789573 0.389580 -0.543480
C133  C     C_3   0.736461 0.770812 0.373149 0.122319
H87   H     H_    0.755980 0.751260 0.457756 0.197718
H88   H     H_    0.696610 0.736164 0.302396 0.091950
C134  C     C_3   0.682587 0.825543 0.340365 -0.736155
H89   H     H_    0.659549 0.844252 0.253436 0.261344
H90   H     H_    0.627993 0.812206 0.333640 0.204940
H91   H     H_    0.719686 0.861003 0.408947 0.252225
O36   O     O_3   0.292513 0.260235 0.704003 -0.529566
C135  C     C_3   0.368744 0.291320 0.754522 0.098145
H92   H     H_    0.411294 0.289767 0.853364 0.135996
H93   H     H_    0.357438 0.339470 0.724501 0.125119
C136  C     C_3   0.412551 0.261610 0.715798 -0.744583
H94   H     H_    0.379232 0.272110 0.621037 0.289237
H95   H     H_    0.477912 0.279188 0.769458 0.188865
H96   H     H_    0.413479 0.211795 0.727650 0.257240
O37   O     O_3   0.851644 0.212219 0.775134 -0.514343
C137  C     C_3   0.902103 0.161366 0.805793 0.114960
H97   H     H_    0.866276 0.124582 0.739937 0.192125
H98   H     H_    0.928892 0.143210 0.895070 0.090312
C138  C     C_3   0.973510 0.179341 0.806874 -0.783934
H99   H     H_    0.015577 0.212986 0.877172 0.249828
H100  H     H_    0.010565 0.138870 0.824852 0.189057
H101  H     H_    0.948201 0.198924 0.719372 0.254207
O38   O     O_3   0.140767 0.789324 0.204002 -0.553053
C139  C     C_3   0.164999 0.775018 0.316735 0.147231
H102  H     H_    0.158040 0.815574 0.352712 0.174019
H103  H     H_    0.230572 0.758621 0.382335 0.119347
C140  C     C_3   0.106843 0.725876 0.302927 -0.789233
H104  H     H_    0.123408 0.681517 0.289994 0.266448
H105  H     H_    0.113665 0.723254 0.384228 0.173518
H106  H     H_    0.040587 0.736066 0.225960 0.255955
O39   O     O_3   0.309109 0.289204 0.389599 -0.547112
C141  C     C_3   0.234178 0.271101 0.366135 0.099969
H107  H     H_    0.248270 0.238539 0.435446 0.193433
H108  H     H_    0.187345 0.249430 0.277660 0.097697
C142  C     C_3   0.194244 0.326507 0.368924 -0.717046
H109  H     H_    0.180925 0.359745 0.301316 0.260208
H110  H     H_    0.134554 0.313490 0.348823 0.213114
H111  H     H_    0.237618 0.347604 0.457925 0.259176
O40   O     O_3   0.802482 0.764280 0.714454 -0.539003
C143  C     C_3   0.851380 0.808621 0.711435 0.095482
H112  H     H_    0.881777 0.841730 0.785518 0.117092
H113  H     H_    0.811800 0.833411 0.625425 0.186198
C144  C     C_3   0.920340 0.778073 0.722075 -0.757004
H114  H     H_    0.894500 0.738843 0.661489 0.289150
H115  H     H_    0.949330 0.810733 0.698874 0.210116
H116  H     H_    0.969410 0.762310 0.814565 0.217360
O41   O     O_3   0.426802 0.983306 0.167561 -0.565652
C145  C     C_3   0.388158 0.036977 0.102496 0.052574
H117  H     H_    0.393043 0.044745 0.032413 0.133219
H118  H     H_    0.419383 0.076402 0.161799 0.150925
C146  C     C_3   0.295538 0.032389 0.042716 -0.811149
H119  H     H_    0.288229 0.025598 0.110746 0.259710
H120  H     H_    0.262852 0.074155 0.991118 0.185895
H121  H     H_    0.265743 0.993457 0.980927 0.240209
O42   O     O_3   0.574281 0.989329 0.831763 -0.573828
C147  C     C_3   0.611735 0.044815 0.890080 0.066842
H122  H     H_    0.609069 0.052976 0.961528 0.136856
H123  H     H_    0.578103 0.082624 0.827421 0.149863
C148  C     C_3   0.703461 0.044790 0.945081 -0.773534
H124  H     H_    0.708553 0.038994 0.875171 0.251367
H125  H     H_    0.735291 0.087680 0.992626 0.213836
H126  H     H_    0.736106 0.006941 0.009948 0.223280
O43   O     O_3   0.926961 0.483362 0.167289 -0.565856
C149  C     C_3   0.888592 0.537130 0.102329 0.051374
H127  H     H_    0.893325 0.544705 0.032099 0.131831
H128  H     H_    0.920058 0.576546 0.161645 0.150552
C150  C     C_3   0.795968 0.532958 0.042455 -0.803880
H129  H     H_    0.788517 0.526683 0.110419 0.259044
H130  H     H_    0.763636 0.574713 0.990390 0.188310
H131  H     H_    0.766039 0.493869 0.981049 0.241367
O44   O     O_3   0.074528 0.492452 0.832073 -0.573436
C151  C     C_3   0.109621 0.548564 0.889052 0.060308
H132  H     H_    0.105159 0.556803 0.958804 0.138583
H133  H     H_    0.075260 0.585646 0.824740 0.150394
C152  C     C_3   0.201895 0.550190 0.946547 -0.762052
H134  H     H_    0.208603 0.544532 0.878245 0.251543
H135  H     H_    0.231894 0.593598 0.993077 0.216759
H136  H     H_    0.235225 0.512929 0.012706 0.222392
O45   O     O_3   0.703000 0.014965 0.524465 -0.514147
C153  C     C_3   0.780543 0.985260 0.591577 0.090150
H137  H     H_    0.824949 0.011863 0.588117 0.135214
H138  H     H_    0.773571 0.938399 0.559879 0.125479
C154  C     C_3   0.817598 0.981118 0.720677 -0.783074
H139  H     H_    0.777168 0.952047 0.728460 0.246710
H140  H     H_    0.880872 0.961218 0.775656 0.182285
H141  H     H_    0.822676 0.026708 0.754940 0.239971
O46   O     O_3   0.294085 0.002609 0.475519 -0.513831
C155  C     C_3   0.243807 0.053429 0.444332 0.085359
H142  H     H_    0.283157 0.094696 0.491464 0.170552
H143  H     H_    0.201511 0.045456 0.465017 0.115708
C156  C     C_3   0.189234 0.064934 0.311233 -0.738027
H144  H     H_    0.147358 0.025213 0.261706 0.253991
H145  H     H_    0.150383 0.105370 0.286217 0.171198
H146  H     H_    0.228734 0.073023 0.286016 0.248251
O47   O     O_3   0.203686 0.518461 0.522314 -0.515165
C157  C     C_3   0.268745 0.476392 0.592511 0.084811
H147  H     H_    0.317595 0.484087 0.584103 0.125650
H148  H     H_    0.244595 0.428997 0.567919 0.165949
C158  C     C_3   0.309800 0.485027 0.722318 -0.724238
H149  H     H_    0.262889 0.478390 0.734670 0.239175
H150  H     H_    0.360396 0.451719 0.778639 0.171298
H151  H     H_    0.337116 0.531420 0.751046 0.266913
O48   O     O_3   0.794085 0.501124 0.475393 -0.510182
C159  C     C_3   0.743114 0.551653 0.443028 0.076414
H152  H     H_    0.781884 0.593208 0.489555 0.169874
H153  H     H_    0.700688 0.543546 0.463460 0.115264
C160  C     C_3   0.688769 0.562593 0.309804 -0.725093
H154  H     H_    0.647550 0.522531 0.260794 0.253903
H155  H     H_    0.649244 0.602728 0.283809 0.174380
H156  H     H_    0.728469 0.570902 0.284970 0.247214

loop_
_geom_bond_atom_site_label_1
_geom_bond_atom_site_label_2
_ccdc_geom_bond_type
C113  H30   S    
O47   C157  S    
C33   C45   A    
C20   H28   S    
C11   O19   S    
C53   C69   A    
C79   C87   A    
C152  H134  S    
C25   O42   S    
O40   C143  S    
C138  H101  S    
C15   C111  A    
Cu1   Cu2   S    
C10   C94   A    
C29   C33   A    
C128  H68   S    
C62   C70   A    
C157  C158  S    
C37   C42   A    
C117  H39   S    
C14   C90   A    
C131  H83   S    
C157  H147  S    
C40   C43   A    
C56   C72   A    
C149  H127  S    
C70   O29   S    
Cu4   O6    S    
C147  C148  S    
C160  H156  S    
C35   C47   A    
O33   C129  S    
Cu3   O5    S    
C122  H53   S    
C82   C98   A    
C73   C81   A    
C156  H145  S    
C25   C29   A    
C158  H151  S    
C145  H118  S    
C27   C31   A    
C84   C100  A    
C28   C32   A    
C12   C108  A    
C48   H24   S    
C123  H54   S    
C101  C110  A    
O44   C151  S    
C7    O15   A    
Cu3   N4    S    
C17   C21   A    
C103  C112  A    
C117  C118  S    
C5    O13   A    
Cu1   N2    S    
C19   C23   A    
Cu2   O9    S    
C37   C38   A    
Cu1   O1    S    
C54   C70   A    
C149  C150  S    
O41   C145  S    
C154  H141  S    
C69   O30   S    
C115  C116  S    
C116  H36   S    
C87   C103  A    
C63   C71   A    
C49   C73   A    
Cu2   O2    S    
C152  H136  S    
C106  H14   S    
C139  C140  S    
C73   H6    S    
C146  H121  S    
C153  C154  S    
Cu4   N3    S    
C105  H13   S    
C83   C91   A    
C127  C128  S    
C4    C49   S    
C80   C88   A    
C19   C35   A    
O48   C159  S    
C139  H103  S    
C151  C152  S    
C153  H138  S    
C109  H17   S    
Cu3   O15   S    
C155  H142  S    
C23   O48   S    
C68   O27   S    
C15   C91   A    
C74   H5    S    
C120  H46   S    
C41   C45   A    
C102  C109  A    
C121  H50   S    
C78   H9    S    
C43   C47   A    
C124  H58   S    
C55   C71   A    
C44   C48   A    
C2    O2    A    
C119  H44   S    
C15   O23   S    
C111  H19   S    
C136  H96   S    
C122  H52   S    
C99   C108  A    
C30   C38   A    
C130  H79   S    
O24   C127  S    
C13   O21   S    
C32   C36   A    
C50   C74   A    
C42   C46   A    
O34   C131  S    
C125  H60   S    
C146  H120  S    
C9    C105  A    
Cu3   Cu4   S    
C26   O41   S    
O31   H75   S    
C26   N2    A    
C115  H34   S    
C147  H123  S    
C59   C67   A    
C85   C93   A    
C22   N2    A    
C27   O44   S    
C87   C95   A    
C34   C46   A    
O27   H71   S    
C120  H48   S    
C77   C85   A    
O18   C115  S    
O37   C137  S    
C3    O11   A    
C142  H110  S    
O43   C149  S    
C112  H20   S    
C45   H21   S    
C88   C104  A    
C3    C50   S    
C124  H56   S    
C60   C92   A    
C4    O4    A    
C143  H113  S    
C30   C34   A    
C75   H8    S    
Cu4   O13   S    
C64   C96   A    
C38   C41   A    
C8    O16   A    
C39   C40   A    
C151  H132  S    
C131  C132  S    
C126  H61   S    
C127  H65   S    
O39   C141  S    
C18   C34   A    
C28   O43   S    
C148  H126  S    
C140  H104  S    
C51   C67   A    
Cu1   O11   S    
C157  H148  S    
C134  H90   S    
C159  C160  S    
Cu2   O12   S    
C148  H124  S    
C110  H18   S    
C29   C37   A    
C86   C102  A    
C114  H32   S    
C14   C110  A    
C129  H77   S    
C124  H57   S    
C130  H81   S    
C18   C22   A    
Cu2   N1    S    
C52   C76   A    
C8    C53   S    
C26   C30   A    
C133  H87   S    
C138  H100  S    
C56   C80   A    
C122  H51   S    
C132  H86   S    
C128  H67   S    
C36   C48   A    
O21   C121  S    
C117  H40   S    
C108  H16   S    
C10   C106  A    
C137  H97   S    
C149  H128  S    
C84   C92   A    
C41   H1    S    
C43   H3    S    
C160  H155  S    
C129  C130  S    
C62   O34   S    
C88   C96   A    
Cu3   O8    S    
C5    C56   S    
O30   H74   S    
C135  C136  S    
C6    C55   S    
C76   C84   A    
C133  C134  S    
C156  H144  S    
O23   C125  S    
C126  H63   S    
C12   O20   S    
C158  H150  S    
C66   O25   S    
O46   C155  S    
C57   C89   A    
C141  H107  S    
C123  H55   S    
C44   H4    S    
C61   C69   A    
O32   H76   S    
C63   C95   A    
C140  H106  S    
C17   H25   S    
C142  H109  S    
C159  H152  S    
C119  C120  S    
C137  C138  S    
O28   H72   S    
C1    O1    A    
C154  H140  S    
C97   C102  A    
C81   C89   A    
C10   O18   S    
C99   C104  A    
C83   C99   A    
O36   C135  S    
Cu1   O4    S    
C16   O24   S    
C17   C33   A    
Cu2   O3    S    
C74   C82   A    
C152  H135  S    
C28   N4    A    
C65   O26   S    
C114  H31   S    
C141  C142  S    
C42   H2    S    
C155  C156  S    
O45   C153  S    
C23   N3    A    
C100  C103  A    
C21   N1    A    
C53   C77   A    
O38   C139  S    
C55   C79   A    
C2    O10   A    
C155  H143  S    
C58   C90   A    
C6    O6    A    
C97   C106  A    
C16   C92   A    
C62   C94   A    
C31   C35   A    
C39   C44   A    
C156  H146  S    
C16   C112  A    
C24   O47   S    
C145  H117  S    
C119  H45   S    
C153  H137  S    
C57   C65   A    
C98   C101  A    
C118  H41   S    
C82   C90   A    
C131  H82   S    
C9    O17   S    
C71   O32   S    
C150  H131  S    
C75   C83   A    
C146  H119  S    
O35   C133  S    
O20   C119  S    
C1    C52   S    
C115  H35   S    
C118  H42   S    
C64   O36   S    
C20   C36   A    
C7    O7    A    
C60   C68   A    
C144  H114  S    
C14   O22   S    
C47   H23   S    
C135  H92   S    
C12   C96   A    
C7    C54   S    
C61   C93   A    
C77   H10   S    
C54   C78   A    
C145  C146  S    
C57   O37   S    
C79   H12   S    
O17   C113  S    
C150  H129  S    
O22   C123  S    
C60   O40   S    
C143  C144  S    
C67   O28   S    
O25   H69   S    
C98   C105  A    
C49   C65   A    
C51   C75   A    
C132  H84   S    
C139  H102  S    
C116  H38   S    
C151  H133  S    
C61   O33   S    
O19   C117  S    
Cu4   O7    S    
C86   C94   A    
C136  H95   S    
C58   C66   A    
C20   C24   A    
C148  H125  S    
C13   C109  A    
C121  H49   S    
Cu1   O10   S    
C134  H89   S    
C52   C68   A    
C46   H22   S    
C78   C86   A    
C32   C40   A    
C116  H37   S    
C127  H64   S    
C21   O46   S    
C63   O35   S    
C129  H78   S    
C130  H80   S    
C6    O14   A    
C18   H26   S    
C107  H15   S    
C24   N4    A    
C125  H59   S    
C118  H43   S    
C133  H88   S    
C142  H111  S    
C144  H115  S    
C138  H99   S    
C132  H85   S    
C147  H122  S    
C59   O39   S    
C144  H116  S    
C121  C122  S    
C120  H47   S    
C128  H66   S    
C150  H130  S    
C50   C66   A    
C11   C107  A    
C113  H29   S    
C114  H33   S    
C137  H98   S    
C9    C93   A    
C85   C101  A    
C160  H154  S    
C59   C91   A    
C22   O45   S    
C11   C95   A    
C143  H112  S    
C100  C107  A    
C19   H27   S    
C13   C89   A    
C76   H7    S    
C72   O31   S    
Cu4   O16   S    
C125  C126  S    
C104  C111  A    
C80   H11   S    
C126  H62   S    
C158  H149  S    
C3    O3    A    
C2    C51   S    
Cu3   O14   S    
C1    O9    A    
C141  H108  S    
C123  C124  S    
C4    O12   A    
C81   C97   A    
C5    O5    A    
C140  H105  S    
C31   C39   A    
C135  H93   S    
C64   C72   A    
O42   C147  S    
C8    O8    A    
C134  H91   S    
C159  H153  S    
C113  C114  S    
C27   N3    A    
O26   H70   S    
C25   N1    A    
C154  H139  S    
O29   H73   S    
C58   O38   S    
C136  H94   S    
