data_str_m2_o10_o29_f0_pcu.sym.198
_audit_creation_date              2012-12-10T16:51:17-0500
_audit_creation_method            fapswitch 2.2
_symmetry_space_group_name_H-M    P1
_symmetry_Int_Tables_number       1
_space_group_crystal_system       triclinic
_cell_length_a                    27.758405
_cell_length_b                    8.800477
_cell_length_c                    7.461164
_cell_angle_alpha                 103.43686
_cell_angle_beta                  94.645306
_cell_angle_gamma                 94.998012
_cell_volume                      1756.36853844

loop_
_atom_site_label
_atom_site_type_symbol
_atom_type_description
_atom_site_fract_x
_atom_site_fract_y
_atom_site_fract_z
_atom_type_partial_charge
C1    C     C_R   0.499213 0.200448 0.453323 0.855945
C2    C     C_R   0.500787 0.799551 0.546677 0.855964
C3    C     C_R   0.101796 0.492049 0.488872 -0.056224
C4    C     C_R   0.898207 0.507937 0.511267 -0.056220
C5    C     C_R   0.120638 0.354147 0.393619 -0.084656
C6    C     C_R   0.879363 0.645841 0.606505 -0.084667
C7    C     C_R   0.087904 0.219269 0.305827 -0.016842
C8    C     C_R   0.912096 0.780718 0.694308 -0.016822
C9    C     C_R   0.134181 0.626341 0.579896 -0.101270
C10   C     C_R   0.865823 0.373640 0.420248 -0.101268
C11   C     C_R   0.354764 0.487637 0.500160 -0.093456
C12   C     C_R   0.645236 0.512356 0.499843 -0.093481
C13   C     C_R   0.967518 0.362718 0.419559 0.027871
C14   C     C_R   0.032487 0.637270 0.580605 0.027885
C15   C     C_R   0.981561 0.639196 0.592764 0.039142
C16   C     C_R   0.018442 0.360797 0.407383 0.039130
C17   C     C_R   0.949215 0.503536 0.507276 0.083754
C18   C     C_R   0.050788 0.496455 0.492874 0.083757
C19   C     C_R   0.934449 0.225275 0.356017 -0.191497
C20   C     C_R   0.065559 0.774706 0.644182 -0.191491
C21   C     C_R   0.884224 0.227920 0.355513 -0.029046
C22   C     C_R   0.115783 0.772057 0.644671 -0.029057
C23   C     C_R   0.407617 0.495774 0.500457 0.855252
C24   C     C_R   0.592383 0.504226 0.499543 0.855279
C25   C     C_R   0.037927 0.227315 0.308792 -0.242891
C26   C     C_R   0.962073 0.772681 0.691339 -0.242853
C27   C     C_2   0.501497 0.034689 0.427549 -0.295171
C28   C     C_2   0.498504 0.965311 0.572451 -0.295180
C29   C     C_R   0.171437 0.361670 0.382550 0.578619
C30   C     C_R   0.828562 0.638318 0.617546 0.578589
C31   C     C_R   0.183963 0.608652 0.602053 0.574443
C32   C     C_R   0.816042 0.391327 0.398060 0.574450
C33   C     C_R   0.280972 0.604185 0.442407 -0.053084
C34   C     C_R   0.719024 0.395795 0.557616 -0.053066
C35   C     C_R   0.331195 0.606378 0.445367 -0.181667
C36   C     C_R   0.668801 0.393604 0.554627 -0.181670
C37   C     C_R   0.327360 0.363037 0.549821 -0.076868
C38   C     C_R   0.672644 0.636963 0.450215 -0.076893
C39   C     C_R   0.276845 0.364265 0.549836 -0.113684
C40   C     C_R   0.723160 0.635728 0.450223 -0.113681
C41   C     C_R   0.253591 0.483518 0.495123 0.290844
C42   C     C_R   0.746410 0.516467 0.504933 0.290823
Cu1   Cu    Cu3+1 0.505380 0.517380 0.684380 1.050036
Cu2   Cu    Cu3+1 0.494620 0.482620 0.315620 1.050047
H1    H     H_    0.460116 0.380470 0.948894 0.233117
H2    H     H_    0.539883 0.619530 0.051106 0.233116
H3    H     H_    0.255141 0.270352 0.587696 0.198836
H4    H     H_    0.744867 0.729645 0.412388 0.198851
H5    H     H_    0.648162 0.298625 0.594494 0.166774
H6    H     H_    0.351831 0.701353 0.405479 0.166777
H7    H     H_    0.736771 0.303370 0.600674 0.177033
H8    H     H_    0.263222 0.696602 0.399348 0.177014
H9    H     H_    0.946950 0.111133 0.315691 0.185572
H10   H     H_    0.053061 0.888850 0.684552 0.185567
H11   H     H_    0.014730 0.124921 0.231326 0.186136
H12   H     H_    0.985268 0.875086 0.768794 0.186094
N1    N     N_R   0.201818 0.483344 0.494425 -0.468224
N2    N     N_R   0.798184 0.516640 0.505663 -0.468221
N3    N     N_2   0.486510 0.456430 0.038510 -0.186078
N4    N     N_2   0.513490 0.543570 0.961490 -0.186081
O1    O     O_R   0.503500 0.286120 0.619780 -0.575155
O2    O     O_R   0.496500 0.713880 0.380220 -0.575148
O3    O     O_R   0.494410 0.256780 0.308360 -0.562874
O4    O     O_R   0.505590 0.743220 0.691640 -0.562874
O5    O     O_R   0.434810 0.514700 0.655690 -0.574678
O6    O     O_R   0.565190 0.485300 0.344310 -0.574665
O7    O     O_R   0.425720 0.485350 0.344280 -0.567623
O8    O     O_R   0.574280 0.514650 0.655720 -0.567634
O9    O     O_2   0.190414 0.253071 0.257417 -0.482269
O10   O     O_2   0.809580 0.746924 0.742656 -0.482256
O11   O     O_2   0.785778 0.287714 0.266250 -0.479434
O12   O     O_2   0.214232 0.712259 0.733853 -0.479433
C43   C     C_2   0.349516 0.224807 0.587521 0.865990
O13   O     O_2   0.332792 0.155645 0.697003 -0.534249
O14   O     O_R   0.387759 0.168120 0.490277 -0.772872
H13   H     H_    0.396911 0.065790 0.516172 0.348441
C44   C     C_2   0.650493 0.775206 0.412534 0.866033
O15   O     O_2   0.667236 0.844420 0.303141 -0.534257
O16   O     O_R   0.612236 0.831855 0.509698 -0.772895
H14   H     H_    0.603089 0.934201 0.483830 0.348444
C45   C     C_2   0.103085 0.062386 0.220907 0.936072
O17   O     O_2   0.078906 0.977247 0.084376 -0.591992
O18   O     O_R   0.142439 0.006246 0.303898 -0.702807
H15   H     H_    0.148139 0.896762 0.234699 0.347292
C46   C     C_2   0.896914 0.937586 0.779276 0.936041
O19   O     O_2   0.921085 0.022676 0.915858 -0.591976
O20   O     O_R   0.857570 0.993769 0.696285 -0.702829
H16   H     H_    0.851866 0.103233 0.765534 0.347295
C47   C     C_2   0.853352 0.072963 0.307640 0.960729
O21   O     O_2   0.815554 0.056469 0.377942 -0.521713
O22   O     O_R   0.869206 0.942378 0.191220 -0.737390
H17   H     H_    0.845840 0.843524 0.172947 0.349136
C48   C     C_2   0.146655 0.927013 0.692573 0.960681
O23   O     O_2   0.184447 0.943527 0.622234 -0.521721
O24   O     O_R   0.130808 0.057574 0.809062 -0.737402
H18   H     H_    0.154173 0.156432 0.827345 0.349166
C49   C     C_2   0.509311 0.951401 0.236244 0.911872
O25   O     O_2   0.474797 0.879116 0.129059 -0.547609
O26   O     O_R   0.555819 0.961906 0.178148 -0.737147
H19   H     H_    0.556750 0.901175 0.045484 0.355592
C50   C     C_2   0.490689 0.048599 0.763756 0.911857
O27   O     O_2   0.525205 0.120887 0.870939 -0.547615
O28   O     O_R   0.444182 0.038093 0.821856 -0.737132
H20   H     H_    0.443251 0.098827 0.954519 0.355602

loop_
_geom_bond_atom_site_label_1
_geom_bond_atom_site_label_2
_ccdc_geom_bond_type
O20   H16   S    
C48   O23   D    
C8    C26   A    
C43   O13   D    
C14   C18   A    
Cu2   O6    S    
O24   H18   S    
C34   C42   A    
C32   N2    A    
Cu1   Cu2   S    
C42   N2    S    
C45   O17   D    
C39   C41   A    
C21   C47   S    
C44   O15   D    
C33   H8    S    
C34   H7    S    
C50   O27   D    
C19   C21   A    
C9    C22   A    
Cu2   N3    S    
C3    C18   A    
C40   H4    S    
C8    C46   S    
C23   O7    A    
C11   C37   A    
C49   O26   S    
C28   C50   S    
H1    N3    S    
O26   H19   S    
Cu1   O8    S    
C12   C36   A    
C5    C29   A    
C24   O6    A    
C19   H9    S    
C40   C42   A    
N3    N4    D    
C50   O28   S    
C43   O14   S    
C1    O3    A    
C30   O10   S    
C2    O4    A    
Cu1   O4    S    
C49   O25   D    
C32   O11   S    
C29   O9    S    
C44   O16   S    
C10   C21   A    
C13   C19   A    
C46   O20   S    
C14   C20   A    
C20   H10   S    
O22   H17   S    
C5    C7    A    
C9    C31   A    
C15   C26   A    
C6    C8    A    
Cu2   O2    S    
C46   O19   D    
C6    C30   A    
C26   H12   S    
O14   H13   S    
C3    C9    A    
O18   H15   S    
Cu1   O5    S    
C35   H6    S    
C16   C18   A    
Cu1   N4    S    
C4    C17   A    
C4    C6    A    
C31   O12   S    
C7    C45   S    
C20   C22   A    
C22   C48   S    
C47   O22   S    
C4    C10   A    
O28   H20   S    
Cu1   O1    S    
C39   H3    S    
C16   C25   A    
C15   C17   A    
C37   C43   S    
C27   C49   S    
H2    N4    S    
C25   H11   S    
C29   N1    A    
C3    C5    A    
C1    O1    A    
C45   O18   S    
C38   C44   S    
C12   C24   S    
C7    C25   A    
C13   C17   A    
C33   C41   A    
C23   O5    A    
C11   C35   A    
C41   N1    S    
C37   C39   A    
C38   C40   A    
C31   N1    A    
C30   N2    A    
C11   C23   S    
C33   C35   A    
C34   C36   A    
C12   C38   A    
C24   O8    A    
O16   H14   S    
C10   C32   A    
C48   O24   S    
Cu2   O3    S    
C13   C16   A    
C27   C28   D    
C1    C27   S    
C14   C15   A    
Cu2   O7    S    
C2    C28   S    
C47   O21   D    
C36   H5    S    
C2    O2    A    
