data_str_m2_o14_o18_f0_pcu.sym.159
_audit_creation_date              2012-12-10T17:19:54-0500
_audit_creation_method            fapswitch 2.2
_symmetry_space_group_name_H-M    P1
_symmetry_Int_Tables_number       1
_space_group_crystal_system       triclinic
_cell_length_a                    9.622993
_cell_length_b                    10.749025
_cell_length_c                    15.481689
_cell_angle_alpha                 87.522824
_cell_angle_beta                  74.106771
_cell_angle_gamma                 90.090577
_cell_volume                      1538.58713837

loop_
_atom_site_label
_atom_site_type_symbol
_atom_type_description
_atom_site_fract_x
_atom_site_fract_y
_atom_site_fract_z
_atom_type_partial_charge
C1    C     C_R   0.000272 0.262863 0.499306 0.796414
C2    C     C_R   0.677646 0.522722 0.908300 0.092844
C3    C     C_R   0.776175 0.488670 0.958387 0.166958
C4    C     C_R   0.529647 0.543271 0.953861 0.070784
C5    C     C_R   0.481435 0.522269 0.048949 0.064033
C6    C     C_R   0.585072 0.494165 0.096325 -0.244722
C7    C     C_R   0.729132 0.477320 0.051668 -0.244017
C8    C     C_R   0.428189 0.583895 0.907776 -0.229691
C9    C     C_R   0.283706 0.599050 0.952673 -0.237493
C10   C     C_R   0.233781 0.572489 0.044710 0.168917
C11   C     C_R   0.331372 0.531848 0.093645 0.095689
C12   C     C_R   0.918265 0.500984 0.671969 0.789998
C13   C     C_R   0.086663 0.586674 0.088502 -0.215944
C14   C     C_R   0.034462 0.560015 0.180577 -0.204711
C15   C     C_R   0.274690 0.501062 0.185735 -0.220383
C16   C     C_R   0.143060 0.140586 0.334818 -0.263201
C17   C     C_R   0.208927 0.080647 0.255711 0.557948
C18   C     C_R   0.200109 0.951102 0.254492 -0.217435
C19   C     C_R   0.131618 0.881172 0.332569 -0.296717
C20   C     C_R   0.069952 0.939915 0.413796 0.100244
C21   C     C_R   0.072966 0.071224 0.414506 0.025176
C22   C     C_R   0.002260 0.129348 0.494609 -0.061906
C23   C     C_R   0.000430 0.737239 0.498649 0.765601
C24   C     C_R   0.929938 0.059515 0.571897 -0.184652
C25   C     C_R   0.930340 0.931001 0.571820 -0.196495
C26   C     C_R   0.001424 0.871322 0.494093 -0.056931
C27   C     C_R   0.697528 0.664643 0.380368 -0.118242
C28   C     C_R   0.651968 0.745555 0.321682 -0.209523
C29   C     C_R   0.508554 0.746814 0.322226 -0.203163
C30   C     C_R   0.410091 0.666921 0.381297 -0.114028
C31   C     C_R   0.451475 0.582214 0.442016 0.187951
C32   C     C_R   0.600809 0.581638 0.441736 0.115117
C33   C     C_R   0.549812 0.420638 0.555714 0.533590
C34   C     C_R   0.081976 0.502892 0.327998 0.743188
C35   C     C_R   0.401379 0.420388 0.554111 -0.186452
C36   C     C_R   0.873452 0.502498 0.770501 -0.062157
C37   C     C_R   0.128835 0.517979 0.229661 -0.034951
C38   C     C_R   0.921270 0.465228 0.914582 -0.213675
C39   C     C_R   0.969671 0.471993 0.821170 -0.196813
C40   C     C_R   0.730180 0.530518 0.814044 -0.258936
Cu1   Cu    Cu3+1 0.140660 0.499990 0.500010 0.928110
Cu2   Cu    Cu3+1 0.859340 0.500010 0.499990 0.973012
H1    H     H_    0.804012 0.453452 0.090663 0.155290
H2    H     H_    0.012352 0.620306 0.051660 0.142356
H3    H     H_    0.874975 0.104870 0.632851 0.143011
H4    H     H_    0.146612 0.241223 0.332765 0.147949
H5    H     H_    0.246475 0.904459 0.192747 0.159907
H6    H     H_    0.124942 0.781326 0.328316 0.133653
H7    H     H_    0.875954 0.877653 0.632795 0.138538
H8    H     H_    0.809858 0.670730 0.374249 0.193733
H9    H     H_    0.728850 0.807634 0.275379 0.153881
H10   H     H_    0.341618 0.462891 0.225368 0.147155
H11   H     H_    0.473093 0.809961 0.276365 0.154722
H12   H     H_    0.303310 0.675109 0.375947 0.194850
H13   H     H_    0.325091 0.353586 0.595441 0.144201
H14   H     H_    0.921408 0.574809 0.213456 0.153400
H15   H     H_    0.210091 0.630881 0.914694 0.149240
H16   H     H_    0.996699 0.438794 0.952589 0.147708
H17   H     H_    0.081194 0.450429 0.788713 0.149289
H18   H     H_    0.661080 0.554660 0.772178 0.150167
H19   H     H_    0.559379 0.486048 0.168540 0.150526
H20   H     H_    0.456546 0.607553 0.836842 0.136833
N1    N     N_R   0.648320 0.501210 0.499140 -0.232048
N2    N     N_R   0.352470 0.501290 0.499110 -0.212031
O1    O     O_R   0.118810 0.319640 0.500010 -0.581411
O2    O     O_R   0.881240 0.319660 0.500000 -0.514983
O3    O     O_R   0.055570 0.499980 0.629840 -0.581018
O4    O     O_R   0.818000 0.500010 0.629830 -0.552073
O5    O     O_R   0.118760 0.680340 0.500000 -0.588329
O6    O     O_R   0.881190 0.680360 0.499990 -0.596985
O7    O     O_R   0.182000 0.499990 0.370170 -0.607285
O8    O     O_R   0.944430 0.500020 0.370160 -0.599568
O9    O     O_3   0.272484 0.149330 0.177389 -0.577921
C41   C     C_3   0.415760 0.178209 0.176516 -0.327719
H21   H     H_    0.479518 0.092228 0.178262 0.158857
H22   H     H_    0.419223 0.237328 0.233186 0.157221
H23   H     H_    0.467947 0.231841 0.113035 0.206322
O10   O     O_3   0.600822 0.331726 0.606776 -0.544143
C42   C     C_3   0.515672 0.325320 0.697188 0.049175
H24   H     H_    0.411169 0.276622 0.703832 0.130099
H25   H     H_    0.495253 0.419780 0.724522 0.125737
C43   C     C_3   0.594787 0.249672 0.753840 -0.750734
H26   H     H_    0.704796 0.288709 0.744816 0.246937
H27   H     H_    0.534080 0.251326 0.825980 0.207234
H28   H     H_    0.604350 0.151660 0.733247 0.234923

loop_
_geom_bond_atom_site_label_1
_geom_bond_atom_site_label_2
_ccdc_geom_bond_type
C14   H14   S    
C16   C21   A    
C40   H18   S    
C34   C37   S    
Cu1   Cu2   S    
C23   O5    A    
C19   C20   A    
C4    C8    A    
C18   H5    S    
Cu1   O3    S    
C30   H12   S    
C41   H22   S    
C24   H3    S    
C6    H19   S    
C28   C29   A    
C5    C11   A    
C3    C7    A    
C5    C6    A    
C28   H9    S    
C33   O10   S    
Cu2   O6    S    
C18   C19   A    
O9    C41   S    
C23   C26   S    
C15   C37   A    
C38   H16   S    
C11   C15   A    
C3    C38   A    
C8    C9    A    
C41   H23   S    
C1    O1    A    
C35   N2    A    
C7    H1    S    
C12   C36   S    
C9    C10   A    
C27   H8    S    
Cu1   O7    S    
C1    C22   S    
C21   C22   A    
C17   O9    S    
C23   O6    A    
C17   C18   A    
C38   C39   A    
C12   O3    A    
C41   H21   S    
C35   H13   S    
C36   C40   A    
C24   C25   A    
C16   H4    S    
C42   H25   S    
O10   C42   S    
C16   C17   A    
Cu1   O1    S    
C25   C26   A    
C2    C4    A    
C29   C30   A    
C12   O4    A    
C31   C32   A    
C33   N1    A    
C39   H17   S    
Cu2   O8    S    
C1    O2    A    
C15   H10   S    
C43   H27   S    
C22   C24   A    
C34   O8    A    
Cu1   O5    S    
C27   C32   A    
C19   H6    S    
C31   N2    A    
C36   C39   A    
C32   N1    A    
C4    C5    A    
C20   C26   A    
C10   C13   A    
C42   C43   S    
C6    C7    A    
C43   H28   S    
C2    C3    A    
C14   C37   A    
C30   C31   A    
C29   H11   S    
C34   O7    A    
C33   C35   A    
C9    H15   S    
Cu2   O4    S    
C25   H7    S    
C10   C11   A    
C42   H24   S    
C2    C40   A    
C20   C21   A    
C43   H26   S    
C27   C28   A    
Cu2   O2    S    
Cu1   N2    S    
C13   C14   A    
Cu2   N1    S    
C13   H2    S    
C8    H20   S    
