data_str_m9_o18_o22_f0_sra.sym.72
_audit_creation_date              2012-12-11T15:29:44-0500
_audit_creation_method            fapswitch 2.2
_symmetry_space_group_name_H-M    P1
_symmetry_Int_Tables_number       1
_space_group_crystal_system       triclinic
_cell_length_a                    21.407508
_cell_length_b                    7.246071
_cell_length_c                    14.747433
_cell_angle_alpha                 90.000174
_cell_angle_beta                  74.487086
_cell_angle_gamma                 89.999936
_cell_volume                      2204.28877998

loop_
_atom_site_label
_atom_site_type_symbol
_atom_type_description
_atom_site_fract_x
_atom_site_fract_y
_atom_site_fract_z
_atom_type_partial_charge
O1    O     O_R   0.464160 0.506670 0.130070 -0.532522
O2    O     O_R   0.535840 0.006670 0.869930 -0.532522
O3    O     O_R   0.589710 0.179080 0.006710 -0.546368
O4    O     O_R   0.410290 0.679080 0.993290 -0.546368
C1    C     C_R   0.616293 0.344127 0.002276 0.649276
C2    C     C_R   0.383707 0.844127 0.997724 0.649276
O5    O     O_R   0.467940 0.177220 0.138010 -0.539968
O6    O     O_R   0.532060 0.677220 0.861990 -0.539968
O7    O     O_R   0.413200 0.002810 0.002170 -0.539003
O8    O     O_R   0.586800 0.502810 0.997830 -0.539003
C3    C     C_R   0.456433 0.345526 0.174441 0.681218
C4    C     C_R   0.543567 0.845525 0.825559 0.681219
O9    O     O_3   0.482180 0.337850 0.955280 -0.375011
O10   O     O_3   0.517820 0.837850 0.044720 -0.375012
V1    V     V_3+5 0.503310 0.064600 0.008300 1.400070
V2    V     V_3+5 0.496690 0.564600 0.991700 1.400072
C5    C     C_R   0.571134 0.853243 0.723809 -0.021702
C6    C     C_R   0.428866 0.353244 0.276191 -0.021705
C7    C     C_R   0.927855 0.864795 0.276058 -0.028234
C8    C     C_R   0.072145 0.364789 0.723942 -0.028233
C9    C     C_R   0.557708 0.857166 0.566752 -0.120326
C10   C     C_R   0.442292 0.357179 0.433248 -0.120329
C11   C     C_R   0.530848 0.855345 0.663705 -0.185784
C12   C     C_R   0.469151 0.355355 0.336295 -0.185785
C13   C     C_R   0.638374 0.854527 0.687312 -0.181603
C14   C     C_R   0.361625 0.354519 0.312688 -0.181603
C15   C     C_R   0.667328 0.857153 0.588985 0.021701
C16   C     C_R   0.332672 0.357142 0.411015 0.021701
C17   C     C_R   0.625503 0.857413 0.528446 0.033178
C18   C     C_R   0.374497 0.357416 0.471554 0.033177
C19   C     C_R   0.736108 0.858010 0.549328 0.058272
C20   C     C_R   0.263892 0.357986 0.450672 0.058272
C21   C     C_R   0.762123 0.855989 0.449382 -0.006963
C22   C     C_R   0.237876 0.355979 0.550617 -0.006964
C23   C     C_R   0.718597 0.851638 0.392348 -0.280772
C24   C     C_R   0.281403 0.351640 0.607652 -0.280773
C25   C     C_R   0.651578 0.857616 0.430545 0.436803
C26   C     C_R   0.348422 0.357623 0.569455 0.436803
C27   C     C_R   0.779795 0.860183 0.606367 -0.170398
C28   C     C_R   0.220204 0.360126 0.393632 -0.170398
C29   C     C_R   0.846340 0.859710 0.567548 -0.211617
C30   C     C_R   0.153659 0.359639 0.432451 -0.211617
C31   C     C_R   0.872454 0.859095 0.470495 0.142032
C32   C     C_R   0.127545 0.359046 0.529505 0.142032
C33   C     C_R   0.830972 0.857880 0.409722 0.112592
C34   C     C_R   0.169028 0.357865 0.590278 0.112593
C35   C     C_R   0.940133 0.861531 0.433759 -0.169591
C36   C     C_R   0.059866 0.361467 0.566241 -0.169590
C37   C     C_R   0.967662 0.864672 0.336976 -0.179248
C38   C     C_R   0.032337 0.364625 0.663024 -0.179248
C39   C     C_R   0.860441 0.861268 0.311567 -0.215800
C40   C     C_R   0.139559 0.361281 0.688433 -0.215801
H1    H     H_    0.832887 0.864090 0.260266 0.088195
H2    H     H_    0.167114 0.364138 0.739733 0.088195
H3    H     H_    0.019933 0.867890 0.309553 0.101245
H4    H     H_    0.980066 0.367826 0.690448 0.101245
H5    H     H_    0.877773 0.861271 0.614293 0.119506
H6    H     H_    0.122226 0.361173 0.385706 0.119505
H7    H     H_    0.525071 0.858037 0.521876 0.161732
H8    H     H_    0.474928 0.358058 0.478124 0.161734
H9    H     H_    0.478640 0.855002 0.691937 0.101675
H10   H     H_    0.521360 0.355019 0.308063 0.101679
H11   H     H_    0.666238 0.851378 0.738181 0.083321
H12   H     H_    0.333762 0.351369 0.261819 0.083321
H13   H     H_    0.734652 0.842015 0.316900 0.137771
H14   H     H_    0.265347 0.342017 0.683100 0.137773
H15   H     H_    0.764524 0.862911 0.681995 0.113717
H16   H     H_    0.235475 0.362831 0.318005 0.113717
H17   H     H_    0.971819 0.862313 0.480104 0.119623
H18   H     H_    0.028180 0.362219 0.519897 0.119623
C41   C     C_3   0.212702 0.659623 0.993731 -0.312488
C42   C     C_3   0.787298 0.159624 0.006271 -0.312487
H19   H     H_    0.184064 0.577725 0.054603 0.139683
H20   H     H_    0.815935 0.077723 0.945399 0.139683
H21   H     H_    0.206455 0.593483 0.928564 0.134756
H22   H     H_    0.793545 0.093486 0.071438 0.134756
C43   C     C_3   0.285011 0.653132 0.992442 -0.314342
C44   C     C_3   0.714989 0.153132 0.007559 -0.314343
H23   H     H_    0.312918 0.583738 0.926696 0.136673
H24   H     H_    0.687082 0.083741 0.073306 0.136669
H25   H     H_    0.290470 0.568046 0.052731 0.136487
H26   H     H_    0.709530 0.068043 0.947271 0.136487
H27   H     H_    0.169082 0.872190 0.154347 0.122151
H28   H     H_    0.830918 0.372183 0.845652 0.122150
H29   H     H_    0.276744 0.862832 0.152398 0.129519
H30   H     H_    0.723256 0.362824 0.847602 0.129519
C45   C     C_3   0.198280 0.948071 0.091667 -0.327220
C46   C     C_3   0.801720 0.448067 0.908333 -0.327218
C47   C     C_3   0.229791 0.969837 0.914973 -0.315799
C48   C     C_3   0.770209 0.469841 0.085026 -0.315802
C49   C     C_3   0.187408 0.861812 0.000657 0.119136
C50   C     C_3   0.812592 0.361812 0.999343 0.119136
H31   H     H_    0.213734 0.116308 0.917759 0.139593
H32   H     H_    0.786266 0.616312 0.082240 0.139593
H33   H     H_    0.223543 0.909945 0.848464 0.128586
H34   H     H_    0.776457 0.409952 0.151536 0.128587
C51   C     C_3   0.312421 0.850654 0.998398 0.112464
C52   C     C_3   0.687579 0.350654 0.001602 0.112464
C53   C     C_3   0.271117 0.941701 0.090312 -0.315950
C54   C     C_3   0.728883 0.441697 0.909687 -0.315950
C55   C     C_3   0.302656 0.963262 0.913658 -0.317691
C56   C     C_3   0.697344 0.463265 0.086342 -0.317691
H35   H     H_    0.331230 0.899986 0.846599 0.124635
H36   H     H_    0.668769 0.399992 0.153401 0.124637
H37   H     H_    0.320930 0.106513 0.915920 0.149514
H38   H     H_    0.679070 0.606517 0.084078 0.149514
H39   H     H_    0.181418 0.093954 0.098632 0.140526
H40   H     H_    0.818582 0.593950 0.901367 0.140526
H41   H     H_    0.288623 0.084536 0.096593 0.135823
H42   H     H_    0.711377 0.584532 0.903405 0.135824
O11   O     O_R   0.913210 0.208550 0.002110 -0.539606
O12   O     O_R   0.086790 0.708550 0.997890 -0.539606
O13   O     O_R   0.032060 0.539960 0.861980 -0.538310
O14   O     O_R   0.967940 0.039960 0.138020 -0.538309
C57   C     C_R   0.043899 0.372596 0.825465 0.688880
C58   C     C_R   0.956100 0.872597 0.174534 0.688880
O15   O     O_R   0.910290 0.538020 0.993280 -0.544427
O16   O     O_R   0.089710 0.038020 0.006720 -0.544427
O17   O     O_R   0.964160 0.712340 0.130090 -0.535296
O18   O     O_R   0.035840 0.212340 0.869910 -0.535296
C59   C     C_R   0.883958 0.369781 0.998168 0.642348
C60   C     C_R   0.116042 0.869781 0.001832 0.642348
O19   O     O_3   0.017820 0.379210 0.044690 -0.376006
O20   O     O_3   0.982180 0.879210 0.955310 -0.376007
V3    V     V_3+5 0.996690 0.652500 0.991710 1.391844
V4    V     V_3+5 0.003310 0.152500 0.008290 1.391844
O21   O     O_3   0.611191 0.848021 0.371348 -0.554743
C61   C     C_3   0.609434 0.022663 0.329835 -0.276684
H43   H     H_    0.657322 0.059566 0.281649 0.129613
H44   H     H_    0.593027 0.131823 0.384188 0.139232
H45   H     H_    0.573979 0.017412 0.287088 0.170083
O22   O     O_3   0.388808 0.348037 0.628653 -0.554742
C62   C     C_3   0.390568 0.522685 0.670157 -0.276687
H46   H     H_    0.342677 0.559614 0.718329 0.129613
H47   H     H_    0.406986 0.631826 0.615798 0.139237
H48   H     H_    0.426015 0.517430 0.712917 0.170081

loop_
_geom_bond_atom_site_label_1
_geom_bond_atom_site_label_2
_ccdc_geom_bond_type
H27   C45   S    
C3    C6    S    
C54   H42   S    
C45   C49   S    
C44   H26   S    
O11   C59   A    
C21   C33   A    
O1    C3    A    
C42   H22   S    
O2    C4    A    
C61   H43   S    
C30   H6    S    
C2    O7    A    
C27   C29   A    
C36   C38   A    
O5    C3    A    
C5    C11   A    
C6    C12   A    
C23   C25   A    
C9    H7    S    
C10   H8    S    
C46   H40   S    
C24   H14   S    
O13   V3    S    
C23   H13   S    
C53   H41   S    
C34   C40   A    
C15   C17   A    
C18   C26   A    
C13   H11   S    
C14   H12   S    
C35   H17   S    
C42   C44   S    
C48   C56   S    
C46   C50   S    
C40   H2    S    
O22   C62   S    
C49   C60   S    
C6    C14   A    
C4    C5    S    
C44   C52   S    
C62   H48   S    
C8    C38   A    
C19   C21   A    
C43   C51   S    
C22   C34   A    
C47   C49   S    
H30   C54   S    
C28   C30   A    
C55   H35   S    
C29   C31   A    
C30   C32   A    
O4    V2    S    
C51   C53   S    
C32   C34   A    
C48   H32   S    
C45   C53   S    
C43   H23   S    
C55   H37   S    
C15   C19   A    
C2    C51   S    
C16   C20   A    
C42   H20   S    
C41   H19   S    
O19   V4    S    
C37   H3    S    
C9    C17   A    
C38   H4    S    
C39   H1    S    
C26   O22   S    
C47   H33   S    
O16   C60   A    
O12   C60   A    
H29   C53   S    
C7    C37   A    
C48   C50   S    
C43   H25   S    
O6    C4    A    
O11   V4    S    
C44   H24   S    
C41   C49   S    
O1    V2    S    
C56   H36   S    
O2    V1    S    
C31   C33   A    
O12   V3    S    
C46   C54   S    
O18   V4    S    
O17   V3    S    
O4    C2    A    
C52   C54   S    
C9    C11   A    
C62   H46   S    
C10   C12   A    
C13   C15   A    
O21   C61   S    
C61   H45   S    
C41   C43   S    
O3    V1    S    
C12   H10   S    
C10   C18   A    
C47   C55   S    
C27   H15   S    
H28   C46   S    
C36   H18   S    
O3    C1    A    
C61   H44   S    
C8    C57   S    
O14   C58   A    
C16   C18   A    
C48   H34   S    
O15   C59   A    
C35   C37   A    
C14   C16   A    
C58   O17   A    
C5    C13   A    
C24   C26   A    
O7    V1    S    
C29   H5    S    
C1    O8    A    
C8    C40   A    
C52   C56   S    
C50   C59   S    
C41   H21   S    
C31   C35   A    
C7    C58   S    
C42   C50   S    
O5    V1    S    
C21   C23   A    
C19   C27   A    
C56   H38   S    
C22   C24   A    
C20   C28   A    
C47   H31   S    
C7    C39   A    
C11   H9    S    
C45   H39   S    
C1    C52   S    
O6    V2    S    
C57   O18   A    
C28   H16   S    
O9    V2    S    
C17   C25   A    
C62   H47   S    
O14   V4    S    
C33   C39   A    
O10   V1    S    
O8    V2    S    
O16   V4    S    
C25   O21   S    
O15   V3    S    
C51   C55   S    
C32   C36   A    
C20   C22   A    
O20   V3    S    
O13   C57   A    
