data_str_m2_o5_o29_f0_pcu.sym.91
_audit_creation_date              2013-03-05T16:36:16-0500
_audit_creation_method            fapswitch 2.2
_symmetry_space_group_name_H-M    P1
_symmetry_Int_Tables_number       1
_space_group_crystal_system       triclinic
_cell_length_a                    27.909463
_cell_length_b                    9.082502
_cell_length_c                    7.770718
_cell_angle_alpha                 89.860041
_cell_angle_beta                  90.357614
_cell_angle_gamma                 90.067103
_cell_volume                      1969.73628818

loop_
_atom_site_label
_atom_site_type_symbol
_atom_site_description
_atom_site_fract_x
_atom_site_fract_y
_atom_site_fract_z
_atom_type_partial_charge
O1    O     O_R   0.500000 0.288390 0.642760 -0.580212
O2    O     O_R   0.500000 0.711610 0.357240 -0.580266
O3    O     O_R   0.500000 0.711610 0.642760 -0.578756
O4    O     O_R   0.500000 0.288390 0.357240 -0.578771
C1    C     C_R   0.499995 0.219982 0.500132 0.833983
C2    C     C_R   0.500005 0.780018 0.499868 0.833825
O5    O     O_R   0.430260 0.500000 0.642770 -0.517729
O6    O     O_R   0.569740 0.500000 0.357230 -0.517641
O7    O     O_R   0.569740 0.500000 0.642770 -0.581537
O8    O     O_R   0.430260 0.500000 0.357230 -0.581614
C3    C     C_R   0.407129 0.503505 0.499367 0.831883
C4    C     C_R   0.592874 0.496497 0.500634 0.831847
Cu1   Cu    Cu3+1 0.500000 0.500000 0.669080 1.066185
Cu2   Cu    Cu3+1 0.500000 0.500000 0.330920 1.066187
C5    C     C_R   0.177730 0.365909 0.505265 0.601166
C6    C     C_R   0.822268 0.634227 0.494438 0.601195
C7    C     C_R   0.177252 0.623189 0.444871 0.549424
C8    C     C_R   0.822750 0.377010 0.555227 0.549542
O9    O     O_2   0.203204 0.241089 0.527779 -0.432100
O10   O     O_2   0.796786 0.758992 0.471624 -0.432067
O11   O     O_2   0.201833 0.750896 0.434059 -0.472155
O12   O     O_2   0.798161 0.249337 0.566325 -0.472157
N1    N     N_R   0.201499 0.495429 0.477696 -0.462104
N2    N     N_R   0.798506 0.504735 0.522216 -0.462182
C9    C     C_R   0.278956 0.547676 0.341799 -0.095282
C10   C     C_R   0.721061 0.453021 0.658408 -0.095552
C11   C     C_R   0.277457 0.454707 0.633308 -0.197174
C12   C     C_R   0.722551 0.544841 0.366409 -0.197190
C13   C     C_R   0.328694 0.559261 0.348817 0.313892
C14   C     C_R   0.671323 0.441404 0.651467 0.313680
C15   C     C_R   0.327790 0.457148 0.640865 0.367514
C16   C     C_R   0.672218 0.542306 0.358846 0.367417
C17   C     C_R   0.253068 0.497845 0.483785 0.206236
C18   C     C_R   0.746940 0.502307 0.516158 0.206610
C19   C     C_R   0.101523 0.493866 0.475004 -0.167471
C20   C     C_R   0.898478 0.506313 0.524885 -0.167498
C21   C     C_R   0.127157 0.362716 0.510360 -0.061607
C22   C     C_R   0.872842 0.637441 0.489424 -0.061624
C23   C     C_R   0.126938 0.622924 0.429829 -0.114934
C24   C     C_R   0.873067 0.377273 0.570176 -0.114940
C25   C     C_R   0.101813 0.232408 0.548196 0.475336
C26   C     C_R   0.898184 0.767749 0.451570 0.475337
C27   C     C_R   0.101185 0.748508 0.375134 0.429057
C28   C     C_R   0.898825 0.251708 0.624900 0.429038
C29   C     C_R   0.354004 0.508393 0.497032 -0.198499
C30   C     C_R   0.646004 0.491650 0.502975 -0.198467
H1    H     H_    0.257042 0.418108 0.743583 0.160944
H2    H     H_    0.742969 0.581016 0.255950 0.160742
H3    H     H_    0.260072 0.582988 0.226661 0.176775
H4    H     H_    0.739953 0.418158 0.773717 0.176507
C31   C     C_R   0.974632 0.371265 0.549750 0.005337
C32   C     C_R   0.025371 0.628928 0.450155 0.005339
C33   C     C_R   0.974641 0.633379 0.468421 0.036483
C34   C     C_R   0.025359 0.366804 0.531435 0.036486
C35   C     C_R   0.949407 0.503716 0.514334 0.070031
C36   C     C_R   0.050595 0.496469 0.485548 0.070028
C37   C     C_R   0.948335 0.248812 0.610248 -0.232930
C38   C     C_R   0.051673 0.751400 0.389730 -0.232914
C39   C     C_R   0.948296 0.764768 0.445196 -0.309872
C40   C     C_R   0.051701 0.235401 0.554600 -0.309911
H5    H     H_    0.965187 0.149689 0.656518 0.165602
H6    H     H_    0.034828 0.850542 0.343494 0.165586
H7    H     H_    0.965693 0.868905 0.424319 0.128343
H8    H     H_    0.034300 0.131263 0.575443 0.128349
C41   C     C_1   0.499999 0.065381 0.500181 -0.146627
C42   C     C_1   0.500000 0.934619 0.499818 -0.146636
N3    N     N_1   0.500000 0.500000 0.076820 -0.015683
N4    N     N_1   0.500000 0.500000 0.923180 -0.015701
O13   O     O_3   0.351793 0.408083 0.786169 -0.669728
H9    H     H_    0.328180 0.376665 0.873827 0.342533
O14   O     O_3   0.648218 0.590680 0.213221 -0.669385
H10   H     H_    0.671832 0.621620 0.125341 0.342793
O15   O     O_3   0.350929 0.623655 0.209731 -0.677445
H11   H     H_    0.377538 0.685451 0.253896 0.336338
O16   O     O_3   0.649093 0.377592 0.790917 -0.677496
H12   H     H_    0.622577 0.315277 0.747037 0.336486
O17   O     O_3   0.126354 0.102758 0.579964 -0.614858
H13   H     H_    0.103475 0.023528 0.610832 0.333890
O18   O     O_3   0.873641 0.897398 0.419807 -0.614917
H14   H     H_    0.896520 0.976646 0.389005 0.333868
O19   O     O_3   0.122679 0.868959 0.299681 -0.660651
H15   H     H_    0.147418 0.831891 0.219813 0.356578
O20   O     O_3   0.877338 0.131270 0.700402 -0.660673
H16   H     H_    0.852630 0.168362 0.780380 0.356566

loop_
_geom_bond_atom_site_label_1
_geom_bond_atom_site_label_2
_geom_bond_distance
_ccdc_geom_bond_type
C38   H6    1.076229 S    
O5    Cu1   1.955844 S    
O15   H11   0.990494 S    
C28   O20   1.378464 S    
O19   H15   0.991045 S    
C33   C39   1.413025 A    
C34   C40   1.413020 A    
O17   H13   0.991517 S    
C11   C17   1.398357 A    
O5    C3    1.284699 A    
C7    N1    1.366645 A    
O1    C1    1.271914 A    
C19   C21   1.415682 A    
C22   C26   1.409407 A    
C10   H4    1.083630 S    
C25   O17   1.383853 S    
C13   O15   1.378304 S    
C7    C23   1.408393 A    
C8    C24   1.408407 A    
C5    C21   1.412543 A    
C20   C24   1.414067 A    
O7    Cu1   1.958380 S    
C27   C38   1.387485 A    
C5    O9    1.349314 S    
C10   C18   1.396687 A    
N1    C17   1.439883 S    
N2    C18   1.439775 S    
Cu2   N3    1.974539 S    
C31   C37   1.412959 A    
C24   C28   1.412083 A    
O3    Cu1   1.932303 S    
C6    O10   1.349310 S    
O3    C2    1.271062 A    
C5    N1    1.366935 A    
C12   C18   1.398290 A    
C26   O18   1.383860 S    
C6    N2    1.366890 A    
Cu1   Cu2   2.627747 S    
O4    Cu2   1.932304 S    
O2    C2    1.271914 A    
C16   O14   1.382403 S    
C33   C35   1.417503 A    
C9    C13   1.392765 A    
C34   C36   1.417489 A    
C11   C15   1.405776 A    
N3    N4    1.193894 T    
C12   C16   1.405788 A    
C4    C30   1.483537 S    
O8    Cu2   1.958383 S    
C23   C27   1.412074 A    
C7    O11   1.349613 S    
C13   C29   1.423706 A    
C19   C23   1.414023 A    
O16   H12   0.990499 S    
O20   H16   0.991047 S    
C15   O13   1.382415 S    
C28   C37   1.387473 A    
O6    C4    1.284747 A    
C32   C38   1.412976 A    
C1    C41   1.404162 S    
C10   C14   1.392752 A    
C27   O19   1.378476 S    
C8    N2    1.366606 A    
C3    C29   1.483384 S    
O1    Cu1   1.933298 S    
C32   C33   1.424459 A    
C11   H1    1.083381 S    
C12   H2    1.083379 S    
O6    Cu2   1.955842 S    
C19   C36   1.424484 A    
C8    O12   1.349608 S    
C16   C30   1.417123 A    
C14   C30   1.423753 A    
C25   C40   1.400079 A    
O4    C1    1.271062 A    
C26   C39   1.400078 A    
C37   H5    1.076238 S    
C39   H7    1.075095 S    
C40   H8    1.075107 S    
C31   C34   1.424435 A    
C20   C22   1.415704 A    
O14   H10   0.991914 S    
C20   C35   1.424489 A    
C14   O16   1.378246 S    
C31   C35   1.420031 A    
C21   C25   1.409406 A    
O13   H9    0.991932 S    
O2    Cu2   1.933297 S    
O7    C4    1.283326 A    
C9    H3    1.083633 S    
O8    C3    1.283297 A    
O18   H14   0.991518 S    
C2    C42   1.404162 S    
C41   C42   1.187657 T    
C15   C29   1.417034 A    
C9    C17   1.396769 A    
C32   C36   1.420041 A    
C6    C22   1.412540 A    
Cu1   N4    1.974539 S    
