data_str_m9_o10_o29_f0_sra.sym.30
_audit_creation_date              2012-12-11T14:08:38-0500
_audit_creation_method            fapswitch 2.2
_symmetry_space_group_name_H-M    P1
_symmetry_Int_Tables_number       1
_space_group_crystal_system       triclinic
_cell_length_a                    28.212923
_cell_length_b                    7.185377
_cell_length_c                    17.211655
_cell_angle_alpha                 90.00028
_cell_angle_beta                  101.983315
_cell_angle_gamma                 90.002426
_cell_volume                      3413.11979581

loop_
_atom_site_label
_atom_site_type_symbol
_atom_type_description
_atom_site_fract_x
_atom_site_fract_y
_atom_site_fract_z
_atom_type_partial_charge
O1    O     O_R   0.000700 0.436510 0.857920 -0.531736
O2    O     O_R   0.999300 0.563490 0.142080 -0.531704
O3    O     O_R   0.999300 0.936510 0.642080 -0.531702
O4    O     O_R   0.000700 0.063490 0.357920 -0.531704
O5    O     O_R   0.930080 0.766380 0.721890 -0.540364
O6    O     O_R   0.069920 0.233620 0.278110 -0.540351
O7    O     O_R   0.069920 0.266380 0.778110 -0.540366
O8    O     O_R   0.930080 0.733620 0.221890 -0.540360
C1    C     C_R   0.910552 0.597796 0.710541 0.700410
C2    C     C_R   0.089452 0.402201 0.289468 0.700310
C3    C     C_R   0.089451 0.097806 0.789464 0.700303
C4    C     C_R   0.910549 0.902194 0.210533 0.700315
O9    O     O_R   0.996180 0.766230 0.862310 -0.543311
O10   O     O_R   0.003820 0.233770 0.137690 -0.543336
O11   O     O_R   0.003820 0.266230 0.637690 -0.543338
O12   O     O_R   0.996180 0.733770 0.362310 -0.543334
O13   O     O_R   0.065870 0.936460 0.783500 -0.537686
O14   O     O_R   0.934130 0.063540 0.216500 -0.537671
O15   O     O_R   0.934130 0.436460 0.716500 -0.537631
O16   O     O_R   0.065870 0.563540 0.283500 -0.537675
C5    C     C_R   0.998571 0.596448 0.894536 0.750538
C6    C     C_R   0.001432 0.403553 0.105464 0.750530
C7    C     C_R   0.001431 0.096447 0.605464 0.750569
C8    C     C_R   0.998568 0.903553 0.394535 0.750522
O17   O     O_3   0.022790 0.603020 0.723980 -0.377282
O18   O     O_3   0.977210 0.396980 0.276020 -0.377252
O19   O     O_3   0.977210 0.103020 0.776020 -0.377260
O20   O     O_3   0.022790 0.896980 0.223980 -0.377254
V1    V     V_3+5 0.995770 0.877900 0.754830 1.397139
V2    V     V_3+5 0.004230 0.122100 0.245170 1.397016
V3    V     V_3+5 0.004230 0.377900 0.745170 1.397068
V4    V     V_3+5 0.995770 0.622100 0.254830 1.397013
C9    C     C_2   0.001735 0.082689 0.519603 -0.338289
C10   C     C_2   0.998265 0.917311 0.480396 -0.338263
C11   C     C_2   0.998267 0.582689 0.980397 -0.338264
C12   C     C_2   0.001736 0.417312 0.019604 -0.338273
H1    H     H_    0.004712 0.211675 0.488057 0.154297
H2    H     H_    0.995288 0.788325 0.511943 0.154295
H3    H     H_    0.995290 0.711675 0.011945 0.154304
H4    H     H_    0.004713 0.288326 0.988056 0.154298
C13   C     C_R   0.678552 0.809980 0.061422 0.580449
C14   C     C_R   0.321451 0.190035 0.938540 0.580469
C15   C     C_R   0.321455 0.310095 0.438586 0.580465
C16   C     C_R   0.678561 0.690269 0.561525 0.580564
O21   O     O_2   0.702886 0.658128 0.045061 -0.518554
O22   O     O_2   0.297117 0.341886 0.954902 -0.518543
O23   O     O_2   0.297121 0.158234 0.454944 -0.518549
O24   O     O_2   0.702896 0.842187 0.545229 -0.518367
N1    N     N_R   0.703322 0.954614 0.103303 -0.554015
N2    N     N_R   0.296680 0.045397 0.896663 -0.554017
N3    N     N_R   0.296685 0.454719 0.396703 -0.554006
N4    N     N_R   0.703331 0.545576 0.603350 -0.554110
C17   C     C_R   0.679341 0.110771 0.119876 0.591073
C18   C     C_R   0.320661 0.889243 0.880087 0.591090
C19   C     C_R   0.320668 0.610884 0.380134 0.591088
C20   C     C_R   0.679352 0.389380 0.619889 0.591173
C21   C     C_R   0.774570 0.806750 0.188230 -0.108499
C22   C     C_R   0.225428 0.193249 0.811742 -0.108480
C23   C     C_R   0.225435 0.306799 0.311784 -0.108493
C24   C     C_R   0.774587 0.692828 0.688520 -0.108349
C25   C     C_R   0.824968 0.790870 0.216903 0.092045
C26   C     C_R   0.175030 0.209124 0.783076 0.092032
C27   C     C_R   0.175037 0.290892 0.283112 0.092029
C28   C     C_R   0.824987 0.708570 0.717205 0.092216
C29   C     C_R   0.836533 0.047634 0.129911 -0.248397
C30   C     C_R   0.163471 0.952371 0.870078 -0.248370
C31   C     C_R   0.163470 0.547702 0.370078 -0.248372
C32   C     C_R   0.836538 0.452932 0.629656 -0.248163
C33   C     C_R   0.786447 0.061712 0.102832 -0.090656
C34   C     C_R   0.213558 0.938295 0.897149 -0.090652
C35   C     C_R   0.213557 0.561807 0.397155 -0.090670
C36   C     C_R   0.786448 0.438923 0.602585 -0.090472
C37   C     C_R   0.755147 0.940789 0.131402 0.337791
C38   C     C_R   0.244854 0.059215 0.868570 0.337780
C39   C     C_R   0.244859 0.440876 0.368598 0.337770
C40   C     C_R   0.755157 0.559363 0.631427 0.337901
C41   C     C_R   0.602471 0.977675 0.051594 -0.045987
C42   C     C_R   0.397532 0.022346 0.948362 -0.045986
C43   C     C_R   0.397538 0.477815 0.448424 -0.045983
C44   C     C_R   0.602479 0.522532 0.551665 -0.045963
C45   C     C_R   0.627869 0.819030 0.034810 -0.041063
C46   C     C_R   0.372134 0.180990 0.965148 -0.041063
C47   C     C_R   0.372138 0.319162 0.465204 -0.041066
C48   C     C_R   0.627878 0.681209 0.534907 -0.041140
C49   C     C_R   0.602272 0.672800 0.991909 -0.137066
C50   C     C_R   0.397731 0.327223 0.008046 -0.137052
C51   C     C_R   0.397734 0.172941 0.508108 -0.137047
C52   C     C_R   0.602281 0.827455 0.492024 -0.137079
C53   C     C_R   0.628642 0.124899 0.094508 -0.036688
C54   C     C_R   0.371361 0.875120 0.905450 -0.036691
C55   C     C_R   0.371368 0.625030 0.405508 -0.036692
C56   C     C_R   0.628651 0.375277 0.594549 -0.036772
C57   C     C_R   0.856753 0.912081 0.186221 -0.062252
C58   C     C_R   0.143247 0.087919 0.813768 -0.062240
C59   C     C_R   0.143250 0.412111 0.313781 -0.062256
C60   C     C_R   0.856762 0.587902 0.686239 -0.062159
H5    H     H_    0.859717 0.141817 0.105633 0.138645
H6    H     H_    0.140289 0.858190 0.894362 0.138635
H7    H     H_    0.140286 0.641896 0.394346 0.138644
H8    H     H_    0.859722 0.359168 0.605168 0.138502
H9    H     H_    0.771935 0.166111 0.058940 0.149117
H10   H     H_    0.228072 0.833899 0.941041 0.149135
H11   H     H_    0.228068 0.666235 0.441038 0.149149
H12   H     H_    0.771927 0.334966 0.558492 0.148894
H13   H     H_    0.620866 0.549053 0.978088 0.172684
H14   H     H_    0.379138 0.450969 0.021867 0.172690
H15   H     H_    0.379139 0.049189 0.521927 0.172689
H16   H     H_    0.620875 0.951221 0.478218 0.172694
C61   C     C_R   0.473941 0.849887 0.956402 0.029159
C62   C     C_R   0.526062 0.150138 0.043551 0.029160
C63   C     C_R   0.526067 0.350053 0.543618 0.029156
C64   C     C_R   0.473948 0.650306 0.456480 0.029153
C65   C     C_R   0.474684 0.161314 0.017696 0.028880
C66   C     C_R   0.525319 0.838711 0.982257 0.028881
C67   C     C_R   0.525327 0.661501 0.482345 0.028875
C68   C     C_R   0.474688 0.338871 0.517765 0.028875
C69   C     C_R   0.448944 0.011089 0.974305 0.066902
C70   C     C_R   0.551059 0.988935 0.025648 0.066900
C71   C     C_R   0.551065 0.511270 0.525724 0.066926
C72   C     C_R   0.448950 0.489091 0.474375 0.066906
C73   C     C_R   0.446334 0.705066 0.912838 -0.187434
C74   C     C_R   0.553669 0.294959 0.087115 -0.187432
C75   C     C_R   0.553674 0.205221 0.587167 -0.187455
C76   C     C_R   0.446343 0.795116 0.412912 -0.187429
C77   C     C_R   0.396267 0.717654 0.888180 -0.134552
C78   C     C_R   0.603736 0.282367 0.111776 -0.134555
C79   C     C_R   0.603743 0.217801 0.611811 -0.134574
C80   C     C_R   0.396276 0.782506 0.388244 -0.134544
O25   O     O_2   0.295664 0.748823 0.838327 -0.520595
O26   O     O_2   0.704338 0.251188 0.161639 -0.520608
O27   O     O_2   0.704356 0.248897 0.661586 -0.520355
O28   O     O_2   0.295673 0.751293 0.338369 -0.520606
C81   C     C_R   0.552222 0.681903 0.966229 -0.186545
C82   C     C_R   0.447781 0.318122 0.033723 -0.186543
C83   C     C_R   0.447784 0.182058 0.533791 -0.186548
C84   C     C_R   0.552230 0.818335 0.466337 -0.186546
H17   H     H_    0.250120 0.283633 0.788955 0.141746
H18   H     H_    0.749876 0.716363 0.211009 0.141737
H19   H     H_    0.749897 0.782817 0.711505 0.141449
H20   H     H_    0.250130 0.216403 0.289013 0.141764
H21   H     H_    0.377086 0.602158 0.855314 0.171283
H22   H     H_    0.622917 0.397862 0.144643 0.171279
H23   H     H_    0.622924 0.102290 0.644662 0.171314
H24   H     H_    0.377096 0.897994 0.355374 0.171280
H25   H     H_    0.462072 0.578315 0.896584 0.130146
H26   H     H_    0.537932 0.421711 0.103368 0.130147
H27   H     H_    0.537935 0.078462 0.603415 0.130158
H28   H     H_    0.462082 0.921869 0.396658 0.130147
H29   H     H_    0.535892 0.561837 0.934094 0.129109
H30   H     H_    0.464112 0.438191 0.065856 0.129111
H31   H     H_    0.464112 0.061999 0.565930 0.129110
H32   H     H_    0.535900 0.938414 0.434216 0.129119
C85   C     C_3   0.157464 0.351029 0.718135 -0.341296
C86   C     C_3   0.137550 0.257254 0.638375 -0.722859
H33   H     H_    0.166178 0.171294 0.620353 0.232161
H34   H     H_    0.106128 0.167183 0.641538 0.208402
H35   H     H_    0.125583 0.365128 0.592272 0.210962
H36   H     H_    0.130187 0.445745 0.734622 0.203694
H37   H     H_    0.187741 0.443107 0.709976 0.188506
C87   C     C_3   0.842529 0.648949 0.281839 -0.341303
C88   C     C_3   0.862441 0.742701 0.361605 -0.722881
H38   H     H_    0.893866 0.832763 0.358452 0.208423
H39   H     H_    0.833813 0.828666 0.379625 0.232157
H40   H     H_    0.874402 0.634814 0.407705 0.210942
H41   H     H_    0.812251 0.556871 0.289990 0.188492
H42   H     H_    0.869806 0.554234 0.265352 0.203701
C89   C     C_3   0.842576 0.849643 0.782488 -0.341587
C90   C     C_3   0.862464 0.754822 0.862020 -0.723162
H43   H     H_    0.833820 0.668525 0.879818 0.232300
H44   H     H_    0.893874 0.664886 0.858643 0.208303
H45   H     H_    0.874442 0.862074 0.908396 0.211010
H46   H     H_    0.869884 0.944614 0.766248 0.203688
H47   H     H_    0.812316 0.941555 0.790856 0.188437
C91   C     C_3   0.157477 0.148929 0.218189 -0.341278
C92   C     C_3   0.137563 0.242633 0.138415 -0.722844
H48   H     H_    0.106136 0.332682 0.141560 0.208413
H49   H     H_    0.166190 0.328603 0.120388 0.232152
H50   H     H_    0.125605 0.134717 0.092325 0.210961
H51   H     H_    0.187757 0.056858 0.210047 0.188510
H52   H     H_    0.130201 0.054213 0.234687 0.203692

loop_
_geom_bond_atom_site_label_1
_geom_bond_atom_site_label_2
_ccdc_geom_bond_type
O17   V3    S    
C47   C51   A    
N1    C17   A    
C22   C26   A    
O1    C5    A    
C91   H52   S    
O19   V1    S    
O13   V1    S    
O3    C7    A    
C11   C12   D    
C14   C46   A    
C44   C48   A    
O4    V2    S    
O15   V3    S    
C62   C70   A    
C88   H38   S    
C61   C69   A    
C92   H49   S    
C68   C83   A    
C42   C54   A    
O7    C3    A    
C76   H28   S    
C17   O26   S    
C41   C53   A    
C32   C60   A    
C23   H20   S    
C63   C71   A    
N3    C39   S    
C18   C54   A    
C28   C89   S    
N2    C38   S    
C52   H16   S    
C25   C57   A    
C31   C35   A    
C67   C84   A    
C82   H30   S    
C27   C59   A    
O1    V3    S    
C15   C47   A    
O2    V4    S    
C14   O22   S    
C21   C37   A    
C85   H36   S    
O3    V1    S    
C34   C38   A    
C19   C55   A    
C84   H32   S    
C73   C77   A    
C91   C92   S    
C1    O15   A    
C90   H45   S    
C2    O16   A    
C7    C9    S    
O2    C6    A    
C33   C37   A    
C63   C68   A    
O14   V2    S    
C87   H42   S    
C86   H34   S    
C31   H7    S    
C30   C58   A    
C16   N4    A    
C90   H44   S    
C44   C71   A    
O12   C8    A    
C31   C59   A    
C50   H14   S    
O10   V2    S    
C49   H13   S    
C13   N1    A    
C88   H39   S    
C50   C82   A    
C92   H50   S    
O5    V1    S    
C53   C78   A    
O7    V3    S    
C55   C80   A    
C63   C75   A    
O8    V4    S    
C51   C83   A    
C12   H4    S    
C42   C69   A    
C81   H29   S    
C52   C84   A    
C86   H35   S    
C41   C70   A    
C25   C87   S    
C77   H21   S    
C89   C90   S    
C64   C72   A    
O18   V4    S    
C36   H12   S    
N4    C40   S    
C46   C50   A    
O11   V3    S    
C24   C40   A    
C8    C10   S    
C68   C72   A    
C32   C36   A    
C74   C78   A    
C11   H3    S    
C32   H8    S    
O5    C1    A    
C54   C77   A    
C42   C46   A    
C75   C79   A    
C92   H48   S    
C1    C60   S    
C41   C45   A    
O8    C4    A    
C13   C45   A    
C43   C72   A    
C9    C10   D    
O9    C5    A    
C36   C40   A    
C79   H23   S    
C87   H41   S    
C21   C25   A    
C44   C56   A    
C80   H24   S    
C62   C65   A    
C28   C60   A    
C86   H33   S    
C66   C70   A    
C61   C66   A    
C14   N2    A    
C65   C69   A    
C22   H17   S    
C90   H43   S    
O6    V2    S    
C75   H27   S    
C67   C71   A    
C65   C82   A    
C26   C58   A    
C17   C53   A    
O10   C6    A    
C73   H25   S    
N1    C37   S    
C4    C57   S    
C56   C79   A    
C23   C39   A    
C76   C80   A    
C88   H40   S    
C85   H37   S    
C22   C38   A    
C27   C91   S    
O16   V4    S    
O9    V1    S    
C83   H31   S    
C18   O25   S    
C35   H11   S    
C3    O13   A    
C10   H2    S    
C43   C55   A    
C48   C52   A    
C3    C58   S    
C16   C48   A    
O6    C2    A    
C34   H10   S    
C64   C76   A    
C89   H46   S    
C5    C11   S    
C33   H9    S    
O12   V4    S    
C6    C12   S    
C23   C27   A    
C26   C85   S    
C89   H47   S    
C24   C28   A    
C87   C88   S    
C30   H6    S    
O20   V2    S    
C29   H5    S    
N2    C18   A    
C62   C74   A    
C35   C39   A    
C15   N3    A    
C30   C34   A    
C2    C59   S    
O4    C8    A    
C29   C33   A    
O11   C7    A    
C29   C57   A    
C66   C81   A    
C78   H22   S    
C21   H18   S    
N3    C19   A    
C74   H26   S    
C9    H1    S    
C20   O27   S    
C24   H19   S    
C43   C47   A    
N4    C20   A    
C20   C56   A    
C51   H15   S    
C19   O28   S    
C4    O14   A    
C13   O21   S    
C61   C73   A    
C85   C86   S    
C15   O23   S    
C91   H51   S    
C64   C67   A    
C45   C49   A    
C16   O24   S    
C49   C81   A    
