data_str_m4_o4_o15_f0_acs.sym.145
_audit_creation_date              2012-12-11T15:44:52-0500
_audit_creation_method            fapswitch 2.2
_symmetry_space_group_name_H-M    P1
_symmetry_Int_Tables_number       1
_space_group_crystal_system       triclinic
_cell_length_a                    19.038728
_cell_length_b                    10.955633
_cell_length_c                    18.768269
_cell_angle_alpha                 89.994745
_cell_angle_beta                  90.266229
_cell_angle_gamma                 89.876702
_cell_volume                      3914.65891627

loop_
_atom_site_label
_atom_site_type_symbol
_atom_type_description
_atom_site_fract_x
_atom_site_fract_y
_atom_site_fract_z
_atom_type_partial_charge
C1    C     C_R   0.761378 0.529799 0.644890 0.574027
C2    C     C_R   0.239782 0.535246 0.353331 0.537729
C3    C     C_R   0.261378 0.029799 0.644890 0.574029
C4    C     C_R   0.739782 0.035246 0.353331 0.537730
C5    C     C_R   0.837358 0.124390 0.518261 -0.166151
C6    C     C_R   0.216496 0.986706 0.454166 -0.154142
C7    C     C_R   0.337358 0.624389 0.518261 -0.166151
C8    C     C_R   0.716495 0.486707 0.454166 -0.154142
C9    C     C_R   0.825502 0.100028 0.445945 -0.154890
C10   C     C_R   0.217559 0.974300 0.527307 -0.143118
C11   C     C_R   0.325502 0.600028 0.445944 -0.154890
C12   C     C_R   0.717558 0.474302 0.527307 -0.143118
C13   C     C_3   0.631524 0.111865 0.472784 -0.250992
C14   C     C_3   0.286928 0.284765 0.554636 -0.275713
C15   C     C_3   0.131523 0.611866 0.472783 -0.250991
C16   C     C_3   0.786928 0.784765 0.554636 -0.275713
C17   C     C_3   0.644575 0.138531 0.551145 -0.269103
C18   C     C_3   0.281095 0.303537 0.475011 -0.244543
C19   C     C_3   0.144575 0.638530 0.551145 -0.269103
C20   C     C_3   0.781096 0.803537 0.475011 -0.244542
C21   C     C_R   0.781001 0.155702 0.562454 0.015447
C22   C     C_R   0.247914 0.088463 0.423766 0.016802
C23   C     C_R   0.281001 0.655700 0.562453 0.015446
C24   C     C_R   0.747914 0.588464 0.423766 0.016802
C25   C     C_R   0.990567 0.329177 0.421415 -0.007373
C26   C     C_R   0.997731 0.347513 0.571435 -0.012930
C27   C     C_R   0.490567 0.829177 0.421414 -0.007373
C28   C     C_R   0.497731 0.847512 0.571435 -0.012930
C29   C     C_R   0.008114 0.103828 0.433482 0.376475
C30   C     C_R   0.040362 0.134634 0.577569 0.382062
C31   C     C_R   0.508114 0.603828 0.433481 0.376474
C32   C     C_R   0.540362 0.634634 0.577569 0.382062
C33   C     C_R   0.028913 0.004357 0.474826 -0.163772
C34   C     C_R   0.046568 0.020238 0.546001 -0.150763
C35   C     C_R   0.528913 0.504357 0.474825 -0.163772
C36   C     C_R   0.546568 0.520238 0.546001 -0.150764
C37   C     C_R   0.014161 0.235411 0.538118 -0.062028
C38   C     C_R   0.004348 0.222990 0.463385 -0.042343
C39   C     C_R   0.514161 0.735410 0.538118 -0.062028
C40   C     C_R   0.504348 0.722990 0.463385 -0.042342
C41   C     C_R   0.983619 0.452972 0.528085 -0.003159
C42   C     C_R   0.969678 0.437636 0.455052 -0.006994
C43   C     C_R   0.483619 0.952972 0.528085 -0.003159
C44   C     C_R   0.469678 0.937637 0.455052 -0.006994
C45   C     C_R   0.791453 0.171402 0.638892 0.552546
C46   C     C_R   0.226732 0.126459 0.353951 0.535270
C47   C     C_R   0.291453 0.671401 0.638891 0.552545
C48   C     C_R   0.726732 0.626459 0.353951 0.535271
C49   C     C_R   0.984171 0.574925 0.554477 -0.071227
C50   C     C_R   0.942331 0.536424 0.414937 -0.068928
C51   C     C_R   0.484172 0.074925 0.554477 -0.071227
C52   C     C_R   0.442331 0.036424 0.414937 -0.068928
C53   C     C_R   0.963400 0.673361 0.512310 -0.142782
C54   C     C_R   0.941842 0.653876 0.442656 -0.117562
C55   C     C_R   0.463400 0.173361 0.512311 -0.142782
C56   C     C_R   0.441842 0.153876 0.442657 -0.117563
C57   C     C_R   0.755849 0.084667 0.078719 0.020210
C58   C     C_R   0.268473 0.009459 0.935987 0.014224
C59   C     C_R   0.255852 0.584681 0.078723 0.020212
C60   C     C_R   0.768473 0.509459 0.935987 0.014220
C61   C     C_R   0.811547 0.034377 0.039804 0.025057
C62   C     C_R   0.209525 0.969416 0.972778 0.016096
C63   C     C_R   0.311560 0.534419 0.039811 0.025055
C64   C     C_R   0.709524 0.469419 0.972778 0.016092
C65   C     C_R   0.814491 0.046147 0.967336 0.023933
C66   C     C_R   0.200896 0.994947 0.043862 0.026934
C67   C     C_R   0.314503 0.546184 0.967344 0.023939
C68   C     C_R   0.700894 0.494948 0.043862 0.026934
C69   C     C_R   0.712480 0.174905 0.969122 -0.162033
C70   C     C_R   0.314255 0.091528 0.048061 -0.171562
C71   C     C_R   0.212478 0.674903 0.969123 -0.162030
C72   C     C_R   0.814256 0.591522 0.048062 -0.171565
C73   C     C_R   0.710166 0.165453 0.043735 -0.158981
C74   C     C_R   0.323214 0.063869 0.975410 -0.160387
C75   C     C_R   0.210162 0.665453 0.043737 -0.158974
C76   C     C_R   0.823214 0.563865 0.975411 -0.160387
C77   C     C_3   0.839150 0.906231 0.036250 -0.261860
C78   C     C_3   0.133346 0.988733 0.956216 -0.266107
C79   C     C_3   0.339196 0.406298 0.036263 -0.261888
C80   C     C_3   0.633345 0.488738 0.956215 -0.266111
C81   C     C_3   0.842980 0.920867 0.956267 -0.278481
C82   C     C_3   0.123597 0.014806 0.034481 -0.266364
C83   C     C_3   0.343023 0.420927 0.956279 -0.278487
C84   C     C_3   0.623596 0.514811 0.034481 -0.266366
C85   C     C_R   0.762043 0.107270 0.929884 0.015114
C86   C     C_R   0.250072 0.065397 0.081320 0.015589
C87   C     C_R   0.262048 0.607281 0.929888 0.015117
C88   C     C_R   0.750072 0.565396 0.081320 0.015582
C89   C     C_R   0.970913 0.347701 0.645899 0.602739
C90   C     C_R   0.026621 0.344102 0.351902 0.558122
C91   C     C_R   0.470914 0.847701 0.645899 0.602739
C92   C     C_R   0.526621 0.844102 0.351902 0.558123
C93   C     C_R   0.012850 0.342236 0.071005 0.020010
C94   C     C_R   0.002880 0.331879 0.922421 0.019227
C95   C     C_R   0.512851 0.842237 0.071005 0.020010
C96   C     C_R   0.502881 0.831880 0.922421 0.019226
C97   C     C_R   0.039733 0.434836 0.027952 0.043402
C98   C     C_R   0.037044 0.429274 0.955169 0.017387
C99   C     C_R   0.539734 0.934836 0.027951 0.043396
C100  C     C_R   0.537045 0.929274 0.955168 0.017383
C101  C     C_R   0.985155 0.228896 0.964210 -0.166383
C102  C     C_R   0.989881 0.234443 0.038471 -0.179767
C103  C     C_R   0.485157 0.728896 0.964209 -0.166383
C104  C     C_R   0.489882 0.734444 0.038470 -0.179766
C105  C     C_3   0.027685 0.569269 0.029397 -0.265836
C106  C     C_3   0.029345 0.565008 0.948754 -0.275068
C107  C     C_3   0.527690 0.069271 0.029397 -0.265832
C108  C     C_3   0.529348 0.065009 0.948753 -0.275065
C109  C     C_R   0.773685 0.484100 0.859714 0.561739
C110  C     C_R   0.240164 0.533091 0.148196 0.547014
C111  C     C_R   0.273686 0.984100 0.859714 0.561739
C112  C     C_R   0.740163 0.033089 0.148195 0.547010
C113  C     C_R   0.773926 0.129998 0.854742 0.546527
C114  C     C_R   0.227979 0.123670 0.147652 0.533005
C115  C     C_R   0.273928 0.630001 0.854743 0.546528
C116  C     C_R   0.727979 0.623669 0.147652 0.532998
C117  C     C_R   0.970528 0.345843 0.853221 0.558057
C118  C     C_R   0.030768 0.347199 0.145666 0.542752
C119  C     C_R   0.470529 0.845843 0.853221 0.558056
C120  C     C_R   0.530768 0.847199 0.145665 0.542751
C121  C     C_R   0.756977 0.104397 0.417442 0.009888
C122  C     C_R   0.253504 0.058652 0.570830 0.041278
C123  C     C_R   0.256976 0.604397 0.417442 0.009889
C124  C     C_R   0.753503 0.558652 0.570830 0.041278
C125  C     C_R   0.704316 0.154748 0.459258 -0.002803
C126  C     C_R   0.291837 0.151205 0.539711 0.023287
C127  C     C_R   0.204315 0.654748 0.459257 -0.002804
C128  C     C_R   0.791837 0.651205 0.539711 0.023287
C129  C     C_R   0.716122 0.178611 0.530429 0.005088
C130  C     C_R   0.286658 0.168315 0.467094 0.021636
C131  C     C_R   0.216122 0.678610 0.530429 0.005087
C132  C     C_R   0.786659 0.668315 0.467094 0.021636
Cr1   Cr    Cr6+3 0.885860 0.491680 0.749630 1.006479
Cr2   Cr    Cr6+3 0.114140 0.491680 0.250370 1.011589
Cr3   Cr    Cr6+3 0.385860 0.991680 0.749630 1.006480
Cr4   Cr    Cr6+3 0.614140 0.991680 0.250370 1.011589
Cr5   Cr    Cr6+3 0.730490 0.332970 0.748720 1.021433
Cr6   Cr    Cr6+3 0.269510 0.332970 0.251280 1.018701
Cr7   Cr    Cr6+3 0.230490 0.832970 0.748720 1.021435
Cr8   Cr    Cr6+3 0.769510 0.832970 0.251280 1.018701
Cr9   Cr    Cr6+3 0.887570 0.179310 0.750150 1.051523
Cr10  Cr    Cr6+3 0.112430 0.179310 0.249850 1.080647
Cr11  Cr    Cr6+3 0.387570 0.679310 0.750150 1.051522
Cr12  Cr    Cr6+3 0.612430 0.679310 0.249850 1.080644
H1    H     H_    0.889030 0.109683 0.540650 0.132481
H2    H     H_    0.185586 0.923689 0.422506 0.142134
H3    H     H_    0.389030 0.609682 0.540650 0.132481
H4    H     H_    0.685585 0.423691 0.422506 0.142135
H5    H     H_    0.964936 0.765104 0.533604 0.099951
H6    H     H_    0.925521 0.729923 0.409687 0.126089
H7    H     H_    0.464936 0.265104 0.533604 0.099952
H8    H     H_    0.425521 0.229923 0.409687 0.126088
H9    H     H_    0.675214 0.232981 0.942074 0.128397
H10   H     H_    0.354567 0.142031 0.076102 0.117993
H11   H     H_    0.175208 0.732968 0.942074 0.128390
H12   H     H_    0.854568 0.642025 0.076104 0.117998
H13   H     H_    0.670837 0.215281 0.073285 0.119647
H14   H     H_    0.370307 0.092675 0.949119 0.128624
H15   H     H_    0.170828 0.715271 0.073284 0.119645
H16   H     H_    0.870308 0.592669 0.949120 0.128626
H17   H     H_    0.799114 0.838531 0.052702 0.166187
H18   H     H_    0.106098 0.904461 0.938525 0.127982
H19   H     H_    0.299182 0.338566 0.052718 0.166199
H20   H     H_    0.606096 0.404467 0.938524 0.127983
H21   H     H_    0.891545 0.896530 0.062072 0.133829
H22   H     H_    0.123723 0.070101 0.922033 0.167272
H23   H     H_    0.391592 0.396647 0.062085 0.133828
H24   H     H_    0.623723 0.570106 0.922032 0.167270
H25   H     H_    0.897704 0.922060 0.935876 0.137680
H26   H     H_    0.108352 0.110730 0.045118 0.166562
H27   H     H_    0.397745 0.422158 0.935887 0.137675
H28   H     H_    0.608353 0.610736 0.045118 0.166560
H29   H     H_    0.806077 0.860410 0.926753 0.151215
H30   H     H_    0.091938 0.944443 0.062365 0.133430
H31   H     H_    0.306135 0.360440 0.926768 0.151217
H32   H     H_    0.591936 0.444450 0.062364 0.133428
H33   H     H_    0.961466 0.148717 0.940515 0.147556
H34   H     H_    0.974302 0.156427 0.070118 0.132368
H35   H     H_    0.461469 0.648717 0.940514 0.147550
H36   H     H_    0.474303 0.656428 0.070117 0.132365
H37   H     H_    0.071736 0.619510 0.053573 0.147890
H38   H     H_    0.980231 0.597505 0.923826 0.154117
H39   H     H_    0.571742 0.119509 0.053572 0.147893
H40   H     H_    0.480233 0.097508 0.923827 0.154117
H41   H     H_    0.975312 0.593536 0.051037 0.129969
H42   H     H_    0.077029 0.606955 0.925720 0.135302
H43   H     H_    0.475317 0.093541 0.051038 0.129972
H44   H     H_    0.577032 0.106955 0.925719 0.135304
H45   H     H_    0.867926 0.063461 0.414736 0.201443
H46   H     H_    0.187882 0.900716 0.550110 0.143817
H47   H     H_    0.367926 0.563461 0.414735 0.201444
H48   H     H_    0.687882 0.400717 0.550110 0.143817
H49   H     H_    0.124389 0.513059 0.461329 0.153614
H50   H     H_    0.836366 0.821703 0.577740 0.151051
H51   H     H_    0.624390 0.013058 0.461331 0.153613
H52   H     H_    0.336365 0.321703 0.577740 0.151051
H53   H     H_    0.592496 0.173737 0.447505 0.155159
H54   H     H_    0.238347 0.310340 0.583839 0.156025
H55   H     H_    0.092496 0.673739 0.447504 0.155158
H56   H     H_    0.738348 0.810341 0.583839 0.156025
H57   H     H_    0.612642 0.215716 0.571751 0.124002
H58   H     H_    0.229019 0.339712 0.458062 0.139990
H59   H     H_    0.112642 0.715715 0.571751 0.124002
H60   H     H_    0.729020 0.839712 0.458062 0.139990
H61   H     H_    0.645195 0.055192 0.585012 0.153116
H62   H     H_    0.327430 0.350508 0.452407 0.156212
H63   H     H_    0.145195 0.555191 0.585011 0.153116
H64   H     H_    0.827431 0.850508 0.452406 0.156212
H65   H     H_    0.031648 0.914256 0.451314 0.131328
H66   H     H_    0.064638 0.943122 0.577160 0.134490
H67   H     H_    0.531647 0.414256 0.451313 0.131328
H68   H     H_    0.564638 0.443122 0.577159 0.134490
H69   H     H_    0.924956 0.523786 0.360380 0.129520
H70   H     H_    0.006006 0.598538 0.605780 0.144609
H71   H     H_    0.424956 0.023786 0.360380 0.129520
H72   H     H_    0.506006 0.098538 0.605780 0.144609
O1    O     O_R   0.957020 0.451640 0.669920 -0.543355
O2    O     O_R   0.042980 0.451640 0.330080 -0.539347
O3    O     O_R   0.457020 0.951640 0.669920 -0.543355
O4    O     O_R   0.542980 0.951640 0.330080 -0.539347
O5    O     O_R   0.736470 0.210100 0.823360 -0.519407
O6    O     O_R   0.263530 0.210100 0.176640 -0.513421
O7    O     O_R   0.236470 0.710100 0.823360 -0.519405
O8    O     O_R   0.763530 0.710100 0.176640 -0.513424
O9    O     O_R   0.831960 0.093290 0.830130 -0.512557
O10   O     O_R   0.168040 0.093290 0.169870 -0.517965
O11   O     O_R   0.331960 0.593290 0.830130 -0.512559
O12   O     O_R   0.668040 0.593290 0.169870 -0.517964
O13   O     O_R   0.945600 0.250580 0.824860 -0.498125
O14   O     O_R   0.054400 0.250580 0.175140 -0.499337
O15   O     O_R   0.445600 0.750580 0.824860 -0.498127
O16   O     O_R   0.554400 0.750580 0.175140 -0.499338
O17   O     O_3   0.834640 0.334650 0.749500 -0.303764
O18   O     O_3   0.165360 0.334650 0.250500 -0.260951
O19   O     O_3   0.334640 0.834650 0.749500 -0.303765
O20   O     O_3   0.665360 0.834650 0.250500 -0.260952
O21   O     O_R   0.821450 0.543440 0.674610 -0.498865
O22   O     O_R   0.178550 0.543440 0.325390 -0.500124
O23   O     O_R   0.321450 0.043440 0.674610 -0.498865
O24   O     O_R   0.678550 0.043440 0.325390 -0.500123
O25   O     O_R   0.715320 0.458650 0.668100 -0.503143
O26   O     O_R   0.284680 0.458650 0.331900 -0.517105
O27   O     O_R   0.215320 0.958650 0.668100 -0.503143
O28   O     O_R   0.784680 0.958650 0.331900 -0.517105
O29   O     O_R   0.737170 0.209590 0.674530 -0.503276
O30   O     O_R   0.262830 0.209590 0.325470 -0.509999
O31   O     O_R   0.237170 0.709590 0.674530 -0.503274
O32   O     O_R   0.762830 0.709590 0.325470 -0.509999
O33   O     O_R   0.832710 0.092740 0.669580 -0.513338
O34   O     O_R   0.167290 0.092740 0.330420 -0.497618
O35   O     O_R   0.332710 0.592740 0.669580 -0.513336
O36   O     O_R   0.667290 0.592740 0.330420 -0.497618
O37   O     O_R   0.946290 0.250060 0.676040 -0.451275
O38   O     O_R   0.053710 0.250060 0.323960 -0.416762
O39   O     O_R   0.446290 0.750060 0.676040 -0.451274
O40   O     O_R   0.553710 0.750060 0.323960 -0.416762
O41   O     O_R   0.956270 0.452200 0.830470 -0.533563
O42   O     O_R   0.043730 0.452200 0.169530 -0.522174
O43   O     O_R   0.456270 0.952200 0.830470 -0.533562
O44   O     O_R   0.543730 0.952200 0.169530 -0.522174
O45   O     O_R   0.820760 0.543950 0.823440 -0.503177
O46   O     O_R   0.179240 0.543950 0.176560 -0.505959
O47   O     O_R   0.320760 0.043950 0.823440 -0.503175
O48   O     O_R   0.679240 0.043950 0.176560 -0.505960
O49   O     O_R   0.714570 0.459210 0.828640 -0.504269
O50   O     O_R   0.285430 0.459210 0.171360 -0.513679
O51   O     O_R   0.214570 0.959210 0.828640 -0.504269
O52   O     O_R   0.785430 0.959210 0.171360 -0.513674
F1    F     F_    0.985071 0.079669 0.366397 -0.640724
F2    F     F_    0.063714 0.147459 0.645627 -0.622644
F3    F     F_    0.485071 0.579669 0.366397 -0.640725
F4    F     F_    0.563713 0.647458 0.645627 -0.622644

loop_
_geom_bond_atom_site_label_1
_geom_bond_atom_site_label_2
_ccdc_geom_bond_type
C51   H72   S    
C58   C62   A    
Cr11  O39   S    
C119  O43   A    
C55   C56   A    
C82   H26   S    
C67   C83   S    
C101  C102  A    
C72   H12   S    
C83   H31   S    
Cr4   O48   S    
Cr9   O33   S    
C41   C42   A    
C14   C18   S    
C48   O36   A    
C35   C36   A    
C30   F2    S    
Cr10  O38   S    
C75   H15   S    
C72   C76   A    
Cr7   O31   S    
Cr3   O43   S    
C120  O16   A    
C47   O31   A    
C97   C98   A    
Cr1   O45   S    
C54   H6    S    
C63   C79   S    
C53   C54   A    
C26   C89   S    
C15   C19   S    
C14   H54   S    
C25   C90   S    
C50   C54   A    
C13   H53   S    
C116  O12   A    
Cr10  O34   S    
C64   C68   A    
C115  O7    A    
C16   C20   S    
C117  O41   A    
C112  O48   A    
C6    H2    S    
C94   C117  S    
C95   C99   A    
Cr10  O14   S    
C57   C112  S    
C66   C82   S    
C94   C98   A    
C113  O5    A    
Cr9   O13   S    
C6    C22   A    
C29   C33   A    
C59   C110  S    
C15   H55   S    
C31   C40   A    
Cr8   O32   S    
C51   C55   A    
C32   C39   A    
C57   C73   A    
C92   O4    A    
C35   H67   S    
C70   C74   A    
C80   H20   S    
Cr7   O51   S    
C60   C109  S    
C34   H66   S    
C45   O33   A    
C121  C125  A    
C52   C56   A    
C33   H65   S    
C27   C44   A    
C46   O34   A    
C82   H30   S    
C94   C101  A    
C61   C77   S    
C79   H19   S    
C83   H27   S    
C29   C38   A    
Cr4   O44   S    
C9    C121  A    
C107  C108  S    
Cr8   O52   S    
C69   C73   A    
C81   H25   S    
C56   H8    S    
Cr7   O27   S    
C112  O52   A    
C11   H47   S    
C16   H56   S    
C3    C122  S    
C119  O15   A    
C124  C128  A    
C97   C105  S    
C122  C126  A    
C44   C52   A    
Cr1   O41   S    
Cr12  O36   S    
C100  C108  S    
C71   H11   S    
Cr2   O46   S    
C15   C127  S    
C22   C130  A    
C15   H49   S    
C53   H5    S    
C64   C80   S    
C19   H63   S    
C18   H62   S    
C8    H4    S    
C59   C75   A    
Cr5   O49   S    
C20   C132  S    
C9    H45   S    
C128  C132  A    
Cr5   O17   S    
C41   C49   A    
C72   C88   A    
C62   C78   S    
Cr10  O10   S    
C46   O30   A    
C21   C45   S    
C14   C126  S    
C19   C131  S    
C12   H48   S    
C63   C67   A    
C78   H22   S    
C5    H1    S    
Cr12  O20   S    
C17   C129  S    
C80   C84   S    
C68   C84   S    
Cr5   O5    S    
C23   C47   S    
C88   C116  S    
C20   H60   S    
C109  O49   A    
C70   H10   S    
Cr7   O19   S    
C45   O29   A    
C39   C40   A    
C62   C66   A    
C126  C130  A    
C30   C34   A    
Cr8   O8    S    
C3    O27   A    
Cr6   O50   S    
C28   C39   A    
C1    O21   A    
Cr2   O2    S    
C49   H70   S    
C60   C76   A    
C7    H3    S    
Cr1   O1    S    
C58   C111  S    
C30   C37   A    
C107  H39   S    
Cr8   O28   S    
C50   H69   S    
C81   H29   S    
C116  O8    A    
C7    C11   A    
C43   C44   A    
C115  O11   A    
C37   C38   A    
Cr6   O30   S    
C110  O46   A    
C125  C129  A    
C25   C38   A    
C114  O10   A    
Cr9   O9    S    
Cr5   O29   S    
C78   C82   S    
C24   C48   S    
C113  O9    A    
C99   C100  A    
C12   C124  A    
C77   C81   S    
C27   C40   A    
C8    C12   A    
Cr3   O3    S    
C19   H59   S    
C33   C34   A    
C4    O24   A    
C23   C131  A    
C27   C92   S    
C18   H58   S    
C10   H46   S    
C114  O6    A    
C74   H14   S    
C17   H57   S    
C66   C86   A    
C16   C128  S    
C101  H33   S    
C21   C129  A    
C105  H41   S    
C106  H42   S    
C1    O25   A    
C36   H68   S    
C84   H32   S    
C71   C87   A    
C92   O40   A    
C22   C46   S    
C42   C50   A    
C78   H18   S    
C96   C119  S    
Cr4   O24   S    
C31   F3    S    
C91   O3    A    
C102  H34   S    
C31   C35   A    
C59   C63   A    
Cr6   O18   S    
C93   C118  S    
C20   H64   S    
C109  O45   A    
C117  O13   A    
C70   C86   A    
C93   C97   A    
C123  C127  A    
C110  O50   A    
C4    O28   A    
C69   C85   A    
C95   C104  A    
C58   C74   A    
C87   C115  S    
Cr7   O7    S    
C55   H7    S    
C2    O26   A    
C14   H52   S    
C76   H16   S    
C86   C114  S    
Cr1   O17   S    
C93   C102  A    
C47   O35   A    
C108  H44   S    
C2    O22   A    
C71   C75   A    
Cr3   O19   S    
Cr11  O11   S    
C84   H28   S    
Cr6   O26   S    
C25   C42   A    
Cr11  O35   S    
C32   C36   A    
C26   C37   A    
C57   C61   A    
Cr3   O47   S    
Cr4   O4    S    
C108  H40   S    
C11   C123  A    
C95   C120  S    
C99   C107  S    
C105  C106  S    
C28   C43   A    
C67   C87   A    
C98   C106  S    
C18   C130  S    
C13   C17   S    
C60   C64   A    
C29   F1    S    
C127  C131  A    
C85   C113  S    
C73   H13   S    
C1    C124  S    
C111  O51   A    
C48   O32   A    
C65   C85   A    
C120  O44   A    
C79   C83   S    
C24   C132  A    
Cr12  O40   S    
C43   C51   A    
C104  H36   S    
C7    C23   A    
C91   O39   A    
Cr5   O25   S    
C118  O14   A    
C68   C88   A    
C96   C100  A    
C17   H61   S    
Cr2   O42   S    
C8    C24   A    
C77   H17   S    
Cr3   O23   S    
C4    C121  S    
C28   C91   S    
C103  H35   S    
C52   H71   S    
Cr4   O20   S    
C90   O38   A    
Cr11  O15   S    
C69   H9    S    
Cr12  O16   S    
C90   O2    A    
C49   C53   A    
C16   H50   S    
C6    C10   A    
Cr2   O22   S    
C89   O1    A    
Cr1   O21   S    
Cr11  O19   S    
C61   C65   A    
C10   C122  A    
Cr10  O18   S    
C5    C21   A    
Cr9   O37   S    
Cr9   O17   S    
C118  O42   A    
C13   H51   S    
C96   C103  A    
C103  C104  A    
Cr8   O20   S    
C79   H23   S    
Cr6   O6    S    
C65   C81   S    
Cr12  O12   S    
C107  H43   S    
C89   O37   A    
C5    C9    A    
C105  H37   S    
C111  O47   A    
C77   H21   S    
C13   C125  S    
C80   H24   S    
C32   F4    S    
C2    C123  S    
C106  H38   S    
C26   C41   A    
C3    O23   A    
Cr2   O18   S    
