data_str_m2_o1_o4_f0_pcu.sym.168
_audit_creation_date              2012-12-10T18:04:00-0500
_audit_creation_method            fapswitch 2.2
_symmetry_space_group_name_H-M    P1
_symmetry_Int_Tables_number       1
_space_group_crystal_system       triclinic
_cell_length_a                    10.804889
_cell_length_b                    9.604249
_cell_length_c                    11.045402
_cell_angle_alpha                 89.635537
_cell_angle_beta                  93.718173
_cell_angle_gamma                 89.574178
_cell_volume                      1143.74163655

loop_
_atom_site_label
_atom_site_type_symbol
_atom_type_description
_atom_site_fract_x
_atom_site_fract_y
_atom_site_fract_z
_atom_type_partial_charge
C1    C     C_R   0.263206 0.500014 0.509295 0.856780
C2    C     C_R   0.737356 0.498999 0.492893 0.837154
C3    C     C_R   0.401347 0.077454 0.450989 -0.009785
C4    C     C_R   0.598333 0.075042 0.549898 -0.025700
C5    C     C_R   0.400550 0.930294 0.449133 0.173963
C6    C     C_R   0.599076 0.927732 0.552113 0.118250
C7    C     C_R   0.498200 0.499473 0.262420 0.820393
C8    C     C_R   0.506049 0.498981 0.737344 0.813275
C9    C     C_R   0.484508 0.613984 0.057862 0.062517
C10   C     C_R   0.502960 0.615175 0.937312 0.047486
C11   C     C_R   0.498812 0.494045 0.129192 -0.156076
C12   C     C_R   0.514451 0.494266 0.870481 -0.148786
C13   C     C_R   0.521599 0.367181 0.066298 -0.087006
C14   C     C_R   0.524885 0.366774 0.937673 -0.038326
C15   C     C_3   0.491824 0.770423 0.924632 -0.190162
C16   C     C_3   0.463677 0.768905 0.061994 -0.188148
C17   C     C_R   0.064557 0.374257 0.537999 -0.096845
C18   C     C_R   0.940312 0.369257 0.492737 -0.077391
C19   C     C_R   0.872110 0.496277 0.487792 -0.102159
C20   C     C_R   0.129285 0.499523 0.519356 -0.120882
C21   C     C_R   0.935162 0.623031 0.490024 -0.143382
C22   C     C_R   0.062984 0.623895 0.498240 -0.139396
Cu1   Cu    Cu3+1 0.500000 0.640660 0.500000 1.065552
Cu2   Cu    Cu3+1 0.500000 0.359340 0.500000 1.024932
H1    H     H_    0.886200 0.721523 0.480664 0.155363
H2    H     H_    0.109302 0.722471 0.490864 0.166559
H3    H     H_    0.323454 0.136099 0.409791 0.110634
H4    H     H_    0.676264 0.131868 0.590935 0.112629
N1    N     N_R   0.500000 0.852070 0.500000 -0.158432
N2    N     N_R   0.500000 0.147940 0.500000 -0.160489
O1    O     O_R   0.319640 0.618740 0.499990 -0.562889
O2    O     O_R   0.680360 0.618740 0.500010 -0.567890
O3    O     O_R   0.319620 0.381170 0.499990 -0.570313
O4    O     O_R   0.680380 0.381170 0.500010 -0.577877
O5    O     O_R   0.499990 0.618810 0.319660 -0.534875
O6    O     O_R   0.500010 0.618810 0.680340 -0.537128
O7    O     O_R   0.499960 0.381240 0.319650 -0.604065
O8    O     O_R   0.500040 0.381240 0.680350 -0.582238
C23   C     C_2   0.546174 0.233479 0.131699 0.530831
H5    H     H_    0.475162 0.187486 0.183937 0.106035
O9    O     O_2   0.645529 0.173441 0.125398 -0.497505
C24   C     C_2   0.536387 0.230873 0.876381 0.484877
H6    H     H_    0.610880 0.212165 0.817022 0.056977
O10   O     O_2   0.460621 0.139832 0.891296 -0.537915
C25   C     C_2   0.614143 0.838487 0.900349 0.529035
H7    H     H_    0.615470 0.941549 0.860296 0.112623
O11   O     O_2   0.713045 0.780712 0.929005 -0.526136
C26   C     C_2   0.330805 0.810428 0.081394 0.511886
H8    H     H_    0.307690 0.919375 0.093811 0.091664
O12   O     O_2   0.247996 0.724222 0.078390 -0.516149
C27   C     C_2   0.384847 0.811040 0.834632 0.404250
H9    H     H_    0.296839 0.757503 0.836600 0.097451
O13   O     O_2   0.395978 0.901111 0.757730 -0.523435
C28   C     C_2   0.558823 0.836481 0.149422 0.429154
H10   H     H_    0.655028 0.802569 0.152854 0.123060
O14   O     O_2   0.529138 0.926924 0.218998 -0.572413
C29   C     C_2   0.113201 0.265253 0.627252 0.901114
O15   O     O_2   0.215473 0.276636 0.680260 -0.556825
O16   O     O_R   0.036375 0.157007 0.661099 -0.737500
H11   H     H_    0.078404 0.092411 0.724356 0.348832
C30   C     C_2   0.895552 0.242610 0.424647 0.883188
O17   O     O_2   0.807889 0.251530 0.349165 -0.543794
O18   O     O_R   0.961119 0.116626 0.436407 -0.758823
H12   H     H_    0.922885 0.040455 0.383299 0.330339
C31   C     C_2   0.289104 0.870853 0.386614 0.353259
H13   H     H_    0.200227 0.923284 0.391918 0.050718
O19   O     O_2   0.295040 0.770412 0.321142 -0.484988
C32   C     C_2   0.711660 0.865425 0.613420 0.339088
H14   H     H_    0.800554 0.915320 0.604701 0.070222
O20   O     O_2   0.707115 0.765696 0.681214 -0.484369

loop_
_geom_bond_atom_site_label_1
_geom_bond_atom_site_label_2
_ccdc_geom_bond_type
C6    N1    A    
C3    N2    A    
Cu2   O8    S    
Cu1   Cu2   S    
C18   C30   S    
C15   C27   S    
C11   C13   A    
C9    C10   A    
Cu1   O5    S    
Cu2   O3    S    
C14   C24   S    
C8    C12   S    
Cu1   O2    S    
C2    O4    A    
C16   C28   S    
C3    H3    S    
Cu2   O7    S    
C7    O7    A    
C3    C5    A    
C1    O3    A    
O16   H11   S    
C23   O9    D    
C21   C22   A    
C7    C11   S    
C26   O12   D    
C9    C11   A    
C16   C26   S    
C29   O15   D    
C24   O10   D    
C15   C16   S    
C10   C12   A    
C6    C32   S    
C26   H8    S    
C19   C21   A    
C9    C16   S    
C20   C22   A    
C17   C18   A    
C5    N1    A    
C10   C15   S    
C8    O8    A    
C22   H2    S    
C30   O17   D    
C28   O14   D    
C13   C23   S    
C5    C31   S    
C29   O16   S    
C24   H6    S    
C15   C25   S    
Cu2   N2    S    
C4    C6    A    
O18   H12   S    
Cu1   O6    S    
Cu1   N1    S    
C1    O1    A    
C17   C20   A    
C27   O13   D    
C2    O2    A    
C31   H13   S    
C8    O6    A    
C25   O11   D    
C17   C29   S    
C23   H5    S    
C30   O18   S    
C32   O20   D    
C21   H1    S    
C28   H10   S    
C18   C19   A    
C1    C20   S    
C13   C14   A    
C4    H4    S    
C2    C19   S    
C25   H7    S    
C7    O5    A    
C4    N2    A    
C27   H9    S    
C12   C14   A    
C32   H14   S    
C31   O19   D    
Cu1   O1    S    
Cu2   O4    S    
