data_str_m9_o8_o16_f0_sra.sym.73
_audit_creation_date              2012-12-11T17:44:04-0500
_audit_creation_method            fapswitch 2.2
_symmetry_space_group_name_H-M    P1
_symmetry_Int_Tables_number       1
_space_group_crystal_system       triclinic
_cell_length_a                    20.348058
_cell_length_b                    22.663424
_cell_length_c                    7.033168
_cell_angle_alpha                 89.999982
_cell_angle_beta                  86.07975
_cell_angle_gamma                 90.0
_cell_volume                      3235.80334563

loop_
_atom_site_label
_atom_site_type_symbol
_atom_type_description
_atom_site_fract_x
_atom_site_fract_y
_atom_site_fract_z
_atom_type_partial_charge
O1    O     O_R   0.751270 0.447300 0.600030 -0.505817
O2    O     O_R   0.248730 0.947300 0.399970 -0.505817
O3    O     O_R   0.613530 0.440160 0.952150 -0.537577
O4    O     O_R   0.386470 0.940160 0.047850 -0.537577
O5    O     O_R   0.613050 0.552700 0.122560 -0.534738
O6    O     O_R   0.386950 0.052700 0.877440 -0.534738
C1    C     C_R   0.591817 0.425559 0.787779 0.693959
C2    C     C_R   0.408182 0.925559 0.212221 0.693959
O7    O     O_R   0.750780 0.440350 0.929820 -0.544123
O8    O     O_R   0.249220 0.940350 0.070180 -0.544123
O9    O     O_R   0.751280 0.552900 0.100070 -0.537749
O10   O     O_R   0.248720 0.052900 0.899930 -0.537750
C3    C     C_R   0.774117 0.426618 0.756051 0.739641
C4    C     C_R   0.225883 0.926618 0.243949 0.739641
O11   O     O_R   0.613040 0.447100 0.622520 -0.534407
O12   O     O_R   0.386960 0.947100 0.377480 -0.534407
O13   O     O_3   0.682160 0.536920 0.777780 -0.379983
O14   O     O_3   0.317840 0.036920 0.222220 -0.379983
V1    V     V_3+5 0.682160 0.493150 0.052630 1.429743
V2    V     V_3+5 0.317840 0.993150 0.947370 1.429742
O15   O     O_R   0.750790 0.559840 0.429870 -0.545967
O16   O     O_R   0.249210 0.059840 0.570130 -0.545967
C5    C     C_R   0.773423 0.574736 0.255006 0.671944
C6    C     C_R   0.226576 0.074736 0.744994 0.671944
O17   O     O_R   0.613540 0.559650 0.452200 -0.538943
O18   O     O_R   0.386460 0.059650 0.547800 -0.538943
C7    C     C_R   0.591770 0.574175 0.287918 0.684216
C8    C     C_R   0.408230 0.074175 0.712082 0.684216
V3    V     V_3+5 0.682160 0.506850 0.552630 1.429942
V4    V     V_3+5 0.317840 0.006850 0.447370 1.429942
O19   O     O_3   0.682150 0.463080 0.277610 -0.352243
O20   O     O_3   0.317850 0.963080 0.722390 -0.352243
C9    C     C_R   0.578835 0.861000 0.166442 -0.159914
C10   C     C_R   0.421165 0.361000 0.833560 -0.159914
H1    H     H_    0.537454 0.947492 0.143617 0.106996
H2    H     H_    0.462546 0.447492 0.856384 0.106996
H3    H     H_    0.670022 0.777560 0.167527 0.127461
H4    H     H_    0.329978 0.277560 0.832475 0.127462
H5    H     H_    0.628645 0.877079 0.136721 0.113954
H6    H     H_    0.371355 0.377079 0.863281 0.113955
C11   C     C_R   0.462278 0.882203 0.209681 -0.037183
C12   C     C_R   0.537722 0.382203 0.790319 -0.037183
C13   C     C_R   0.473018 0.594993 0.327874 -0.166317
C14   C     C_R   0.526982 0.094993 0.672125 -0.166317
C15   C     C_R   0.419044 0.632704 0.334365 -0.121577
C16   C     C_R   0.580956 0.132704 0.665633 -0.121578
C17   C     C_R   0.427521 0.693126 0.304994 -0.156874
C18   C     C_R   0.572479 0.193126 0.695005 -0.156873
C19   C     C_R   0.491030 0.717738 0.268257 0.077450
C20   C     C_R   0.508970 0.217738 0.731743 0.077450
C21   C     C_R   0.546423 0.678564 0.261548 0.071257
C22   C     C_R   0.453577 0.178564 0.738452 0.071257
C23   C     C_R   0.501387 0.779778 0.237856 0.072745
C24   C     C_R   0.498613 0.279778 0.762144 0.072745
C25   C     C_R   0.566825 0.800746 0.199780 0.140164
C26   C     C_R   0.433175 0.300746 0.800221 0.140164
C27   C     C_R   0.620054 0.761615 0.195282 -0.201173
C28   C     C_R   0.379946 0.261615 0.804720 -0.201174
C29   C     C_R   0.610138 0.701653 0.226654 -0.196098
C30   C     C_R   0.389862 0.201653 0.773347 -0.196098
C31   C     C_R   0.449406 0.821989 0.243432 -0.212476
C32   C     C_R   0.550594 0.321989 0.756568 -0.212476
C33   C     C_R   0.527013 0.901239 0.170466 -0.172533
C34   C     C_R   0.472987 0.401239 0.829535 -0.172534
C35   C     C_R   0.536791 0.616957 0.291173 -0.082437
C36   C     C_R   0.463209 0.116957 0.708827 -0.082437
H7    H     H_    0.398559 0.809690 0.272522 0.094977
H8    H     H_    0.601441 0.309690 0.727477 0.094977
H9    H     H_    0.464992 0.548208 0.351457 0.105940
H10   H     H_    0.535008 0.048208 0.648541 0.105940
H11   H     H_    0.383271 0.719314 0.311887 0.107284
H12   H     H_    0.616729 0.219314 0.688112 0.107284
H13   H     H_    0.369963 0.614910 0.362533 0.117219
H14   H     H_    0.630037 0.114910 0.637465 0.117219
H15   H     H_    0.653021 0.673371 0.223652 0.101487
H16   H     H_    0.346979 0.173371 0.776349 0.101487
C37   C     C_R   0.170134 0.883465 0.266799 -0.219530
C38   C     C_R   0.829866 0.383465 0.733201 -0.219530
C39   C     C_R   0.142760 0.860043 0.105274 -0.299271
C40   C     C_R   0.857240 0.360043 0.894726 -0.299271
C41   C     C_R   0.089102 0.821483 0.122646 -0.228722
C42   C     C_R   0.910898 0.321483 0.877354 -0.228722
C43   C     C_R   0.064911 0.800595 0.302284 0.268726
C44   C     C_R   0.935089 0.300595 0.697716 0.268726
C45   C     C_R   0.094233 0.821071 0.464416 0.355630
C46   C     C_R   0.905767 0.321071 0.535584 0.355630
C47   C     C_R   0.142617 0.865754 0.448844 0.354649
C48   C     C_R   0.857383 0.365754 0.551156 0.354649
C49   C     C_R   0.901195 0.689906 0.374760 -0.151644
C50   C     C_R   0.098805 0.189906 0.625240 -0.151644
C51   C     C_R   0.846967 0.651779 0.384103 -0.288897
C52   C     C_R   0.153033 0.151779 0.615897 -0.288897
C53   C     C_R   0.938908 0.697751 0.201607 0.399681
C54   C     C_R   0.061092 0.197751 0.798393 0.399681
N1    N     N_2   0.010939 0.760213 0.327759 -0.257968
N2    N     N_2   0.989061 0.260213 0.672241 -0.257968
N3    N     N_2   0.993452 0.737394 0.177698 -0.304058
N4    N     N_2   0.006547 0.237393 0.822302 -0.304057
C55   C     C_R   0.829058 0.618951 0.228358 -0.072989
C56   C     C_R   0.170942 0.118951 0.771641 -0.072989
H17   H     H_    0.815621 0.650327 0.509651 0.164290
H18   H     H_    0.184379 0.150327 0.490349 0.164290
H19   H     H_    0.912208 0.714065 0.501528 0.153109
H20   H     H_    0.087792 0.214065 0.498472 0.153109
C57   C     C_R   0.862840 0.632097 0.049302 0.102213
C58   C     C_R   0.137160 0.132097 0.950697 0.102212
C59   C     C_R   0.918749 0.669080 0.040388 -0.213430
C60   C     C_R   0.081251 0.169080 0.959612 -0.213430
H21   H     H_    0.066496 0.808102 0.995755 0.228012
H22   H     H_    0.933504 0.308102 0.004245 0.228012
H23   H     H_    0.944838 0.678750 0.904331 0.125714
H24   H     H_    0.055162 0.178750 0.095668 0.125714
H25   H     H_    0.162249 0.872246 0.964690 0.232333
H26   H     H_    0.837751 0.372246 0.035310 0.232333
O21   O     O_3   0.073873 0.798611 0.641009 -0.546146
C61   C     C_3   0.110777 0.747019 0.670527 -0.245511
H27   H     H_    0.163260 0.758138 0.688508 0.147664
H28   H     H_    0.107211 0.714399 0.553183 0.138003
H29   H     H_    0.090699 0.725142 0.803074 0.164100
O22   O     O_3   0.926127 0.298611 0.358991 -0.546146
C62   C     C_3   0.889223 0.247019 0.329473 -0.245512
H30   H     H_    0.836740 0.258138 0.311493 0.147665
H31   H     H_    0.892789 0.214400 0.446817 0.138003
H32   H     H_    0.909300 0.225142 0.196926 0.164101
O23   O     O_3   0.163820 0.890576 0.613052 -0.540667
C63   C     C_3   0.122113 0.938686 0.663956 -0.189126
H33   H     H_    0.071548 0.923238 0.709285 0.144605
H34   H     H_    0.120371 0.971386 0.546089 0.105583
H35   H     H_    0.141846 0.961984 0.786515 0.139257
O24   O     O_3   0.836180 0.390576 0.386948 -0.540667
C64   C     C_3   0.877887 0.438686 0.336044 -0.189125
H36   H     H_    0.928452 0.423238 0.290715 0.144605
H37   H     H_    0.879629 0.471386 0.453911 0.105583
H38   H     H_    0.858154 0.461984 0.213485 0.139257
C65   C     C_3   0.834055 0.617962 0.864149 -0.325448
C66   C     C_3   0.771430 0.655435 0.847043 -0.663792
H39   H     H_    0.740421 0.657795 0.982485 0.208823
H40   H     H_    0.785365 0.701308 0.805751 0.197072
H41   H     H_    0.740148 0.636638 0.739391 0.217405
H42   H     H_    0.870848 0.628308 0.745953 0.149833
H43   H     H_    0.825172 0.570107 0.846994 0.182245
C67   C     C_3   0.165944 0.117962 0.135851 -0.325447
C68   C     C_3   0.228570 0.155435 0.152957 -0.663792
H44   H     H_    0.259579 0.157795 0.017515 0.208824
H45   H     H_    0.214635 0.201308 0.194248 0.197072
H46   H     H_    0.259852 0.136638 0.260609 0.217406
H47   H     H_    0.129152 0.128308 0.254047 0.149833
H48   H     H_    0.174828 0.070107 0.153006 0.182245

loop_
_geom_bond_atom_site_label_1
_geom_bond_atom_site_label_2
_ccdc_geom_bond_type
C9    C25   A    
C68   H46   S    
C5    C55   S    
C10   C26   A    
C63   H33   S    
C50   C54   A    
C53   N3    S    
C15   C17   A    
O13   V3    S    
C14   C36   A    
C48   O24   S    
O4    C2    A    
C64   H38   S    
V1    O19   S    
C65   C66   S    
C17   C19   A    
C57   C59   A    
C54   C60   A    
C9    H5    S    
C39   H25   S    
C10   H6    S    
C42   H22   S    
C40   H26   S    
C18   H12   S    
O3    C1    A    
C44   N2    S    
C38   C40   A    
C1    C12   S    
C54   N4    S    
C28   C30   A    
C68   H44   S    
C61   H27   S    
C15   H13   S    
C21   C35   A    
C4    C37   S    
O7    C3    A    
O9    V1    S    
C62   H32   S    
C22   C30   A    
O5    C7    A    
C23   C31   A    
O7    V1    S    
O6    C8    A    
O8    V2    S    
C19   C21   A    
N2    N4    D    
C20   C22   A    
O3    V1    S    
O14   V4    S    
C11   C31   A    
C26   C28   A    
C49   C51   A    
C12   C32   A    
O14   V2    S    
C52   H18   S    
C57   C65   S    
C18   C20   A    
C2    O12   A    
H4    C28   S    
C49   H19   S    
C29   H15   S    
C51   H17   S    
C66   H41   S    
O1    V3    S    
C41   C43   A    
C14   C16   A    
O11   V3    S    
C16   C18   A    
C23   C25   A    
O17   V3    S    
C65   H42   S    
C55   C57   A    
C24   C26   A    
C9    C33   A    
C45   C47   A    
C67   H48   S    
C45   O21   S    
C2    C11   S    
C40   C42   A    
O8    C4    A    
C39   C41   A    
C1    O11   A    
C24   C32   A    
C63   H35   S    
O15   V3    S    
C30   H16   S    
C60   H24   S    
C8    C36   S    
C7    C35   S    
C31   H7    S    
C50   C52   A    
C13   C35   A    
C43   N1    S    
O10   V2    S    
C10   C34   A    
C37   C39   A    
C20   C24   A    
C14   H10   S    
C13   C15   A    
C17   H11   S    
C62   H30   S    
C66   H40   S    
C43   C45   A    
C41   H21   S    
O18   V4    S    
C42   C44   A    
C25   C27   A    
O23   C63   S    
O16   C6    A    
O1    C3    A    
C11   C33   A    
C64   H36   S    
C12   C34   A    
C16   H14   S    
C22   C36   A    
O22   C62   S    
C52   C56   A    
V2    O20   S    
C38   C48   A    
C68   H45   S    
C3    C38   S    
C58   C67   S    
C63   H34   S    
O16   V4    S    
C47   O23   S    
C6    C56   S    
C59   H23   S    
C67   H47   S    
C44   C46   A    
C66   H39   S    
C64   H37   S    
C46   O22   S    
N1    N3    D    
O5    V1    S    
C56   C58   A    
O17   C7    A    
O6    V2    S    
O10   C6    A    
O18   C8    A    
C61   H29   S    
C32   H8    S    
O2    V4    S    
O15   C5    A    
O24   C64   S    
V3    O19   S    
C53   C59   A    
V4    O20   S    
C58   C60   A    
C19   C23   A    
O9    C5    A    
O13   V1    S    
C61   H28   S    
C46   C48   A    
C49   C53   A    
O2    C4    A    
C62   H31   S    
C27   C29   A    
O4    V2    S    
C65   H43   S    
C21   C29   A    
C37   C47   A    
C13   H9    S    
C67   C68   S    
H1    C33   S    
C50   H20   S    
C51   C55   A    
H2    C34   S    
O12   V4    S    
H3    C27   S    
O21   C61   S    
