data_str_m9_o5_o16_f0_sra.sym.91
_audit_creation_date              2012-12-11T17:14:11-0500
_audit_creation_method            fapswitch 2.2
_symmetry_space_group_name_H-M    P1
_symmetry_Int_Tables_number       1
_space_group_crystal_system       triclinic
_cell_length_a                    18.213089
_cell_length_b                    7.094764
_cell_length_c                    13.048042
_cell_angle_alpha                 90.278664
_cell_angle_beta                  72.632458
_cell_angle_gamma                 89.910539
_cell_volume                      1609.14210657

loop_
_atom_site_label
_atom_site_type_symbol
_atom_type_description
_atom_site_fract_x
_atom_site_fract_y
_atom_site_fract_z
_atom_type_partial_charge
O1    O     O_R   0.453880 0.506200 0.150010 -0.538685
O2    O     O_R   0.546120 0.006200 0.849990 -0.538565
O3    O     O_R   0.604080 0.177770 0.007280 -0.540590
O4    O     O_R   0.395920 0.677770 0.992720 -0.541445
C1    C     C_R   0.635952 0.344432 0.001892 0.729331
C2    C     C_R   0.364053 0.844584 0.998070 0.729455
O5    O     O_R   0.458010 0.176640 0.159130 -0.541771
O6    O     O_R   0.541990 0.676640 0.840870 -0.542146
O7    O     O_R   0.399010 0.004010 0.002930 -0.535742
O8    O     O_R   0.600990 0.504010 0.997070 -0.536357
C3    C     C_R   0.443744 0.345957 0.201208 0.689843
C4    C     C_R   0.556234 0.844593 0.798763 0.690075
O9    O     O_3   0.480810 0.338440 0.948570 -0.373879
O10   O     O_3   0.519190 0.838440 0.051430 -0.374264
V1    V     V_3+5 0.503560 0.064490 0.009540 1.413385
V2    V     V_3+5 0.496440 0.564490 0.990460 1.412939
C5    C     C_R   0.572944 0.824067 0.506770 -0.157535
C6    C     C_R   0.426285 0.407725 0.491973 -0.157163
H1    H     H_    0.479452 0.813497 0.652528 0.103327
H2    H     H_    0.519880 0.407889 0.346057 0.103951
H3    H     H_    0.641613 0.828219 0.304346 0.136200
H4    H     H_    0.357501 0.415470 0.694730 0.135561
H5    H     H_    0.534825 0.809851 0.457312 0.121299
H6    H     H_    0.464211 0.431220 0.540927 0.121457
C7    C     C_R   0.588759 0.849756 0.682690 -0.025935
C8    C     C_R   0.410920 0.358112 0.317154 -0.026334
C9    C     C_R   0.944885 0.864515 0.381511 -0.152693
C10   C     C_R   0.054864 0.346782 0.618741 -0.152894
C11   C     C_R   0.914292 0.857818 0.491651 -0.130870
C12   C     C_R   0.085428 0.343592 0.508481 -0.130519
C13   C     C_R   0.835375 0.852551 0.538235 -0.148218
C14   C     C_R   0.164311 0.350557 0.461648 -0.148440
C15   C     C_R   0.783827 0.855940 0.475406 0.064641
C16   C     C_R   0.215847 0.357675 0.524423 0.064690
C17   C     C_R   0.814613 0.859090 0.360163 0.002803
C18   C     C_R   0.185101 0.362474 0.639632 0.002587
C19   C     C_R   0.702585 0.853129 0.524969 0.071228
C20   C     C_R   0.297030 0.363264 0.474786 0.071155
C21   C     C_R   0.653004 0.838043 0.460202 0.091242
C22   C     C_R   0.346375 0.390679 0.539015 0.091233
C23   C     C_R   0.682531 0.838861 0.349340 -0.185274
C24   C     C_R   0.316823 0.396708 0.649900 -0.185164
C25   C     C_R   0.761583 0.856776 0.296876 0.065274
C26   C     C_R   0.238112 0.372682 0.702711 0.064957
C27   C     C_R   0.668309 0.864188 0.637541 -0.204857
C28   C     C_R   0.331453 0.342312 0.362715 -0.204791
C29   C     C_R   0.541131 0.827399 0.617570 -0.175685
C30   C     C_R   0.458264 0.393399 0.381407 -0.175337
C31   C     C_R   0.897190 0.863921 0.315160 -0.066993
C32   C     C_R   0.102581 0.357766 0.684868 -0.067169
H7    H     H_    0.701179 0.883791 0.693007 0.093711
H8    H     H_    0.298783 0.311766 0.308139 0.093643
H9    H     H_    0.006947 0.868480 0.347306 0.103843
H10   H     H_    0.992817 0.343058 0.653145 0.103760
H11   H     H_    0.816917 0.842118 0.624353 0.106461
H12   H     H_    0.182763 0.354306 0.375313 0.106602
H13   H     H_    0.952236 0.855581 0.541677 0.125991
H14   H     H_    0.047470 0.337909 0.458528 0.125957
C33   C     C_1   0.216328 0.858671 0.000151 -0.183501
C34   C     C_1   0.783678 0.359103 0.999791 -0.183265
C35   C     C_1   0.283631 0.852683 0.998946 -0.198858
C36   C     C_1   0.716381 0.352630 0.000995 -0.199260
O11   O     O_R   0.899030 0.205490 0.002790 -0.539412
O12   O     O_R   0.100970 0.705490 0.997210 -0.539759
O13   O     O_R   0.042000 0.536370 0.840840 -0.541710
O14   O     O_R   0.958000 0.036370 0.159160 -0.543254
C37   C     C_R   0.061831 0.368157 0.799708 0.667286
C38   C     C_R   0.938063 0.869432 0.200294 0.666978
O15   O     O_R   0.895930 0.535070 0.992690 -0.543669
O16   O     O_R   0.104070 0.035070 0.007310 -0.543016
O17   O     O_R   0.953870 0.707520 0.150040 -0.541341
O18   O     O_R   0.046130 0.207520 0.849960 -0.542687
C39   C     C_R   0.864133 0.366908 0.998738 0.731468
C40   C     C_R   0.135871 0.866684 0.001247 0.731716
O19   O     O_3   0.019200 0.374340 0.051340 -0.373265
O20   O     O_3   0.980800 0.874340 0.948660 -0.373325
V3    V     V_3+5 0.996440 0.648350 0.990470 1.399542
V4    V     V_3+5 0.003560 0.148350 0.009530 1.396756
C41   C     C_3   0.787336 0.874454 0.174666 -0.350457
C42   C     C_3   0.725031 0.885665 0.117637 -0.728850
H15   H     H_    0.691988 0.752069 0.127208 0.219782
H16   H     H_    0.685829 0.006788 0.148576 0.223117
H17   H     H_    0.752734 0.907131 0.030344 0.221924
H18   H     H_    0.820751 0.005981 0.153923 0.197900
H19   H     H_    0.822915 0.750525 0.140212 0.203991
C43   C     C_3   0.212873 0.352468 0.824802 -0.346905
C44   C     C_3   0.275652 0.343511 0.881090 -0.731139
H20   H     H_    0.316075 0.225159 0.848705 0.221597
H21   H     H_    0.307274 0.479016 0.872577 0.222553
H22   H     H_    0.248544 0.318864 0.968222 0.221865
H23   H     H_    0.175633 0.473124 0.860857 0.199807
H24   H     H_    0.181248 0.218190 0.844307 0.200107

loop_
_geom_bond_atom_site_label_1
_geom_bond_atom_site_label_2
_ccdc_geom_bond_type
O14   C38   A    
C44   H20   S    
C31   C38   S    
C9    C11   A    
O12   V3    S    
O15   V3    S    
O1    C3    A    
O17   V3    S    
O2    C4    A    
C2    O7    A    
C18   C32   A    
C21   C23   A    
O5    C3    A    
C5    H5    S    
C6    H6    S    
C2    C35   S    
O20   V4    S    
C43   H23   S    
C41   H18   S    
H1    C29   S    
O16   V4    S    
C27   H7    S    
C25   C41   S    
C28   H8    S    
C34   C39   S    
C34   C36   T    
C37   O18   A    
C5    C21   A    
C6    C22   A    
O18   V4    S    
C10   C32   A    
O13   C37   A    
C17   C31   A    
C13   C15   A    
O15   C39   A    
C12   C14   A    
C17   C25   A    
C32   C37   S    
C7    C29   A    
C8    C30   A    
C22   C24   A    
O6    V2    S    
C23   C25   A    
C24   C26   A    
C42   H17   S    
C26   C43   S    
O14   V4    S    
C33   C35   T    
O13   V3    S    
O20   V3    S    
C42   H16   S    
C10   H10   S    
C43   C44   S    
O11   C39   A    
C3    C8    S    
C15   C19   A    
C14   C16   A    
O4    V2    S    
O16   C40   A    
O6    C4    A    
O1    V2    S    
O2    V1    S    
O19   V3    S    
C33   C40   S    
H2    C30   S    
H3    C23   S    
O4    C2    A    
C11   H13   S    
C44   H21   S    
C18   C26   A    
C19   C27   A    
C7    C27   A    
C41   H19   S    
O3    V1    S    
C16   C20   A    
C5    C29   A    
C42   H15   S    
O3    C1    A    
C6    C30   A    
C9    H9    S    
O9    V2    S    
C4    C7    S    
C10   C12   A    
O7    V1    S    
C1    O8    A    
C19   C21   A    
O8    V2    S    
C20   C22   A    
H4    C24   S    
C38   O17   A    
C12   H14   S    
O5    V1    S    
C15   C17   A    
C1    C36   S    
C16   C18   A    
O19   V4    S    
C20   C28   A    
C8    C28   A    
C41   C42   S    
C11   C13   A    
C44   H22   S    
O12   C40   A    
O10   V1    S    
C43   H24   S    
C13   H11   S    
C14   H12   S    
C9    C31   A    
O11   V4    S    
