data_str_m3_o40_o41_f0_fof.sym.31
_audit_creation_date              2012-12-10T16:38:03-0500
_audit_creation_method            fapswitch 2.2
_symmetry_space_group_name_H-M    P1
_symmetry_Int_Tables_number       1
_space_group_crystal_system       triclinic
_cell_length_a                    28.098179
_cell_length_b                    18.571625
_cell_length_c                    16.889783
_cell_angle_alpha                 90.043842
_cell_angle_beta                  61.235522
_cell_angle_gamma                 89.678895
_cell_volume                      7725.84479322

loop_
_atom_site_label
_atom_site_type_symbol
_atom_type_description
_atom_site_fract_x
_atom_site_fract_y
_atom_site_fract_z
_atom_type_partial_charge
C1    C     C_R   0.701160 0.266840 0.676848 0.906363
C2    C     C_R   0.083614 0.500473 0.547298 0.067045
C3    C     C_R   0.186810 0.223790 0.912597 0.040620
C4    C     C_R   0.613188 0.318102 0.050031 -0.173875
C5    C     C_R   0.386812 0.681898 0.949968 -0.173876
C6    C     C_R   0.382076 0.329319 0.950838 -0.174171
C7    C     C_R   0.617923 0.670681 0.049162 -0.174172
C8    C     C_R   0.113188 0.818102 0.050031 -0.173876
C9    C     C_R   0.886812 0.181898 0.949968 -0.173876
C10   C     C_R   0.882076 0.829319 0.950838 -0.174171
C11   C     C_R   0.117923 0.170681 0.049162 -0.174171
C12   C     C_R   0.641436 0.297622 0.095413 -0.161898
C13   C     C_R   0.416386 0.999527 0.452702 0.067045
C14   C     C_R   0.358564 0.702378 0.904587 -0.161898
C15   C     C_R   0.351507 0.315290 0.907659 -0.171830
C16   C     C_R   0.648493 0.684710 0.092341 -0.171830
C17   C     C_R   0.141436 0.797622 0.095413 -0.161898
C18   C     C_R   0.858564 0.202378 0.904587 -0.161898
C19   C     C_R   0.851507 0.815290 0.907660 -0.171829
C20   C     C_R   0.148493 0.184710 0.092341 -0.171830
C21   C     C_R   0.743881 0.195080 0.792571 0.175098
C22   C     C_R   0.256119 0.804920 0.207429 0.175098
C23   C     C_R   0.265551 0.184851 0.196727 0.156192
C24   C     C_R   0.583614 0.000473 0.547298 0.067045
C25   C     C_R   0.734448 0.815149 0.803273 0.156192
C26   C     C_R   0.243881 0.695080 0.792571 0.175098
C27   C     C_R   0.756119 0.304920 0.207429 0.175098
C28   C     C_R   0.765551 0.684851 0.196727 0.156192
C29   C     C_R   0.234449 0.315148 0.803273 0.156193
C30   C     C_R   0.781555 0.190058 0.825104 0.113093
C31   C     C_R   0.218445 0.809942 0.174896 0.113093
C32   C     C_R   0.232671 0.170916 0.155574 0.106608
C33   C     C_R   0.767328 0.829084 0.844426 0.106608
C34   C     C_R   0.281555 0.690058 0.825104 0.113092
C35   C     C_R   0.076955 0.370728 0.561876 -0.228706
C36   C     C_R   0.718445 0.309942 0.174896 0.113093
C37   C     C_R   0.732672 0.670916 0.155574 0.106608
C38   C     C_R   0.267328 0.329084 0.844426 0.106608
C39   C     C_R   0.073056 0.101443 0.935586 0.907097
C40   C     C_R   0.926944 0.898557 0.064414 0.907097
C41   C     C_R   0.927880 0.102724 0.063617 0.905196
C42   C     C_R   0.072120 0.897276 0.936383 0.905196
C43   C     C_R   0.573056 0.601443 0.935586 0.907097
C44   C     C_R   0.426944 0.398557 0.064414 0.907097
C45   C     C_R   0.427880 0.602724 0.063617 0.905196
C46   C     C_R   0.923045 0.629271 0.438124 -0.228706
C47   C     C_R   0.572120 0.397276 0.936383 0.905196
C48   C     C_R   0.538770 0.131043 0.528163 0.098021
C49   C     C_R   0.461230 0.868957 0.471837 0.098021
C50   C     C_R   0.462442 0.130344 0.465841 0.099310
C51   C     C_R   0.537558 0.869656 0.534159 0.099310
C52   C     C_R   0.038770 0.631043 0.528163 0.098021
C53   C     C_R   0.961229 0.368957 0.471837 0.098021
C54   C     C_R   0.962441 0.630344 0.465841 0.099310
C55   C     C_R   0.037558 0.369656 0.534159 0.099310
C56   C     C_R   0.519347 0.196187 0.512144 -0.187447
C57   C     C_R   0.922151 0.369423 0.443397 -0.228496
C58   C     C_R   0.480652 0.803813 0.487856 -0.187447
C59   C     C_R   0.482587 0.195790 0.478624 -0.189617
C60   C     C_R   0.517413 0.804210 0.521375 -0.189617
C61   C     C_R   0.019347 0.696187 0.512144 -0.187447
C62   C     C_R   0.980652 0.303813 0.487856 -0.187447
C63   C     C_R   0.982587 0.695790 0.478624 -0.189617
C64   C     C_R   0.017413 0.304210 0.521375 -0.189617
C65   C     C_R   0.480570 0.065162 0.484194 0.032350
C66   C     C_R   0.519430 0.934837 0.515806 0.032351
C67   C     C_R   0.520077 0.065475 0.512724 0.032501
C68   C     C_R   0.077849 0.630577 0.556603 -0.228495
C69   C     C_R   0.479923 0.934525 0.487276 0.032501
C70   C     C_R   0.980570 0.565162 0.484194 0.032350
C71   C     C_R   0.019430 0.434837 0.515806 0.032350
C72   C     C_R   0.020077 0.565475 0.512724 0.032501
C73   C     C_R   0.979923 0.434525 0.487276 0.032501
C74   C     C_R   0.959795 0.499698 0.472704 -0.046511
C75   C     C_R   0.040204 0.500302 0.527296 -0.046511
C76   C     C_R   0.459796 0.999698 0.472704 -0.046511
C77   C     C_R   0.540204 0.000302 0.527296 -0.046511
C78   C     C_R   0.893842 0.433647 0.445855 0.053800
C79   C     C_R   0.576955 0.870728 0.561876 -0.228706
C80   C     C_R   0.106157 0.566353 0.554145 0.053800
C81   C     C_R   0.105743 0.434662 0.556372 0.052365
C82   C     C_R   0.894256 0.565338 0.443628 0.052365
C83   C     C_R   0.393842 0.933647 0.445855 0.053800
C84   C     C_R   0.606157 0.066353 0.554145 0.053800
C85   C     C_R   0.605743 0.934662 0.556372 0.052365
C86   C     C_R   0.394257 0.065338 0.443628 0.052365
C87   C     C_R   0.842958 0.434756 0.445726 -0.115266
C88   C     C_R   0.157042 0.565244 0.554274 -0.115267
C89   C     C_R   0.156850 0.435271 0.555322 -0.112541
C90   C     C_R   0.423045 0.129271 0.438124 -0.228706
C91   C     C_R   0.843150 0.564729 0.444678 -0.112541
C92   C     C_R   0.342958 0.934756 0.445726 -0.115266
C93   C     C_R   0.657042 0.065244 0.554274 -0.115266
C94   C     C_R   0.656850 0.935271 0.555322 -0.112541
C95   C     C_R   0.343150 0.064729 0.444678 -0.112541
C96   C     C_R   0.819841 0.499848 0.441825 -0.249357
C97   C     C_R   0.180159 0.500152 0.558175 -0.249357
C98   C     C_R   0.319841 0.999847 0.441825 -0.249357
C99   C     C_R   0.680159 0.000152 0.558175 -0.249357
C100  C     C_R   0.422151 0.869423 0.443397 -0.228496
C101  C     C_R   0.298840 0.733160 0.323152 0.906363
C102  C     C_R   0.577849 0.130577 0.556603 -0.228495
C103  C     C_R   0.718447 0.260485 0.956128 -0.007672
C104  C     C_R   0.281553 0.739515 0.043872 -0.007672
C105  C     C_R   0.282080 0.261238 0.042874 -0.002352
C106  C     C_R   0.717920 0.738762 0.957126 -0.002352
C107  C     C_R   0.218447 0.760485 0.956128 -0.007672
C108  C     C_R   0.781553 0.239515 0.043872 -0.007672
C109  C     C_R   0.782079 0.761238 0.042874 -0.002352
C110  C     C_R   0.217920 0.238762 0.957126 -0.002352
C111  C     C_R   0.769895 0.225590 0.908300 -0.055405
C112  C     C_R   0.298972 0.266602 0.322833 0.905762
C113  C     C_R   0.230105 0.774409 0.091700 -0.055405
C114  C     C_R   0.236450 0.215940 0.084221 -0.062714
C115  C     C_R   0.763550 0.784060 0.915779 -0.062714
C116  C     C_R   0.269895 0.725590 0.908300 -0.055405
C117  C     C_R   0.730105 0.274409 0.091700 -0.055405
C118  C     C_R   0.736450 0.715940 0.084221 -0.062714
C119  C     C_R   0.263550 0.284060 0.915779 -0.062714
C120  C     C_R   0.802983 0.220303 0.951398 0.105078
C121  C     C_R   0.197017 0.779697 0.048602 0.105079
C122  C     C_R   0.201853 0.210124 0.044198 0.106372
C123  C     C_R   0.701028 0.733398 0.677167 0.905762
C124  C     C_R   0.798147 0.789876 0.955802 0.106372
C125  C     C_R   0.302983 0.720303 0.951398 0.105078
C126  C     C_R   0.697017 0.279697 0.048602 0.105079
C127  C     C_R   0.701853 0.710124 0.044198 0.106372
C128  C     C_R   0.298147 0.289876 0.955802 0.106372
C129  C     C_R   0.637859 0.313681 0.955480 0.099678
C130  C     C_R   0.362141 0.686319 0.044520 0.099678
C131  C     C_R   0.360546 0.317906 0.044603 0.097481
C132  C     C_R   0.639453 0.682094 0.955397 0.097481
C133  C     C_R   0.137859 0.813681 0.955480 0.099679
C134  C     C_R   0.201160 0.766840 0.676848 0.906363
C135  C     C_R   0.862141 0.186319 0.044520 0.099679
C136  C     C_R   0.860546 0.817906 0.044603 0.097481
C137  C     C_R   0.139453 0.182094 0.955397 0.097481
C138  C     C_R   0.613133 0.340248 0.904172 -0.135372
C139  C     C_R   0.386867 0.659752 0.095828 -0.135372
C140  C     C_R   0.385690 0.342605 0.096136 -0.132382
C141  C     C_R   0.614309 0.657395 0.903864 -0.132382
C142  C     C_R   0.113133 0.840248 0.904172 -0.135372
C143  C     C_R   0.886867 0.159752 0.095828 -0.135372
C144  C     C_R   0.885691 0.842605 0.096136 -0.132382
C145  C     C_R   0.798840 0.233160 0.323152 0.906363
C146  C     C_R   0.114309 0.157395 0.903864 -0.132382
C147  C     C_R   0.632712 0.319248 0.815806 -0.296859
C148  C     C_R   0.367287 0.680752 0.184194 -0.296859
C149  C     C_R   0.366452 0.320736 0.184212 -0.297483
C150  C     C_R   0.633548 0.679264 0.815788 -0.297483
C151  C     C_R   0.132712 0.819248 0.815806 -0.296859
C152  C     C_R   0.867287 0.180752 0.184194 -0.296859
C153  C     C_R   0.866452 0.820736 0.184212 -0.297484
C154  C     C_R   0.133548 0.179264 0.815788 -0.297484
C155  C     C_R   0.677492 0.274920 0.774673 -0.087389
C156  C     C_R   0.798972 0.766602 0.322833 0.905762
C157  C     C_R   0.322508 0.725080 0.225327 -0.087389
C158  C     C_R   0.323152 0.274433 0.224183 -0.086569
C159  C     C_R   0.676847 0.725567 0.775817 -0.086569
C160  C     C_R   0.177492 0.774920 0.774673 -0.087389
C161  C     C_R   0.822508 0.225080 0.225327 -0.087389
C162  C     C_R   0.823152 0.774433 0.224183 -0.086569
C163  C     C_R   0.176847 0.225567 0.775817 -0.086569
C164  C     C_R   0.704080 0.249572 0.823943 -0.039993
C165  C     C_R   0.295920 0.750428 0.176057 -0.039992
C166  C     C_R   0.298662 0.246586 0.172700 -0.031275
C167  C     C_R   0.201028 0.233398 0.677167 0.905762
C168  C     C_R   0.701338 0.753414 0.827300 -0.031274
C169  C     C_R   0.204080 0.749572 0.823943 -0.039992
C170  C     C_R   0.795919 0.250428 0.176057 -0.039992
C171  C     C_R   0.798662 0.746586 0.172700 -0.031274
C172  C     C_R   0.201338 0.253414 0.827300 -0.031275
C173  C     C_R   0.691454 0.129208 0.533997 0.903779
C174  C     C_R   0.308546 0.870792 0.466003 0.903779
C175  C     C_R   0.308645 0.129188 0.465639 0.906408
C176  C     C_R   0.691355 0.870812 0.534361 0.906408
C177  C     C_R   0.191454 0.629208 0.533997 0.903779
C178  C     C_R   0.916386 0.499527 0.452702 0.067045
C179  C     C_R   0.808546 0.370792 0.466003 0.903779
C180  C     C_R   0.808645 0.629188 0.465639 0.906408
C181  C     C_R   0.191355 0.370812 0.534361 0.906408
C182  C     C_R   0.687363 0.275584 0.911281 0.041718
C183  C     C_R   0.312637 0.724416 0.088719 0.041718
C184  C     C_R   0.313189 0.276210 0.087402 0.040620
C185  C     C_R   0.686810 0.723790 0.912597 0.040620
C186  C     C_R   0.187363 0.775584 0.911281 0.041718
C187  C     C_R   0.812637 0.224416 0.088719 0.041718
C188  C     C_R   0.813189 0.776210 0.087402 0.040620
H1    H     H_    0.031339 0.253384 0.534601 0.149465
H2    H     H_    0.219343 0.499945 0.556038 0.215787
H3    H     H_    0.280657 0.000055 0.443962 0.215787
H4    H     H_    0.719343 0.999945 0.556038 0.215787
H5    H     H_    0.084442 0.320894 0.586892 0.178021
H6    H     H_    0.915558 0.679105 0.413108 0.178021
H7    H     H_    0.914907 0.318874 0.419795 0.179475
H8    H     H_    0.085093 0.681126 0.580205 0.179475
H9    H     H_    0.584442 0.820894 0.586892 0.178021
H10   H     H_    0.415558 0.179106 0.413108 0.178021
H11   H     H_    0.414907 0.818874 0.419795 0.179475
H12   H     H_    0.968661 0.746616 0.465399 0.149465
H13   H     H_    0.585093 0.181126 0.580205 0.179475
H14   H     H_    0.614167 0.340388 0.777169 0.190421
H15   H     H_    0.385832 0.659612 0.222831 0.190421
H16   H     H_    0.384333 0.342373 0.223488 0.190705
H17   H     H_    0.615667 0.657627 0.776512 0.190705
H18   H     H_    0.114168 0.840388 0.777169 0.190421
H19   H     H_    0.885832 0.159612 0.222831 0.190421
H20   H     H_    0.884333 0.842373 0.223488 0.190705
H21   H     H_    0.115667 0.157627 0.776512 0.190705
H22   H     H_    0.570812 0.332401 0.090467 0.164723
H23   H     H_    0.966218 0.252703 0.477028 0.151892
H24   H     H_    0.429188 0.667599 0.909533 0.164723
H25   H     H_    0.423362 0.346050 0.908006 0.171656
H26   H     H_    0.576638 0.653950 0.091994 0.171656
H27   H     H_    0.070812 0.832401 0.090467 0.164723
H28   H     H_    0.929188 0.167599 0.909533 0.164723
H29   H     H_    0.923362 0.846050 0.908006 0.171656
H30   H     H_    0.076637 0.153950 0.091994 0.171656
H31   H     H_    0.618031 0.291361 0.167284 0.172971
H32   H     H_    0.381969 0.708639 0.832716 0.172971
H33   H     H_    0.370817 0.322184 0.835265 0.168990
H34   H     H_    0.033782 0.747297 0.522972 0.151892
H35   H     H_    0.629183 0.677816 0.164735 0.168990
H36   H     H_    0.118031 0.791361 0.167284 0.172971
H37   H     H_    0.881969 0.208639 0.832716 0.172971
H38   H     H_    0.870817 0.822184 0.835265 0.168990
H39   H     H_    0.129183 0.177816 0.164735 0.168990
H40   H     H_    0.531339 0.753384 0.534601 0.149465
H41   H     H_    0.468661 0.246616 0.465399 0.149465
H42   H     H_    0.466218 0.752703 0.477028 0.151892
H43   H     H_    0.533782 0.247297 0.522972 0.151892
H44   H     H_    0.780657 0.500055 0.443962 0.215787
I1    I     I_    0.726420 0.100115 0.739223 -0.236536
I2    I     I_    0.150435 0.879453 0.255109 -0.316420
I3    I     I_    0.192542 0.069095 0.181592 -0.267735
I4    I     I_    0.807457 0.930906 0.818409 -0.267735
I5    I     I_    0.349565 0.620546 0.744891 -0.316420
I6    I     I_    0.650435 0.379454 0.255109 -0.316420
I7    I     I_    0.692542 0.569094 0.181591 -0.267735
I8    I     I_    0.307458 0.430905 0.818408 -0.267735
I9    I     I_    0.273580 0.899885 0.260777 -0.236536
I10   I     I_    0.286889 0.098533 0.258244 -0.264029
I11   I     I_    0.713111 0.901467 0.741756 -0.264029
I12   I     I_    0.226420 0.600115 0.739223 -0.236536
I13   I     I_    0.773580 0.399885 0.260777 -0.236536
I14   I     I_    0.786889 0.598533 0.258244 -0.264029
I15   I     I_    0.213111 0.401467 0.741756 -0.264029
I16   I     I_    0.849565 0.120546 0.744891 -0.316420
O1    O     O_R   0.746490 0.236330 0.638080 -0.604841
O2    O     O_R   0.325830 0.813840 0.483730 -0.645932
O3    O     O_R   0.325830 0.186160 0.483730 -0.645338
O4    O     O_R   0.674170 0.813840 0.516270 -0.645338
O5    O     O_R   0.174170 0.686160 0.516270 -0.645932
O6    O     O_R   0.825830 0.313840 0.483730 -0.645932
O7    O     O_R   0.825830 0.686160 0.483730 -0.645338
O8    O     O_R   0.174170 0.313840 0.516270 -0.645338
O9    O     O_R   0.739960 0.127620 0.525000 -0.603874
O10   O     O_R   0.260040 0.872380 0.475000 -0.603874
O11   O     O_R   0.260040 0.127620 0.475000 -0.603443
O12   O     O_R   0.253510 0.763670 0.361920 -0.604841
O13   O     O_R   0.739960 0.872380 0.525000 -0.603443
O14   O     O_R   0.239960 0.627620 0.525000 -0.603874
O15   O     O_R   0.760040 0.372380 0.475000 -0.603874
O16   O     O_R   0.760040 0.627620 0.475000 -0.603443
O17   O     O_R   0.239960 0.372380 0.525000 -0.603442
O18   O     O_R   0.680700 0.294870 0.629350 -0.636379
O19   O     O_R   0.319300 0.705130 0.370650 -0.636379
O20   O     O_R   0.319300 0.294870 0.370650 -0.634717
O21   O     O_R   0.680700 0.705130 0.629350 -0.634717
O22   O     O_R   0.180700 0.794870 0.629350 -0.636379
O23   O     O_R   0.253510 0.236330 0.361920 -0.604550
O24   O     O_R   0.819300 0.205130 0.370650 -0.636380
O25   O     O_R   0.819300 0.794870 0.370650 -0.634717
O26   O     O_R   0.180700 0.205130 0.629350 -0.634717
O27   O     O_R   0.062020 0.072840 0.007170 -0.623330
O28   O     O_R   0.937980 0.927160 0.992830 -0.623330
O29   O     O_R   0.937980 0.072840 0.992830 -0.615545
O30   O     O_R   0.062020 0.927160 0.007170 -0.615545
O31   O     O_R   0.562020 0.572840 0.007170 -0.623330
O32   O     O_R   0.437980 0.427160 0.992830 -0.623330
O33   O     O_R   0.437980 0.572840 0.992830 -0.615545
O34   O     O_R   0.746490 0.763670 0.638080 -0.604550
O35   O     O_R   0.562020 0.427160 0.007170 -0.615545
O36   O     O_R   0.947860 0.073950 0.109290 -0.620591
O37   O     O_R   0.052140 0.926050 0.890710 -0.620591
O38   O     O_R   0.052140 0.073950 0.890710 -0.621174
O39   O     O_R   0.947860 0.926050 0.109290 -0.621174
O40   O     O_R   0.447860 0.573950 0.109290 -0.620591
O41   O     O_R   0.552140 0.426050 0.890710 -0.620591
O42   O     O_R   0.552140 0.573950 0.890710 -0.621174
O43   O     O_R   0.447860 0.426050 0.109290 -0.621174
O44   O     O_R   0.246490 0.736330 0.638080 -0.604841
O45   O     O_R   0.753510 0.263670 0.361920 -0.604841
O46   O     O_R   0.753510 0.736330 0.361920 -0.604550
O47   O     O_R   0.246490 0.263670 0.638080 -0.604550
O48   O     O_R   0.674170 0.186160 0.516270 -0.645932
Zn1   Zn    Zn3+2 0.792340 0.208750 0.507670 1.007528
Zn2   Zn    Zn3+2 0.494040 0.500000 0.919480 0.966974
Zn3   Zn    Zn3+2 0.005960 0.000000 0.080520 0.966974
Zn4   Zn    Zn3+2 0.994040 0.000000 0.919480 0.966973
Zn5   Zn    Zn3+2 0.207660 0.791250 0.492330 1.007528
Zn6   Zn    Zn3+2 0.207660 0.208750 0.492330 0.999067
Zn7   Zn    Zn3+2 0.792340 0.791250 0.507670 0.999067
Zn8   Zn    Zn3+2 0.292340 0.708750 0.507670 1.007528
Zn9   Zn    Zn3+2 0.707660 0.291250 0.492330 1.007528
Zn10  Zn    Zn3+2 0.707660 0.708750 0.492330 0.999067
Zn11  Zn    Zn3+2 0.292340 0.291250 0.507670 0.999067
Zn12  Zn    Zn3+2 0.505960 0.500000 0.080520 0.966974

loop_
_geom_bond_atom_site_label_1
_geom_bond_atom_site_label_2
_ccdc_geom_bond_type
O32   Zn2   S    
C108  C120  A    
C152  H19   S    
O17   Zn11  S    
O5    Zn5   S    
C88   C177  S    
O13   Zn7   S    
C20   H39   S    
C30   I16   S    
C57   H7    S    
C50   C59   A    
C19   H38   S    
C41   C143  S    
C52   C61   A    
C180  O16   A    
C37   I7    S    
C12   C126  A    
C54   C63   A    
C40   O28   A    
C58   C60   A    
C43   O42   A    
C45   C139  S    
C61   C63   A    
C103  C126  A    
C95   C175  S    
C62   C64   A    
C131  C140  A    
C91   C96   A    
C179  O6    A    
C179  O15   A    
C50   C90   A    
C162  C171  A    
C170  C187  A    
C70   C74   A    
C4    C12   A    
C147  C155  A    
C24   C85   A    
C112  O20   A    
O8    Zn6   S    
C88   C97   A    
C119  C128  A    
C109  C188  A    
C49   C69   A    
C14   H32   S    
O26   Zn6   S    
O27   Zn3   S    
C109  C118  A    
C173  O48   A    
C11   C20   A    
C150  C159  A    
C165  C183  A    
C137  C146  A    
C166  C184  A    
O15   Zn9   S    
C86   C90   A    
C71   C73   A    
C106  C127  A    
C82   C91   A    
C51   C66   A    
C89   C181  S    
C142  C151  A    
C173  O9    A    
C52   C72   A    
C153  H20   S    
C131  C184  A    
C105  C114  A    
C31   I2    S    
C54   C70   A    
C82   C178  A    
C36   C117  A    
C11   H30   S    
C7    C132  A    
C33   I4    S    
O14   Zn8   S    
C38   C119  A    
C5    C130  A    
C83   C100  A    
C47   O41   A    
C79   C85   A    
C5    H24   S    
O11   Zn6   S    
C57   C78   A    
O33   Zn2   S    
C176  O4    A    
O46   Zn10  S    
O36   Zn3   S    
C8    C17   A    
C56   C59   A    
C106  C115  A    
C80   C88   A    
O6    Zn1   S    
C6    H25   S    
C145  C161  S    
O2    Zn8   S    
C93   C173  S    
C84   C93   A    
C105  C184  A    
O7    Zn7   S    
C86   C95   A    
C38   I8    S    
C24   C77   A    
C104  C183  A    
C43   O31   A    
O3    Zn11  S    
O43   Zn12  S    
C2    C81   A    
C22   I9    S    
C55   C71   A    
C2    C75   A    
C78   C87   A    
C134  C160  S    
C84   C102  A    
C67   C77   A    
O31   Zn12  S    
C133  C142  A    
C45   O40   A    
C123  C159  S    
C18   H37   S    
C102  H13   S    
C130  C183  A    
C27   I13   S    
C99   H4    S    
C1    O1    A    
C3    C110  A    
C69   C76   A    
C85   C94   A    
C61   H34   S    
O40   Zn12  S    
C46   C82   A    
C29   C38   A    
C149  C158  A    
C20   C122  A    
C152  C161  A    
C135  C143  A    
C48   C67   A    
C136  C188  A    
C72   C75   A    
C112  O23   A    
C135  C187  A    
C180  O7    A    
C141  C150  A    
C46   H6    S    
O22   Zn5   S    
C25   C168  A    
C139  C148  A    
C104  C125  A    
C157  C165  A    
C92   C174  S    
C56   H43   S    
C60   H40   S    
C58   H42   S    
C181  O8    A    
C175  O3    A    
C91   C180  S    
C28   I14   S    
C47   O35   A    
C9    C135  A    
C116  C125  A    
O37   Zn4   S    
C118  C127  A    
C59   H41   S    
O20   Zn11  S    
O35   Zn12  S    
C117  C126  A    
C39   O27   A    
C132  C141  A    
C108  C117  A    
C98   H3    S    
C110  C119  A    
C174  O10   A    
C134  O22   A    
C44   O32   A    
C28   C37   A    
C47   C138  S    
C148  C157  A    
C50   C65   A    
C51   C79   A    
C107  C116  A    
C7    H26   S    
C41   O29   A    
C104  C113  A    
C9    C18   A    
C113  C121  A    
C51   C60   A    
C140  C149  A    
C31   C113  A    
C10   H29   S    
C25   C33   A    
O47   Zn11  S    
C129  C182  A    
C44   O43   A    
C73   C74   A    
O42   Zn2   S    
C41   O36   A    
C64   H1    S    
C112  C158  S    
C107  C186  A    
C65   C76   A    
O39   Zn3   S    
C171  C188  A    
C145  O24   A    
C134  O44   A    
C169  C186  A    
C42   O30   A    
C3    C172  A    
O48   Zn9   S    
C63   H12   S    
C103  C111  A    
C21   I1    S    
C1    O18   A    
C65   C67   A    
C160  C169  A    
C3    C137  A    
C93   C99   A    
C81   C89   A    
C123  O21   A    
C101  C157  S    
C44   C140  S    
C21   C164  A    
O19   Zn8   S    
C130  C139  A    
C167  O26   A    
O28   Zn4   S    
O12   Zn5   S    
C25   I11   S    
C36   I6    S    
C33   C115  A    
C53   C57   A    
C132  C185  A    
C177  O14   A    
O29   Zn4   S    
O30   Zn3   S    
C10   C19   A    
C48   C102  A    
C46   C54   A    
C68   H8    S    
C149  H16   S    
C5    C14   A    
O34   Zn7   S    
C181  O17   A    
C17   C121  A    
C143  C152  A    
C15   C128  A    
C43   C141  S    
C107  C121  A    
O16   Zn10  S    
C158  C166  A    
C115  C124  A    
C39   O38   A    
C78   C178  A    
C106  C185  A    
C6    C131  A    
C123  O34   A    
C4    C129  A    
C27   C36   A    
C21   C30   A    
C13   C83   A    
C40   O39   A    
O4    Zn10  S    
C156  O46   A    
C153  C162  A    
C23   C32   A    
C11   C137  A    
C136  C144  A    
C110  C122  A    
C9    H28   S    
C39   C146  S    
C66   C77   A    
C42   O37   A    
C164  C182  A    
C35   H5    S    
O21   Zn10  S    
C176  O13   A    
C16   H35   S    
O23   Zn6   S    
O18   Zn9   S    
C94   C176  S    
C32   I3    S    
C68   C80   A    
O1    Zn1   S    
C74   C178  A    
C79   H9    S    
C103  C182  A    
C108  C187  A    
C8    H27   S    
C35   C81   A    
C95   C98   A    
C92   C98   A    
C83   C92   A    
C14   C125  A    
O41   Zn2   S    
C10   C136  A    
C154  H21   S    
C26   I12   S    
C66   C69   A    
C34   C116  A    
C101  O12   A    
C4    H22   S    
C159  C168  A    
C144  C153  A    
C1    C155  S    
C34   I5    S    
C6    C15   A    
C22   C165  A    
C26   C34   A    
C129  C138  A    
C26   C169  A    
C146  C154  A    
C13   C86   A    
C42   C142  S    
C62   H23   S    
C12   H31   S    
C52   C68   A    
C101  O19   A    
C156  C162  S    
C29   C172  A    
C29   I15   S    
O38   Zn4   S    
C16   C127  A    
O10   Zn5   S    
C167  O47   A    
C19   C124  A    
C45   O33   A    
C22   C31   A    
C37   C118  A    
C35   C55   A    
C154  C163  A    
C174  O2    A    
C49   C58   A    
C89   C97   A    
C111  C120  A    
C15   H33   S    
C163  C167  S    
C163  C172  A    
C23   C166  A    
O45   Zn9   S    
C53   C62   A    
C28   C171  A    
C27   C170  A    
C13   C76   A    
C138  C147  A    
C87   C96   A    
C156  O25   A    
C23   I10   S    
C133  C186  A    
C161  C170  A    
C97   H2    S    
C40   C144  S    
C18   C120  A    
O9    Zn1   S    
C48   C56   A    
C7    C16   A    
C168  C185  A    
C105  C128  A    
C8    C133  A    
C147  H14   S    
C53   C73   A    
O25   Zn7   S    
C150  H17   S    
C109  C124  A    
C90   H10   S    
C55   C64   A    
C155  C164  A    
C177  O5    A    
C30   C111  A    
C151  C160  A    
C24   C84   A    
C17   H36   S    
C145  O45   A    
C49   C100  A    
C71   C75   A    
C94   C99   A    
O44   Zn8   S    
C96   H44   S    
C151  H18   S    
C2    C80   A    
C87   C179  S    
C114  C122  A    
C100  H11   S    
C70   C72   A    
C32   C114  A    
O24   Zn1   S    
C148  H15   S    
C175  O11   A    
