data_str_m9_o2_o20_f0_sra.sym.30
_audit_creation_date              2012-12-11T16:29:27-0500
_audit_creation_method            fapswitch 2.2
_symmetry_space_group_name_H-M    P1
_symmetry_Int_Tables_number       1
_space_group_crystal_system       triclinic
_cell_length_a                    6.953223
_cell_length_b                    17.334334
_cell_length_c                    18.748356
_cell_angle_alpha                 106.320601
_cell_angle_beta                  89.427429
_cell_angle_gamma                 90.307707
_cell_volume                      2168.55640797

loop_
_atom_site_label
_atom_site_type_symbol
_atom_type_description
_atom_site_fract_x
_atom_site_fract_y
_atom_site_fract_z
_atom_type_partial_charge
O1    O     O_R   0.494360 0.415680 0.413760 -0.512867
O2    O     O_R   0.818810 0.432910 0.557230 -0.528494
O3    O     O_R   0.994290 0.584320 0.586240 -0.538308
C1    C     C_R   0.649728 0.416018 0.580666 0.699624
O4    O     O_R   0.823740 0.406440 0.412520 -0.544852
O5    O     O_R   0.999250 0.557660 0.440500 -0.527800
C2    C     C_R   0.655539 0.383624 0.384865 0.739122
O6    O     O_R   0.489400 0.442340 0.559500 -0.529572
O7    O     O_3   0.662500 0.549650 0.509350 -0.355307
V1    V     V_3+5 0.935340 0.490790 0.498270 1.423662
O8    O     O_R   0.329270 0.567090 0.442770 -0.505931
C3    C     C_R   0.161253 0.584093 0.419434 0.730166
O9    O     O_R   0.324340 0.593560 0.587480 -0.539253
C4    C     C_R   0.154636 0.614311 0.616517 0.703953
V2    V     V_3+5 0.435970 0.509210 0.501730 1.465489
O10   O     O_3   0.158940 0.450350 0.490650 -0.360875
C5    C     C_R   0.174372 0.585221 0.767002 0.090852
C6    C     C_R   0.222649 0.574711 0.835710 -0.146576
C7    C     C_R   0.252641 0.639274 0.897735 0.107268
C8    C     C_R   0.227165 0.718442 0.892731 0.323046
C9    C     C_R   0.171871 0.732178 0.823789 -0.026948
C10   C     C_R   0.162547 0.664899 0.758170 -0.004517
C11   C     C_R   0.125219 0.811205 0.818833 -0.148678
C12   C     C_R   0.090565 0.823796 0.748575 0.043706
C13   C     C_R   0.102824 0.758838 0.682902 0.032494
C14   C     C_R   0.139917 0.679891 0.687173 -0.131192
C15   C     C_R   0.048346 0.901519 0.742223 -0.196716
C16   C     C_R   0.020146 0.914862 0.673243 -0.102555
C17   C     C_R   0.034172 0.851477 0.608406 0.205697
C18   C     C_R   0.075418 0.774330 0.613282 -0.143104
H1    H     H_    0.235218 0.514404 0.841424 0.137113
H2    H     H_    0.037852 0.953310 0.790377 0.104101
H3    H     H_    0.988302 0.975102 0.670617 0.123080
H4    H     H_    0.084963 0.726793 0.561662 0.098283
C19   C     C_1   0.111179 0.864620 0.133263 -0.188741
C20   C     C_1   0.118670 0.821983 0.176770 0.027074
C21   C     C_1   0.128204 0.771691 0.228592 0.016612
C22   C     C_1   0.136394 0.729327 0.272331 0.005916
C23   C     C_1   0.145976 0.678986 0.324113 0.009504
C24   C     C_1   0.153544 0.636270 0.367552 -0.187615
C25   C     C_1   0.641038 0.364225 0.632803 -0.193063
C26   C     C_1   0.636961 0.321708 0.676439 0.018187
C27   C     C_1   0.633795 0.271479 0.728338 0.005042
C28   C     C_1   0.631463 0.229116 0.772129 -0.000120
C29   C     C_1   0.628255 0.178806 0.823965 -0.001565
C30   C     C_1   0.624114 0.136151 0.867491 -0.216094
C31   C     C_R   0.543584 0.409394 0.240701 0.326857
C32   C     C_R   0.460008 0.418596 0.176261 -0.112196
C33   C     C_R   0.432421 0.352920 0.115027 -0.204696
C34   C     C_R   0.488151 0.276817 0.117157 -0.151227
C35   C     C_R   0.563481 0.263701 0.182614 0.040599
C36   C     C_R   0.585910 0.330672 0.247084 -0.016755
C37   C     C_R   0.619361 0.185387 0.183789 -0.126316
C38   C     C_R   0.688343 0.172783 0.250534 0.000934
C39   C     C_R   0.700554 0.238030 0.316063 -0.005923
C40   C     C_R   0.648583 0.316873 0.314807 -0.156311
C41   C     C_R   0.738806 0.094914 0.253900 -0.195806
C42   C     C_R   0.800780 0.080657 0.319588 0.300946
C43   C     C_R   0.819575 0.146051 0.384238 0.309543
C44   C     C_R   0.764176 0.222691 0.382270 -0.188491
H5    H     H_    0.423964 0.478056 0.172552 0.138302
H6    H     H_    0.372513 0.361360 0.064674 0.135293
H7    H     H_    0.470322 0.228560 0.066666 0.120583
H8    H     H_    0.725249 0.043110 0.205957 0.143461
H9    H     H_    0.775400 0.270313 0.433640 0.142390
O11   O     O_R   0.775690 0.057750 0.940570 -0.525884
O12   O     O_R   0.441200 0.093570 0.087490 -0.538923
O13   O     O_R   0.265840 0.942320 0.059480 -0.514090
C45   C     C_R   0.609562 0.116737 0.114992 0.681769
O14   O     O_R   0.446270 0.067110 0.942790 -0.531365
O15   O     O_R   0.270950 0.915660 0.913750 -0.514770
C46   C     C_R   0.615369 0.084138 0.919457 0.706753
O16   O     O_R   0.770580 0.084400 0.086300 -0.536056
O17   O     O_3   0.602640 0.950400 0.990690 -0.352445
V3    V     V_3+5 0.329740 0.009200 0.001730 1.444440
O18   O     O_R   0.940900 0.906360 0.912450 -0.542027
C47   C     C_R   0.111133 0.881758 0.886228 0.804874
O19   O     O_R   0.935830 0.932820 0.057160 -0.527584
C48   C     C_R   0.103631 0.916625 0.081211 0.776289
V4    V     V_3+5 0.829130 0.990680 0.998180 1.437701
O20   O     O_3   0.106100 0.049590 0.009310 -0.369141
C49   C     C_3   0.005329 0.865131 0.533614 -0.786513
H10   H     H_    0.973806 0.929172 0.538458 0.212734
H11   H     H_    0.137373 0.847649 0.499152 0.213300
H12   H     H_    0.883035 0.827923 0.505176 0.213554
O21   O     O_3   0.590363 0.479088 0.294069 -0.645080
H13   H     H_    0.729062 0.475322 0.304343 0.271392
O22   O     O_3   0.836130 0.002011 0.318321 -0.647452
H14   H     H_    0.817136 0.996315 0.368986 0.293778
C50   C     C_3   0.119379 0.509001 0.708253 -0.724844
H15   H     H_    0.974434 0.515802 0.686841 0.208373
H16   H     H_    0.228945 0.493297 0.663415 0.210563
H17   H     H_    0.109087 0.456119 0.730577 0.187291
C51   C     C_3   0.301557 0.621877 0.970075 -0.805009
H18   H     H_    0.298985 0.556490 0.965123 0.209879
H19   H     H_    0.448470 0.644214 0.987658 0.208710
H20   H     H_    0.195401 0.651321 0.013793 0.219498
O23   O     O_3   0.255750 0.783025 0.954394 -0.658129
H21   H     H_    0.336987 0.768081 0.991304 0.291034
O24   O     O_3   0.893031 0.138293 0.449967 -0.645433
H22   H     H_    0.980927 0.091604 0.438698 0.292381

loop_
_geom_bond_atom_site_label_1
_geom_bond_atom_site_label_2
_ccdc_geom_bond_type
C39   C40   A    
C34   H7    S    
C25   C26   T    
C7    C8    A    
C12   C15   A    
C1    O6    A    
C37   C45   S    
C50   H15   S    
C29   C30   T    
O13   V3    S    
C21   C22   T    
C50   H17   S    
C9    C10   A    
C20   C21   S    
O5    C3    A    
C22   C23   S    
O19   V4    S    
C1    C25   S    
V2    O10   S    
C6    C7    A    
O8    V2    S    
O11   C46   A    
C19   C20   T    
C11   C12   A    
C12   C13   A    
C45   O16   A    
O1    V2    S    
O7    V1    S    
C30   C46   S    
O22   H14   S    
O13   C48   A    
C43   C44   A    
O17   V4    S    
O9    C4    A    
C43   O24   S    
C2    C40   S    
C5    C6    A    
C41   C42   A    
O17   V3    S    
C18   H4    S    
C35   C36   A    
C31   O21   S    
O18   C47   A    
C23   C24   T    
O4    C2    A    
O21   H13   S    
V3    O20   S    
C51   H20   S    
C42   C43   A    
C37   C38   A    
C49   H10   S    
C11   C47   S    
C35   C37   A    
C3    C24   S    
O2    C1    A    
C27   C28   T    
O5    V1    S    
C17   C18   A    
C50   H16   S    
C31   C32   A    
C34   C35   A    
C4    C14   S    
C51   H19   S    
O3    C4    A    
C7    C51   S    
C32   C33   A    
C44   H9    S    
C33   C34   A    
O6    V2    S    
C49   H11   S    
C9    C11   A    
O12   V3    S    
C26   C27   S    
O2    V1    S    
O15   C47   A    
C28   C29   S    
C41   H8    S    
C13   C18   A    
C38   C39   A    
C16   C17   A    
C33   H6    S    
C15   H2    S    
O1    C2    A    
C5    C50   S    
O18   V4    S    
V4    O20   S    
C42   O22   S    
C16   H3    S    
O8    C3    A    
C31   C36   A    
C49   H12   S    
O11   V4    S    
C5    C10   A    
O9    V2    S    
C13   C14   A    
C17   C49   S    
O3    V1    S    
V1    O10   S    
O15   V3    S    
O19   C48   A    
C32   H5    S    
C19   C48   S    
O24   H22   S    
O16   V4    S    
O7    V2    S    
C51   H18   S    
O4    V1    S    
C8    O23   S    
C8    C9    A    
O23   H21   S    
C10   C14   A    
O14   V3    S    
O14   C46   A    
C6    H1    S    
O12   C45   A    
C39   C44   A    
C36   C40   A    
C15   C16   A    
C38   C41   A    
