data_str_m2_o4_o14_f0_pcu.sym.111
_audit_creation_date              2012-12-10T18:59:13-0500
_audit_creation_method            fapswitch 2.2
_symmetry_space_group_name_H-M    P1
_symmetry_Int_Tables_number       1
_space_group_crystal_system       triclinic
_cell_length_a                    10.874676
_cell_length_b                    10.877175
_cell_length_c                    9.69635
_cell_angle_alpha                 92.886782
_cell_angle_beta                  89.679544
_cell_angle_gamma                 89.951335
_cell_volume                      1145.46595478

loop_
_atom_site_label
_atom_site_type_symbol
_atom_type_description
_atom_site_fract_x
_atom_site_fract_y
_atom_site_fract_z
_atom_type_partial_charge
C1    C     C_R   0.495781 0.261879 0.498210 0.886189
C2    C     C_R   0.062681 0.495999 0.630841 -0.044300
C3    C     C_R   0.128393 0.524738 0.511151 -0.108041
C4    C     C_R   0.062689 0.558921 0.397222 -0.049923
C5    C     C_R   0.935584 0.545302 0.393443 -0.148577
C6    C     C_R   0.872915 0.489921 0.500859 -0.107772
C7    C     C_R   0.503295 0.067008 0.622169 0.077611
C8    C     C_R   0.480780 0.127160 0.500297 -0.165639
C9    C     C_R   0.424720 0.055961 0.393015 -0.100558
C10   C     C_R   0.423805 0.927279 0.394395 -0.169488
C11   C     C_R   0.469028 0.868636 0.509509 -0.136485
C12   C     C_R   0.262990 0.510944 0.502399 0.804702
C13   C     C_R   0.490893 0.940932 0.629295 -0.066100
C14   C     C_3   0.588866 0.930908 0.734899 0.146352
C15   C     C_3   0.610172 0.067948 0.719200 0.712478
C16   C     C_R   0.560621 0.589437 0.078781 0.123916
C17   C     C_R   0.434186 0.415474 0.064141 0.513509
C18   C     C_R   0.431889 0.419983 0.918199 -0.043811
C19   C     C_R   0.561426 0.589024 0.931908 0.230202
C20   C     C_3   0.696880 0.610243 0.930769 0.181919
C21   C     C_3   0.695198 0.612475 0.086803 -0.435960
C22   C     C_R   0.491942 0.736701 0.502964 0.771287
C23   C     C_R   0.737606 0.493495 0.499681 0.846468
C24   C     C_R   0.110370 0.517723 0.764072 -0.239048
C25   C     C_R   0.050130 0.473199 0.877166 0.453215
C26   C     C_R   0.947199 0.399123 0.858071 -0.357534
C27   C     C_R   0.890144 0.390088 0.728271 0.363203
C28   C     C_R   0.940267 0.455311 0.618215 0.077163
Cu1   Cu    Cu3+1 0.499990 0.499980 0.640670 1.002905
Cu2   Cu    Cu3+1 0.500010 0.500020 0.359330 1.037885
H1    H     H_    0.110582 0.600834 0.314510 0.205554
H2    H     H_    0.666938 0.870206 0.701564 0.141093
H3    H     H_    0.381374 0.353065 0.855146 0.197590
H4    H     H_    0.747614 0.532398 0.880871 0.130494
H5    H     H_    0.746393 0.533626 0.127025 0.192080
H6    H     H_    0.716515 0.703812 0.137683 0.233828
H7    H     H_    0.187339 0.578949 0.782503 0.221177
H8    H     H_    0.904861 0.358304 0.946236 0.179442
H9    H     H_    0.885850 0.580101 0.307695 0.194900
H10   H     H_    0.381153 0.096476 0.308607 0.255362
H11   H     H_    0.390974 0.874256 0.304446 0.180509
N1    N     N_R   0.500790 0.500930 0.147930 -0.252703
N2    N     N_R   0.500790 0.500890 0.852020 -0.260552
O1    O     O_R   0.500000 0.319640 0.618810 -0.550617
O2    O     O_R   0.500010 0.319680 0.381230 -0.509644
O3    O     O_R   0.319640 0.499980 0.618820 -0.606776
O4    O     O_R   0.319650 0.500020 0.381230 -0.526659
O5    O     O_R   0.499990 0.680320 0.618770 -0.582995
O6    O     O_R   0.500000 0.680360 0.381190 -0.587280
O7    O     O_R   0.680350 0.499980 0.618770 -0.544538
O8    O     O_R   0.680360 0.500020 0.381180 -0.601970
O9    O     O_3   0.587928 0.141691 0.839564 -0.633588
H12   H     H_    0.655197 0.123556 0.904259 0.358238
O10   O     O_3   0.723859 0.093117 0.656416 -0.716623
H13   H     H_    0.730182 0.043529 0.567750 0.297213
S1    S     S_3+6 0.374412 0.276034 0.118441 0.051237
O11   O     O_2   0.297478 0.292093 0.246923 -0.269888
O12   O     O_2   0.484317 0.195719 0.140335 -0.284698
O13   O     O_3   0.287629 0.204057 0.995794 -0.499719
H14   H     H_    0.213929 0.256544 0.987458 0.364912
O14   O     O_3   0.727892 0.724398 0.880799 -0.699157
H15   H     H_    0.819084 0.727363 0.879817 0.354257
S2    S     S_3+6 0.091295 0.525964 0.042313 -0.069870
O15   O     O_2   0.998358 0.621873 0.088497 -0.367846
O16   O     O_2   0.087338 0.420292 0.136087 -0.282101
O17   O     O_3   0.231919 0.590131 0.042329 -0.582753
H16   H     H_    0.232995 0.649736 0.122889 0.365507
O18   O     O_3   0.786138 0.319985 0.708982 -0.648690
H17   H     H_    0.755431 0.296863 0.800436 0.352680
O19   O     O_3   0.539032 0.906452 0.864521 -0.617299
H18   H     H_    0.501230 0.823636 0.854455 0.364128

loop_
_geom_bond_atom_site_label_1
_geom_bond_atom_site_label_2
_ccdc_geom_bond_type
C22   O5    A    
Cu2   O8    S    
S2    O16   D    
C16   C21   S    
C21   H5    S    
C19   N2    A    
C1    C8    S    
C11   C13   A    
C9    C10   A    
C11   C22   S    
C23   O8    A    
C19   C20   S    
C14   C15   S    
S1    O13   S    
C7    C13   A    
Cu1   O3    S    
C20   H4    S    
C20   C21   S    
C7    C15   S    
C24   H7    S    
S2    O17   S    
O13   H14   S    
C21   H6    S    
C13   C14   S    
C24   C25   A    
C10   H11   S    
C4    C5    A    
C14   O19   S    
C17   S1    S    
C1    O2    A    
C26   C27   A    
Cu1   Cu2   S    
C22   O6    A    
C5    C6    A    
C6    C23   S    
Cu2   O6    S    
S1    O12   D    
C17   C18   A    
C2    C3    A    
Cu1   O7    S    
C16   C19   A    
Cu1   O1    S    
C2    C24   A    
O14   H15   S    
C18   H3    S    
C6    C28   A    
C4    H1    S    
C10   C11   A    
Cu1   O5    S    
S2    O15   D    
C15   O10   S    
C16   N1    A    
Cu2   O4    S    
C7    C8    A    
O19   H18   S    
O17   H16   S    
O9    H12   S    
C12   O3    A    
C17   N1    A    
C25   S2    S    
C18   N2    A    
C20   O14   S    
S1    O11   D    
C5    H9    S    
O10   H13   S    
C26   H8    S    
C23   O7    A    
C2    C28   A    
C3    C12   S    
C1    O1    A    
C27   O18   S    
C25   C26   A    
C15   O9    S    
Cu2   N1    S    
O18   H17   S    
C9    H10   S    
Cu1   N2    S    
Cu2   O2    S    
C3    C4    A    
C12   O4    A    
C14   H2    S    
C8    C9    A    
C27   C28   A    
