data_str_m9_o17_o24_f0_sra.sym.105
_audit_creation_date              2012-12-11T15:23:29-0500
_audit_creation_method            fapswitch 2.2
_symmetry_space_group_name_H-M    P1
_symmetry_Int_Tables_number       1
_space_group_crystal_system       triclinic
_cell_length_a                    6.937759
_cell_length_b                    17.461469
_cell_length_c                    19.287358
_cell_angle_alpha                 109.397033
_cell_angle_beta                  89.949066
_cell_angle_gamma                 90.758688
_cell_volume                      2203.70669718

loop_
_atom_site_label
_atom_site_type_symbol
_atom_type_description
_atom_site_fract_x
_atom_site_fract_y
_atom_site_fract_z
_atom_type_partial_charge
O1    O     O_R   0.505810 0.439670 0.562310 -0.539766
O2    O     O_R   0.169070 0.404920 0.411210 -0.544790
O3    O     O_R   0.005550 0.560330 0.437690 -0.540214
C1    C     C_R   0.338410 0.381301 0.383167 0.717292
O4    O     O_R   0.175650 0.430000 0.560110 -0.537148
O5    O     O_R   0.012170 0.585580 0.587650 -0.537239
C2    C     C_R   0.344099 0.415165 0.581873 0.702130
O6    O     O_R   0.499180 0.414420 0.412350 -0.529941
O7    O     O_3   0.341430 0.551020 0.508860 -0.375195
V1    V     V_3+5 0.063930 0.490540 0.498360 1.434965
O8    O     O_R   0.682850 0.595080 0.588790 -0.545955
C3    C     C_R   0.852626 0.618525 0.616507 0.723821
O9    O     O_R   0.676280 0.570000 0.439890 -0.539315
C4    C     C_R   0.845718 0.585179 0.418508 0.730778
V2    V     V_3+5 0.564760 0.509460 0.501640 1.433361
O10   O     O_3   0.837130 0.448980 0.491140 -0.370377
C5    C     C_R   0.050784 0.871134 0.182295 -0.294675
C6    C     C_R   0.911189 0.861100 0.127418 -0.130478
C7    C     C_R   0.762899 0.801899 0.117951 0.231916
C8    C     C_R   0.752308 0.755656 0.166156 0.054138
C9    C     C_R   0.892821 0.768074 0.222336 -0.046250
C10   C     C_R   0.045644 0.824579 0.229312 0.067282
C11   C     C_R   0.605096 0.697051 0.159698 -0.172149
C12   C     C_R   0.590101 0.655447 0.209925 -0.176751
C13   C     C_R   0.727088 0.667924 0.265766 0.100712
C14   C     C_R   0.882137 0.722729 0.270963 0.059686
C15   C     C_R   0.027034 0.731586 0.324441 0.056571
C16   C     C_R   0.181949 0.785297 0.328983 -0.259198
C17   C     C_R   0.191579 0.832538 0.282642 0.302671
C18   C     C_R   0.713566 0.625037 0.315490 -0.206802
C19   C     C_R   0.857510 0.633488 0.368656 -0.087722
C20   C     C_R   0.015261 0.686092 0.372279 -0.190118
H1    H     H_    0.164571 0.915834 0.187867 0.167269
H2    H     H_    0.499229 0.682499 0.116136 0.139197
H3    H     H_    0.472431 0.612310 0.204265 0.142557
H4    H     H_    0.593785 0.583202 0.311479 0.151049
H5    H     H_    0.127222 0.692497 0.413105 0.127845
H6    H     H_    0.294964 0.791544 0.369365 0.132039
C21   C     C_3   0.825528 0.819815 0.740118 -0.186803
C22   C     C_3   0.992176 0.765437 0.699465 0.329407
H7    H     H_    0.779002 0.876813 0.731941 0.118113
C23   C     C_3   0.866722 0.688711 0.686786 -0.164859
C24   C     C_3   0.697713 0.742089 0.728252 -0.269563
C25   C     C_3   0.778228 0.735866 0.800790 0.361963
C26   C     C_3   0.943918 0.683286 0.759705 0.236556
C27   C     C_3   0.074425 0.759107 0.771762 -0.229115
C28   C     C_3   0.904333 0.812178 0.812862 -0.111939
H8    H     H_    0.543905 0.734654 0.711209 0.141613
H9    H     H_    0.228249 0.765963 0.788794 0.137244
C29   C     C_3   0.481674 0.235410 0.304991 -0.187297
C30   C     C_3   0.320641 0.179966 0.257424 -0.121555
H10   H     H_    0.268225 0.122033 0.263191 0.105450
H11   H     H_    0.559108 0.223440 0.350617 0.115219
C31   C     C_3   0.414793 0.188943 0.187748 -0.058345
C32   C     C_3   0.576409 0.243388 0.234518 -0.178009
C33   C     C_3   0.448835 0.317295 0.242943 0.388269
C34   C     C_3   0.288847 0.263765 0.195052 -0.184807
C35   C     C_3   0.195498 0.255661 0.265687 -0.164231
C36   C     C_3   0.356114 0.310398 0.312690 -0.030817
H12   H     H_    0.731895 0.239341 0.220692 0.112234
H13   H     H_    0.212529 0.276483 0.149571 0.116015
H14   H     H_    0.039972 0.260579 0.279432 0.119799
C37   C     C_R   0.420686 0.096203 0.792612 -0.197617
C38   C     C_R   0.419757 0.134270 0.869000 -0.057531
C39   C     C_R   0.410319 0.219207 0.898358 -0.204101
C40   C     C_R   0.404888 0.267291 0.851920 0.017099
C41   C     C_R   0.400932 0.227810 0.774570 0.004290
C42   C     C_R   0.410454 0.142254 0.745238 0.093172
C43   C     C_R   0.399231 0.353625 0.880056 0.346191
C44   C     C_R   0.379406 0.397760 0.831691 -0.185952
C45   C     C_R   0.373352 0.359045 0.755418 0.042324
C46   C     C_R   0.386488 0.273700 0.726368 -0.009287
C47   C     C_R   0.385321 0.234357 0.649152 0.090022
C48   C     C_R   0.401922 0.148901 0.620665 0.284029
C49   C     C_R   0.410839 0.103788 0.668852 -0.264106
C50   C     C_R   0.357350 0.404713 0.707786 -0.188794
C51   C     C_R   0.353545 0.366239 0.631358 -0.074821
C52   C     C_R   0.367236 0.281422 0.602366 -0.204513
H15   H     H_    0.428125 0.030533 0.770164 0.095511
H16   H     H_    0.404180 0.246331 0.957510 0.101674
H17   H     H_    0.373784 0.463384 0.854244 0.138149
H18   H     H_    0.349121 0.470359 0.730027 0.117616
H19   H     H_    0.364272 0.252656 0.543205 0.139262
H20   H     H_    0.421350 0.038241 0.646283 0.125301
O11   O     O_R   0.271890 0.085690 0.087580 -0.538911
O12   O     O_R   0.595690 0.070020 0.939870 -0.540990
O13   O     O_R   0.758900 0.914390 0.912370 -0.521916
C53   C     C_R   0.427445 0.084971 0.918168 0.698717
O14   O     O_R   0.602020 0.095100 0.088770 -0.543987
O15   O     O_R   0.765280 0.939660 0.062330 -0.522110
C54   C     C_R   0.432699 0.118539 0.116948 0.684538
O16   O     O_R   0.265520 0.060430 0.937620 -0.535856
O17   O     O_3   0.429560 0.949050 0.991100 -0.366343
V3    V     V_3+5 0.707160 0.009450 0.001650 1.443169
O18   O     O_R   0.094540 0.929890 0.060190 -0.561243
C55   C     C_R   0.924437 0.912799 0.079988 0.754154
O19   O     O_R   0.088200 0.904800 0.911290 -0.549167
C56   C     C_R   0.918470 0.881682 0.883407 0.752156
V4    V     V_3+5 0.206300 0.990390 0.998440 1.399473
O20   O     O_3   0.934030 0.050940 0.008900 -0.371903
O21   O     O_3   0.667254 0.720887 0.855586 -0.648426
H21   H     H_    0.600689 0.668230 0.831105 0.273543
N1    N     N_2   0.002098 0.608265 0.769499 -0.522674
H22   H     H_    0.896880 0.563533 0.753758 0.246490
C57   C     C_3   0.086544 0.617219 0.840275 -0.532594
H23   H     H_    0.128912 0.556791 0.841814 0.190628
H24   H     H_    0.981013 0.643677 0.884900 0.217968
H25   H     H_    0.217480 0.656651 0.849616 0.202608
O22   O     O_3   0.514725 0.390549 0.236295 -0.656561
H26   H     H_    0.567331 0.376203 0.185851 0.278867
N2    N     N_2   0.635831 0.785290 0.056527 -0.520911
H27   H     H_    0.630431 0.725012 0.023979 0.257103
C58   C     C_3   0.447099 0.820936 0.072828 -0.407768
H28   H     H_    0.362109 0.791840 0.106023 0.162855
H29   H     H_    0.368108 0.811694 0.020610 0.202981
H30   H     H_    0.459149 0.886967 0.103623 0.206564
O23   O     O_3   0.412365 0.397733 0.953978 -0.642464
H31   H     H_    0.496949 0.368768 0.977939 0.283390
N3    N     N_2   0.411491 0.107675 0.543540 -0.529344
H32   H     H_    0.347338 0.050803 0.527204 0.251877
C59   C     C_3   0.603265 0.105914 0.513509 -0.570179
H33   H     H_    0.700396 0.070053 0.536379 0.201270
H34   H     H_    0.663181 0.168425 0.526328 0.207277
H35   H     H_    0.597500 0.077262 0.452885 0.194324
N4    N     N_2   0.351758 0.886166 0.288557 -0.525882
H36   H     H_    0.479670 0.864255 0.301228 0.265027
C60   C     C_3   0.318126 0.968739 0.335307 -0.579643
H37   H     H_    0.301067 0.971193 0.393272 0.202359
H38   H     H_    0.186686 0.993094 0.317731 0.201453
H39   H     H_    0.442682 0.007733 0.331597 0.196650
N5    N     N_2   0.108384 0.780770 0.642976 -0.515302
H40   H     H_    0.196023 0.732864 0.616159 0.259679
C61   C     C_3   0.210119 0.857986 0.665835 -0.572184
H41   H     H_    0.286723 0.865858 0.618032 0.196211
H42   H     H_    0.317734 0.860387 0.709187 0.186129
H43   H     H_    0.107429 0.908660 0.687014 0.205249

loop_
_geom_bond_atom_site_label_1
_geom_bond_atom_site_label_2
_ccdc_geom_bond_type
C35   H14   S    
C32   C33   S    
O17   V3    S    
C10   C17   A    
C17   N4    S    
C6    C55   S    
C47   C48   A    
O18   C55   A    
C4    C19   S    
C1    O6    A    
O19   C56   A    
O11   C54   A    
C21   H7    S    
C37   H15   S    
C26   C27   S    
C42   C49   A    
C22   C27   S    
C48   N3    S    
C57   H24   S    
C27   H9    S    
C14   C15   A    
O21   H21   S    
C28   C56   S    
C29   C36   S    
C9    C10   A    
C16   C17   A    
C6    C7    A    
O5    C3    A    
C18   C19   A    
O12   C53   A    
C49   H20   S    
C40   C43   A    
V2    O10   S    
O13   V3    S    
C33   C34   S    
C5    C6    A    
C41   C46   A    
O14   V3    S    
C44   H17   S    
C59   H35   S    
C3    C23   S    
O12   V3    S    
C27   C28   S    
O8    V2    S    
C52   H19   S    
C53   O16   A    
C61   H43   S    
C47   C52   A    
C44   C45   A    
O1    V2    S    
C16   H6    S    
O14   C54   A    
C26   N1    S    
C24   H8    S    
O17   V4    S    
C25   C28   S    
C2    C51   S    
C58   H30   S    
C22   C23   S    
C40   C41   A    
C39   H16   S    
C32   H12   S    
C5    H1    S    
O19   V4    S    
C9    C14   A    
O15   V3    S    
N3    C59   S    
C57   H25   S    
C29   H11   S    
C48   C49   A    
C41   C42   A    
C12   H3    S    
C12   C13   A    
N2    C58   S    
C50   H18   S    
C21   C22   S    
O4    C2    A    
C21   C24   S    
C35   C36   S    
C51   C52   A    
C30   H10   S    
C23   C26   S    
O2    C1    A    
C24   C25   S    
C60   H38   S    
O11   V4    S    
N4    C60   S    
C19   C20   A    
C8    C11   A    
V3    O20   S    
C25   O21   S    
C11   H2    S    
N4    H36   S    
C29   C30   S    
N1    C57   S    
C30   C35   S    
C20   H5    S    
C50   C51   A    
N3    H32   S    
O15   C55   A    
C59   H33   S    
O3    C4    A    
C22   N5    S    
O6    V2    S    
O9    V2    S    
C61   H41   S    
C23   C24   S    
N5    H40   S    
O2    V1    S    
C33   O22   S    
N1    H22   S    
C25   C26   S    
C21   C28   S    
C58   H28   S    
O7    V1    S    
C13   C18   A    
C31   C32   S    
N2    H27   S    
C15   C20   A    
O1    C2    A    
C29   C32   S    
C46   C47   A    
N5    C61   S    
O5    V1    S    
O8    C3    A    
C34   H13   S    
C7    N2    S    
C57   H23   S    
C37   C42   A    
O23   H31   S    
C5    C10   A    
C33   C36   S    
C18   H4    S    
C30   C31   S    
C38   C39   A    
O13   C56   A    
C7    C8    A    
C13   C14   A    
C60   H39   S    
C31   C54   S    
O3    V1    S    
V1    O10   S    
V4    O20   S    
C34   C35   S    
C45   C50   A    
C1    C36   S    
C43   O23   S    
O18   V4    S    
O7    V2    S    
C43   C44   A    
C59   H34   S    
C11   C12   A    
C37   C38   A    
O4    V1    S    
C45   C46   A    
C8    C9    A    
C39   C40   A    
O22   H26   S    
C15   C16   A    
C61   H42   S    
O9    C4    A    
C38   C53   S    
C60   H37   S    
O16   V4    S    
C58   H29   S    
C31   C34   S    
