data_str_m3_o14_o16_f0_pcu.sym.22
_audit_creation_date              2012-12-10T17:42:41-0500
_audit_creation_method            fapswitch 2.2
_symmetry_space_group_name_H-M    P1
_symmetry_Int_Tables_number       1
_space_group_crystal_system       triclinic
_cell_length_a                    9.902816
_cell_length_b                    10.685177
_cell_length_c                    13.12633
_cell_angle_alpha                 91.855613
_cell_angle_beta                  70.177925
_cell_angle_gamma                 90.251301
_cell_volume                      1305.92903858

loop_
_atom_site_label
_atom_site_type_symbol
_atom_type_description
_atom_site_fract_x
_atom_site_fract_y
_atom_site_fract_z
_atom_type_partial_charge
C1    C     C_R   0.504696 0.738880 0.489672 0.865362
C2    C     C_R   0.369411 0.473706 0.820441 -0.137921
C3    C     C_R   0.350314 0.864336 0.361216 -0.200585
C4    C     C_R   0.420552 0.490746 0.703476 0.858656
C5    C     C_R   0.261433 0.927493 0.317176 -0.226244
C6    C     C_R   0.262949 0.058389 0.315569 0.533492
C7    C     C_R   0.352414 0.123852 0.360550 -0.252509
C8    C     C_R   0.432292 0.062080 0.415516 0.040168
C9    C     C_R   0.432013 0.930376 0.415379 0.088476
C10   C     C_R   0.515908 0.869995 0.468349 -0.082822
C11   C     C_R   0.612871 0.936799 0.504684 -0.222522
C12   C     C_R   0.433822 0.466465 0.982375 0.111547
C13   C     C_R   0.609702 0.064148 0.507967 -0.192066
C14   C     C_R   0.514030 0.127216 0.470336 -0.075885
C15   C     C_R   0.796452 0.660651 0.647198 -0.405529
C16   C     C_R   0.503998 0.260193 0.490395 0.860931
C17   C     C_R   0.832389 0.732494 0.726322 0.405009
C18   C     C_R   0.973256 0.729402 0.724729 0.585225
C19   C     C_R   0.075335 0.654059 0.649282 -0.370073
C20   C     C_R   0.039906 0.575950 0.574058 0.089659
C21   C     C_R   0.895750 0.577535 0.573423 0.135457
C22   C     C_R   0.960023 0.427529 0.428780 -0.073371
C23   C     C_R   0.465674 0.435248 0.871788 0.065936
C24   C     C_R   0.103332 0.428449 0.428213 -0.063702
C25   C     C_R   0.579886 0.499170 0.295789 0.951365
C26   C     C_R   0.777646 0.370019 0.016306 -0.289830
C27   C     C_R   0.629041 0.480943 0.178684 -0.292705
C28   C     C_R   0.228866 0.509834 0.883031 -0.210913
C29   C     C_R   0.188842 0.519097 0.995159 -0.137675
C30   C     C_R   0.290886 0.500835 0.044720 -0.116237
C31   C     C_3   0.179793 0.097964 0.174108 0.085751
C32   C     C_3   0.318902 0.150489 0.094937 -0.386044
C33   C     C_3   0.313313 0.150533 0.980296 -0.901891
C34   C     C_R   0.544675 0.456566 0.026896 -0.061433
C35   C     C_3   0.596033 0.777563 0.841402 0.109078
C36   C     C_3   0.500782 0.861871 0.801962 -0.412711
C37   C     C_3   0.344090 0.822199 0.842825 -0.856592
C38   C     C_R   0.672744 0.389815 0.968696 0.013766
C39   C     C_R   0.693312 0.342417 0.864466 -0.171504
C40   C     C_R   0.592065 0.366174 0.815881 -0.208509
C41   C     C_R   0.533512 0.513366 0.126664 0.456914
C42   C     C_R   0.753745 0.411607 0.122654 0.540084
F1    F     F_    0.848821 0.379665 0.171602 -0.677622
F2    F     F_    0.012893 0.802716 0.796016 -0.651460
F3    F     F_    0.433215 0.603651 0.173302 -0.699063
H1    H     H_    0.353565 0.763824 0.350921 0.235117
H2    H     H_    0.874768 0.317579 0.973056 0.183124
H3    H     H_    0.151557 0.535115 0.845237 0.182869
H4    H     H_    0.254043 0.507785 0.132108 0.204186
H5    H     H_    0.079897 0.545256 0.043546 0.192196
H6    H     H_    0.611131 0.325212 0.735755 0.175927
H7    H     H_    0.685487 0.891080 0.537822 0.172592
H8    H     H_    0.087312 0.143401 0.159854 0.214414
H9    H     H_    0.170796 0.996224 0.157493 0.129743
H10   H     H_    0.335187 0.247694 0.120892 0.232243
H11   H     H_    0.411469 0.092174 0.095158 0.220085
H12   H     H_    0.191642 0.873520 0.284846 0.160148
H13   H     H_    0.279260 0.057751 0.958026 0.269138
H14   H     H_    0.421207 0.171029 0.922228 0.268525
H15   H     H_    0.236203 0.222807 0.974498 0.282012
H16   H     H_    0.561934 0.788615 0.931054 0.190492
H17   H     H_    0.579928 0.676998 0.824570 0.134673
H18   H     H_    0.509402 0.959941 0.829641 0.242478
H19   H     H_    0.538841 0.858538 0.712500 0.221623
H20   H     H_    0.331771 0.733344 0.801431 0.265837
H21   H     H_    0.277308 0.894163 0.822868 0.292875
H22   H     H_    0.305356 0.810972 0.931945 0.268223
H23   H     H_    0.359603 0.223246 0.349210 0.163854
H24   H     H_    0.677902 0.113045 0.545399 0.173105
H25   H     H_    0.932047 0.368316 0.370620 0.198110
H26   H     H_    0.692414 0.674662 0.643277 0.234798
H27   H     H_    0.181671 0.660823 0.651206 0.245407
H28   H     H_    0.788813 0.288708 0.819731 0.160560
H29   H     H_    0.183034 0.371120 0.368695 0.163594
N1    N     N_R   0.856860 0.501200 0.500990 -0.105467
N2    N     N_R   0.142450 0.501280 0.501020 -0.102017
O1    O     O_R   0.385310 0.683220 0.500000 -0.637081
O2    O     O_3   0.739930 0.818587 0.798231 -0.597728
O3    O     O_R   0.614640 0.683250 0.500010 -0.636128
O4    O     O_R   0.328400 0.499950 0.653610 -0.623478
O5    O     O_R   0.557730 0.499970 0.653620 -0.631686
O6    O     O_R   0.385360 0.316750 0.499990 -0.623309
O7    O     O_R   0.614690 0.316780 0.500000 -0.620202
O8    O     O_R   0.442270 0.500030 0.346380 -0.598401
O9    O     O_R   0.671600 0.500050 0.346390 -0.564029
O10   O     O_3   0.166678 0.126527 0.282983 -0.666947
Zn1   Zn    Zn3+2 0.346880 0.499980 0.499990 0.948527
Zn2   Zn    Zn3+2 0.653120 0.500020 0.500010 0.960541

loop_
_geom_bond_atom_site_label_1
_geom_bond_atom_site_label_2
_ccdc_geom_bond_type
C33   H13   S    
C1    O1    A    
C19   C20   A    
O8    Zn1   S    
C7    C8    A    
C12   C23   A    
C36   C37   S    
C4    O4    A    
O4    Zn1   S    
C38   C39   A    
C23   C40   A    
C20   N2    A    
C18   C19   A    
C11   H7    S    
C7    H23   S    
C28   H3    S    
C4    O5    A    
C35   C36   S    
C8    C9    A    
C37   H20   S    
C25   O8    A    
C36   H18   S    
C9    C10   A    
C32   H10   S    
O7    Zn2   S    
C33   H14   S    
C31   O10   S    
C13   C14   A    
C19   H27   S    
C34   C41   A    
C22   N1    A    
C16   O6    A    
O3    Zn2   S    
C29   H5    S    
C39   C40   A    
C24   N2    A    
C16   O7    A    
C2    C4    S    
C29   C30   A    
C3    C9    A    
C18   F2    S    
C27   C41   A    
C31   C32   S    
C37   H21   S    
C25   O9    A    
C17   C18   A    
C35   H16   S    
C31   H8    S    
N2    Zn1   S    
C26   H2    S    
C30   H4    S    
C33   H15   S    
C1    O3    A    
C14   C16   S    
C42   F1    S    
C12   C34   A    
C26   C42   A    
O9    Zn2   S    
C15   C17   A    
C28   C29   A    
C8    C14   A    
C35   O2    S    
C12   C30   A    
C34   C38   A    
C26   C38   A    
C1    C10   S    
C3    C5    A    
C6    C7    A    
C25   C27   S    
C40   H6    S    
C15   H26   S    
C21   N1    A    
C3    H1    S    
C6    O10   S    
C5    H12   S    
C32   C33   S    
C11   C13   A    
C27   C42   A    
C24   H29   S    
C5    C6    A    
C13   H24   S    
C37   H22   S    
C17   O2    S    
C22   H25   S    
C35   H17   S    
C22   C24   A    
C39   H28   S    
C31   H9    S    
O5    Zn2   S    
C10   C11   A    
N1    Zn2   S    
C15   C21   A    
C20   C21   A    
O1    Zn1   S    
C2    C23   A    
C41   F3    S    
C2    C28   A    
C36   H19   S    
C32   H11   S    
O6    Zn1   S    
