data_str_m2_o9_o13_f0_pcu.sym.222
_audit_creation_date              2013-03-05T16:47:43-0500
_audit_creation_method            fapswitch 2.2
_symmetry_space_group_name_H-M    P1
_symmetry_Int_Tables_number       1
_space_group_crystal_system       triclinic
_cell_length_a                    10.851687
_cell_length_b                    13.221418
_cell_length_c                    11.787802
_cell_angle_alpha                 98.582596
_cell_angle_beta                  95.284497
_cell_angle_gamma                 94.654646
_cell_volume                      1657.45234254

loop_
_atom_site_label
_atom_site_type_symbol
_atom_site_description
_atom_site_fract_x
_atom_site_fract_y
_atom_site_fract_z
_atom_type_partial_charge
O1    O     O_R   0.506570 0.354460 0.582000 -0.559389
O2    O     O_R   0.493430 0.645540 0.418000 -0.559463
O3    O     O_R   0.490940 0.341410 0.386200 -0.555559
O4    O     O_R   0.509060 0.658590 0.613800 -0.555534
C1    C     C_R   0.503177 0.300331 0.481024 0.813213
C2    C     C_R   0.496836 0.699668 0.518975 0.813199
O5    O     O_R   0.327460 0.506540 0.597900 -0.542613
O6    O     O_R   0.672540 0.493460 0.402100 -0.542561
O7    O     O_R   0.311830 0.493480 0.402100 -0.555053
O8    O     O_R   0.688170 0.506520 0.597900 -0.555069
C3    C     C_R   0.263025 0.509986 0.499331 0.837935
C4    C     C_R   0.736978 0.490021 0.500669 0.837924
Cu1   Cu    Cu3+1 0.509250 0.507730 0.615930 1.054264
Cu2   Cu    Cu3+1 0.490750 0.492270 0.384070 1.054242
H1    H     H_    0.114879 0.656212 0.009613 0.159524
H2    H     H_    0.885042 0.343857 0.990394 0.159516
C5    C     C_R   0.079077 0.686922 0.187377 -0.148350
C6    C     C_R   0.920879 0.313127 0.812639 -0.148483
H3    H     H_    0.067843 0.767106 0.184215 0.173757
H4    H     H_    0.932105 0.232943 0.815813 0.173770
C7    C     C_R   0.063837 0.646068 0.289125 0.384029
C8    C     C_R   0.936152 0.353972 0.710890 0.384008
C9    C     C_R   0.075574 0.539727 0.290332 0.000945
C10   C     C_R   0.924430 0.460314 0.709672 0.000967
C11   C     C_R   0.102999 0.478829 0.189463 -0.154256
C12   C     C_R   0.897003 0.521222 0.810531 -0.154263
H5    H     H_    0.106003 0.397243 0.185101 0.193865
H6    H     H_    0.894024 0.602811 0.814889 0.193866
C13   C     C_R   0.120223 0.521345 0.090327 -0.152426
C14   C     C_R   0.879744 0.478715 0.909665 -0.152398
H7    H     H_    0.140238 0.472992 0.013461 0.212125
H8    H     H_    0.859730 0.527079 0.986521 0.212175
C15   C     C_R   0.105524 0.624532 0.088271 -0.203362
C16   C     C_R   0.894415 0.375526 0.911732 -0.203326
C17   C     C_R   0.924770 0.454373 0.398123 0.161097
C18   C     C_R   0.075239 0.545655 0.601874 0.161122
C19   C     C_R   0.871974 0.478562 0.502876 -0.131500
C20   C     C_R   0.128034 0.521461 0.497123 -0.131517
C21   C     C_R   0.951072 0.508360 0.606894 0.034250
C22   C     C_R   0.048937 0.491669 0.393104 0.034233
C23   C     C_R   0.501046 0.811822 0.525217 -0.079075
C24   C     C_R   0.499020 0.188176 0.474767 -0.079078
C25   C     C_R   0.403459 0.025669 0.371223 -0.202724
C26   C     C_R   0.596735 0.974316 0.628682 -0.202708
C27   C     C_R   0.424669 0.130517 0.381385 -0.157441
C28   C     C_R   0.575489 0.869473 0.618546 -0.157347
C29   C     C_R   0.555542 0.137852 0.562696 0.057518
C30   C     C_R   0.444532 0.862142 0.437284 0.057516
C31   C     C_R   0.538607 0.028421 0.548236 0.122833
C32   C     C_R   0.461521 0.971571 0.451711 0.122812
H9    H     H_    0.623759 0.832821 0.682596 0.248243
H10   H     H_    0.376441 0.167164 0.317306 0.248238
H11   H     H_    0.340162 0.989239 0.298036 0.170764
H12   H     H_    0.660121 0.010739 0.701811 0.170709
N1    N     N_R   0.523180 0.519350 0.790130 -0.291250
N2    N     N_R   0.476820 0.480650 0.209870 -0.291180
C33   C     C_R   0.384597 0.397811 0.020339 -0.311019
C34   C     C_R   0.615358 0.602223 0.979662 -0.310956
C35   C     C_R   0.398107 0.403426 0.140748 0.438827
C36   C     C_R   0.601869 0.596590 0.859251 0.438821
C37   C     C_R   0.559244 0.539484 0.156661 0.413301
C38   C     C_R   0.440745 0.460528 0.843337 0.413447
C39   C     C_R   0.544927 0.534893 0.034284 -0.116084
C40   C     C_R   0.455037 0.465136 0.965718 -0.116172
H13   H     H_    0.322591 0.335962 0.969322 0.230511
H14   H     H_    0.677348 0.664084 0.030677 0.230471
N3    N     N_R   0.326609 0.409250 0.780792 0.123487
O9    O     O_R   0.326053 0.335282 0.695133 -0.309215
O10   O     O_R   0.221087 0.427282 0.820037 -0.434961
N4    N     N_R   0.673408 0.590741 0.219184 0.123312
O11   O     O_R   0.674032 0.664599 0.304965 -0.309154
O12   O     O_R   0.778907 0.572724 0.179881 -0.434997
N5    N     N_R   0.655166 0.684205 0.815617 0.106715
O13   O     O_R   0.652566 0.775500 0.874284 -0.422374
O14   O     O_R   0.724483 0.674315 0.731494 -0.361449
N6    N     N_R   0.344807 0.315805 0.184372 0.106684
O15   O     O_R   0.347364 0.224518 0.125673 -0.422360
O16   O     O_R   0.275514 0.325687 0.268514 -0.361368
N7    N     N_R   0.031418 0.712625 0.387630 0.092176
O17   O     O_R   0.080066 0.807566 0.410565 -0.392749
O18   O     O_R   0.936472 0.685889 0.439886 -0.318056
N8    N     N_R   0.968598 0.287410 0.612402 0.092210
O19   O     O_R   0.919967 0.192464 0.589472 -0.392743
O20   O     O_R   0.063551 0.314150 0.560156 -0.318030
C41   C     C_3   0.854493 0.379933 0.296415 -0.390557
C42   C     C_3   0.812005 0.276362 0.331616 -0.328876
C43   C     C_3   0.730233 0.207218 0.233165 -0.793304
H15   H     H_    0.645065 0.244069 0.209573 0.266548
H16   H     H_    0.781976 0.192088 0.156297 0.251621
H17   H     H_    0.701867 0.132842 0.260856 0.262178
H18   H     H_    0.894922 0.236908 0.355594 0.285517
H19   H     H_    0.758086 0.287794 0.407323 0.200861
H20   H     H_    0.774001 0.412471 0.256915 0.259049
H21   H     H_    0.913319 0.362761 0.225890 0.188671
C44   C     C_3   0.145522 0.620095 0.703580 -0.390583
C45   C     C_3   0.188011 0.723665 0.668376 -0.328861
C46   C     C_3   0.269794 0.792806 0.766822 -0.793297
H22   H     H_    0.218060 0.807939 0.843695 0.251629
H23   H     H_    0.354961 0.755951 0.790407 0.266570
H24   H     H_    0.298161 0.867180 0.739128 0.262180
H25   H     H_    0.241922 0.712229 0.592664 0.200873
H26   H     H_    0.105094 0.763122 0.644407 0.285528
H27   H     H_    0.086703 0.637269 0.774110 0.188660
H28   H     H_    0.226017 0.587558 0.743077 0.259030
C47   C     C_3   0.370952 0.802726 0.326845 -0.390006
C48   C     C_3   0.446689 0.806972 0.222666 -0.310576
C49   C     C_3   0.376489 0.751563 0.110147 -0.841771
H29   H     H_    0.354119 0.669325 0.116096 0.266354
H30   H     H_    0.290409 0.788438 0.090627 0.252598
H31   H     H_    0.435245 0.756518 0.038509 0.265787
H32   H     H_    0.473512 0.887177 0.211200 0.222846
H33   H     H_    0.534061 0.772110 0.237382 0.277913
H34   H     H_    0.339783 0.722481 0.333393 0.210133
H35   H     H_    0.281165 0.835050 0.311169 0.214397
C50   C     C_3   0.629067 0.197265 0.673166 -0.390035
C51   C     C_3   0.553350 0.192893 0.777343 -0.310426
C52   C     C_3   0.623386 0.248592 0.889814 -0.841337
H36   H     H_    0.645641 0.330806 0.883666 0.266303
H37   H     H_    0.564585 0.243707 0.961430 0.265729
H38   H     H_    0.709533 0.211861 0.909521 0.252470
H39   H     H_    0.465744 0.227433 0.762533 0.277930
H40   H     H_    0.526919 0.112652 0.788948 0.222700
H41   H     H_    0.718899 0.165006 0.688827 0.214336
H42   H     H_    0.660151 0.277538 0.666667 0.210208

loop_
_geom_bond_atom_site_label_1
_geom_bond_atom_site_label_2
_geom_bond_distance
_ccdc_geom_bond_type
C37   N4    1.443517 S    
C26   C31   1.405120 A    
Cu2   N2    2.026806 S    
C1    C24   1.470452 S    
C45   H26   1.111273 S    
N5    O14   1.296491 A    
N5    O13   1.302297 A    
C44   C45   1.536961 S    
C43   H15   1.111341 S    
C46   H22   1.110934 S    
C29   C31   1.426063 A    
C48   H33   1.098184 S    
C41   C42   1.536963 S    
C29   C50   1.533280 S    
C34   H14   1.082811 S    
C51   H40   1.108000 S    
C38   N3    1.443462 S    
O1    C1    1.289849 A    
C8    N8    1.437683 S    
C47   H34   1.103171 S    
C17   C19   1.413309 A    
C10   C12   1.403172 A    
C42   H18   1.111274 S    
C52   H37   1.110318 S    
C33   C35   1.403585 A    
C48   C49   1.519707 S    
C34   C36   1.403580 A    
C50   C51   1.544606 S    
N1    C38   1.390848 A    
C13   C15   1.389880 A    
C36   N5    1.436951 S    
O4    Cu1   1.998651 S    
C10   C21   1.489743 S    
C51   C52   1.519798 S    
C4    C19   1.483189 S    
C37   C39   1.428238 A    
C38   C40   1.428244 A    
H2    C16   1.082499 S    
C41   H20   1.100314 S    
C25   H11   1.077588 S    
C44   H27   1.102317 S    
C2    C23   1.470413 S    
C23   C28   1.389230 A    
N4    O11   1.295775 A    
C14   H8    1.078285 S    
C30   C32   1.426061 A    
N1    C36   1.384880 A    
C49   H30   1.109519 S    
O2    C2    1.289821 A    
C5    C15   1.392882 A    
C46   H23   1.111341 S    
C26   C28   1.372061 A    
C48   H32   1.107889 S    
C11   C13   1.391325 A    
C19   C21   1.415088 A    
C50   H41   1.106396 S    
C51   H39   1.098398 S    
C14   C16   1.389871 A    
N6    O16   1.296490 A    
N3    O9    1.295835 A    
C47   H35   1.106401 S    
C45   H25   1.109912 S    
N6    O15   1.302294 A    
O4    C2    1.314372 A    
C52   H38   1.109549 S    
N7    O18   1.299521 A    
C42   C43   1.527072 S    
C27   H10   1.075538 S    
C28   H9    1.075542 S    
N8    O19   1.300891 A    
C5    C7    1.404652 A    
N7    O17   1.300890 A    
N3    O10   1.300415 A    
C24   C27   1.389226 A    
C3    C20   1.483173 S    
O5    C3    1.308566 A    
O7    Cu2   1.973628 S    
C6    C16   1.392889 A    
C41   H21   1.102323 S    
C30   C47   1.533272 S    
O6    C4    1.308565 A    
C45   C46   1.527072 S    
C7    N7    1.437673 S    
O7    C3    1.302951 A    
O3    Cu2   1.998650 S    
O8    C4    1.302959 A    
C12   C14   1.391309 A    
N8    O20   1.299521 A    
C7    C9    1.424050 A    
C49   H31   1.110329 S    
C8    C10   1.424049 A    
O1    Cu1   2.003417 S    
C49   H29   1.108663 S    
C46   H24   1.110612 S    
C44   H28   1.100312 S    
C33   C40   1.393723 A    
C34   C39   1.393726 A    
O6    Cu2   1.963112 S    
C50   H42   1.103167 S    
C6    C8    1.404660 A    
C18   C21   1.406322 A    
C33   H13   1.082809 S    
O3    C1    1.314367 A    
O8    Cu1   1.973628 S    
C25   C32   1.405108 A    
C11   H5    1.075517 S    
C47   C48   1.544573 S    
C12   H6    1.075517 S    
N2    C35   1.384887 A    
C43   H16   1.110934 S    
C17   C22   1.406319 A    
C25   C27   1.372058 A    
C42   H19   1.109910 S    
C52   H36   1.108706 S    
C20   C22   1.415081 A    
C17   C41   1.531414 S    
C18   C44   1.531421 S    
C18   C20   1.413300 A    
C5    H3    1.082635 S    
C23   C30   1.431112 A    
C6    H4    1.082634 S    
C24   C29   1.431134 A    
C9    C11   1.403184 A    
O2    Cu2   2.003418 S    
C39   C40   1.393435 A    
C26   H12   1.077605 S    
O5    Cu1   1.963112 S    
C13   H7    1.078306 S    
C31   C32   1.423623 A    
C43   H17   1.110611 S    
N2    C37   1.390876 A    
N4    O12   1.300403 A    
Cu1   Cu2   2.697693 S    
C35   N6    1.436967 S    
H1    C15   1.082501 S    
C9    C22   1.489757 S    
Cu1   N1    2.026807 S    
