data_str_m2_o10_o29_f0_pcu.sym.209
_audit_creation_date              2012-12-10T16:51:17-0500
_audit_creation_method            fapswitch 2.2
_symmetry_space_group_name_H-M    P1
_symmetry_Int_Tables_number       1
_space_group_crystal_system       triclinic
_cell_length_a                    27.730443
_cell_length_b                    8.7622
_cell_length_c                    7.457371
_cell_angle_alpha                 102.617586
_cell_angle_beta                  94.617628
_cell_angle_gamma                 93.349651
_cell_volume                      1757.09993212

loop_
_atom_site_label
_atom_site_type_symbol
_atom_type_description
_atom_site_fract_x
_atom_site_fract_y
_atom_site_fract_z
_atom_type_partial_charge
C1    C     C_R   0.500104 0.200614 0.454066 0.815192
C2    C     C_R   0.499896 0.799385 0.545934 0.815200
C3    C     C_R   0.101020 0.481494 0.478848 -0.090508
C4    C     C_R   0.898979 0.518560 0.521109 -0.090509
C5    C     C_R   0.121312 0.335751 0.434164 -0.132896
C6    C     C_R   0.878687 0.664303 0.565798 -0.132901
C7    C     C_R   0.089930 0.199624 0.361011 0.270478
C8    C     C_R   0.910069 0.800430 0.638946 0.270479
C9    C     C_R   0.131657 0.620953 0.512936 -0.009364
C10   C     C_R   0.868342 0.379100 0.487021 -0.009365
C11   C     C_R   0.354244 0.487477 0.501785 -0.033876
C12   C     C_R   0.645756 0.512533 0.498212 -0.033869
C13   C     C_R   0.969367 0.361434 0.477156 0.099326
C14   C     C_R   0.030632 0.638620 0.522794 0.099325
C15   C     C_R   0.980678 0.650800 0.551573 -0.050609
C16   C     C_R   0.019321 0.349254 0.448378 -0.050609
C17   C     C_R   0.949855 0.510700 0.514952 0.039481
C18   C     C_R   0.050145 0.489354 0.485000 0.039480
C19   C     C_R   0.938430 0.230109 0.483744 -0.088092
C20   C     C_R   0.061570 0.769944 0.516204 -0.088091
C21   C     C_R   0.888606 0.236044 0.474421 -0.069742
C22   C     C_R   0.111394 0.764008 0.525531 -0.069742
C23   C     C_R   0.407417 0.496983 0.501121 0.792523
C24   C     C_R   0.592582 0.503018 0.498879 0.792515
C25   C     C_R   0.039248 0.205502 0.367640 0.211686
C26   C     C_R   0.960751 0.794552 0.632311 0.211686
C27   C     C_2   0.505610 0.035058 0.431716 0.177634
C28   C     C_2   0.494388 0.964941 0.568283 0.177640
C29   C     C_R   0.172567 0.334364 0.453595 0.599805
C30   C     C_R   0.827432 0.665688 0.546378 0.599811
C31   C     C_R   0.181935 0.613626 0.520922 0.561160
C32   C     C_R   0.818065 0.386426 0.479042 0.561161
C33   C     C_R   0.282033 0.503963 0.666895 -0.090418
C34   C     C_R   0.717966 0.496154 0.333093 -0.090421
C35   C     C_R   0.332519 0.512641 0.668699 -0.204491
C36   C     C_R   0.667480 0.487456 0.331295 -0.204485
C37   C     C_R   0.324622 0.450740 0.333571 -0.198663
C38   C     C_R   0.675379 0.549198 0.666424 -0.198653
C39   C     C_R   0.274322 0.441175 0.332256 -0.093478
C40   C     C_R   0.725679 0.558781 0.667736 -0.093482
C41   C     C_R   0.252906 0.468643 0.498559 0.345766
C42   C     C_R   0.747093 0.531403 0.501428 0.345794
Cu1   Cu    Cu3+1 0.505380 0.517380 0.684380 0.994867
Cu2   Cu    Cu3+1 0.494620 0.482620 0.315620 0.994869
H1    H     H_    0.340233 0.429890 0.202677 0.162033
H2    H     H_    0.659769 0.569978 0.797326 0.162016
H3    H     H_    0.461993 0.377487 0.948622 0.250436
H4    H     H_    0.538007 0.622513 0.051378 0.250432
H5    H     H_    0.251887 0.415403 0.201920 0.145704
H6    H     H_    0.748114 0.584495 0.798072 0.145680
H7    H     H_    0.645557 0.459519 0.199788 0.160704
H8    H     H_    0.354441 0.540636 0.800202 0.160719
H9    H     H_    0.734470 0.473647 0.204065 0.142486
H10   H     H_    0.265526 0.526538 0.795915 0.142515
H11   H     H_    0.866118 0.128602 0.463801 0.224704
H12   H     H_    0.133882 0.871450 0.536151 0.224707
H13   H     H_    0.952129 0.121940 0.501985 0.207415
H14   H     H_    0.047871 0.878113 0.497961 0.207416
N1    N     N_R   0.201291 0.471978 0.495204 -0.480880
N2    N     N_R   0.798709 0.528072 0.504769 -0.480883
N3    N     N_2   0.486510 0.456430 0.038510 -0.206631
N4    N     N_2   0.513490 0.543570 0.961490 -0.206632
O1    O     O_R   0.503500 0.286120 0.619780 -0.534262
O2    O     O_R   0.496500 0.713880 0.380220 -0.534258
O3    O     O_R   0.494410 0.256780 0.308360 -0.594799
O4    O     O_R   0.505590 0.743220 0.691640 -0.594812
O5    O     O_R   0.434810 0.514700 0.655690 -0.590691
O6    O     O_R   0.565190 0.485300 0.344310 -0.590699
O7    O     O_R   0.425720 0.485350 0.344280 -0.587862
O8    O     O_R   0.574280 0.514650 0.655720 -0.587866
O9    O     O_2   0.193813 0.198207 0.437090 -0.464457
O10   O     O_2   0.806185 0.801844 0.562895 -0.464451
O11   O     O_2   0.788605 0.253104 0.446596 -0.494458
O12   O     O_2   0.211395 0.746947 0.553365 -0.494461
Br1   Br    Br    0.114468 0.013559 0.215559 -0.367172
Br2   Br    Br    0.885532 0.986497 0.784397 -0.367164
Br3   Br    Br    0.999287 0.022189 0.227557 -0.414017
Br4   Br    Br    0.000713 0.977866 0.772389 -0.414020
O13   O     O_3   0.524596 0.952356 0.275825 -0.746140
H15   H     H_    0.534523 0.025251 0.198544 0.342075
O14   O     O_3   0.475403 0.047646 0.724177 -0.746144
H16   H     H_    0.465501 0.974773 0.801521 0.342102

loop_
_geom_bond_atom_site_label_1
_geom_bond_atom_site_label_2
_ccdc_geom_bond_type
C7    Br1   S    
C8    C26   A    
C23   O7    A    
C34   C42   A    
O14   H16   S    
C24   O8    A    
C39   C41   A    
Cu2   O2    S    
C26   Br4   S    
C25   Br3   S    
C19   C21   A    
C27   O13   S    
C9    C22   A    
C23   O5    A    
C8    Br2   S    
C3    C18   A    
C31   N1    A    
C11   C37   A    
C14   C18   A    
C29   N1    A    
C30   N2    A    
C1    O3    A    
C12   C36   A    
C33   H10   S    
C40   C42   A    
Cu2   O3    S    
C1    O1    A    
C2    O2    A    
C5    C29   A    
C10   C21   A    
C13   C19   A    
Cu1   O1    S    
C14   C20   A    
C20   H14   S    
C41   N1    S    
C4    C6    A    
C42   N2    S    
C32   O11   S    
C5    C7    A    
C24   O6    A    
C15   C26   A    
C22   H12   S    
C3    C5    A    
C19   H13   S    
Cu1   Cu2   S    
C3    C9    A    
H4    N4    S    
Cu2   O7    S    
C36   H7    S    
C4    C17   A    
Cu1   O5    S    
C6    C30   A    
C20   C22   A    
Cu1   O8    S    
Cu2   O6    S    
C32   N2    A    
C37   H1    S    
C35   H8    S    
C21   H11   S    
C16   C25   A    
C15   C17   A    
C39   H5    S    
C28   O14   S    
C30   O10   S    
C2    O4    A    
H3    N3    S    
C6    C8    A    
Cu2   N3    S    
C12   C24   S    
C7    C25   A    
C13   C17   A    
C33   C41   A    
C11   C35   A    
C37   C39   A    
C38   C40   A    
Cu1   O4    S    
C40   H6    S    
C11   C23   S    
C33   C35   A    
C34   C36   A    
C12   C38   A    
N3    N4    D    
C31   O12   S    
C38   H2    S    
C9    C31   A    
O13   H15   S    
C10   C32   A    
C34   H9    S    
C16   C18   A    
C13   C16   A    
C27   C28   D    
C1    C27   S    
C14   C15   A    
C2    C28   S    
C4    C10   A    
Cu1   N4    S    
C29   O9    S    
