data_str_m9_o11_o18_f0_sra.sym.181
_audit_creation_date              2012-12-11T14:21:11-0500
_audit_creation_method            fapswitch 2.2
_symmetry_space_group_name_H-M    P1
_symmetry_Int_Tables_number       1
_space_group_crystal_system       triclinic
_cell_length_a                    21.933636
_cell_length_b                    7.204468
_cell_length_c                    14.936189
_cell_angle_alpha                 90.000396
_cell_angle_beta                  106.839572
_cell_angle_gamma                 90.000342
_cell_volume                      2259.01221745

loop_
_atom_site_label
_atom_site_type_symbol
_atom_type_description
_atom_site_fract_x
_atom_site_fract_y
_atom_site_fract_z
_atom_type_partial_charge
O1    O     O_R   0.584770 0.505770 0.002090 -0.539212
O2    O     O_R   0.415230 0.005770 0.997910 -0.539218
O3    O     O_R   0.467060 0.173340 0.861950 -0.537146
O4    O     O_R   0.532940 0.673340 0.138050 -0.537152
C1    C     C_R   0.452934 0.344019 0.826207 0.677008
C2    C     C_R   0.547064 0.844021 0.173793 0.677008
O5    O     O_R   0.587510 0.175890 0.993210 -0.540133
O6    O     O_R   0.412490 0.675890 0.006790 -0.540122
O7    O     O_R   0.536540 0.008150 0.130100 -0.545314
O8    O     O_R   0.463460 0.508150 0.869900 -0.545323
C3    C     C_R   0.612949 0.344897 0.997317 0.726456
C4    C     C_R   0.387050 0.844897 0.002680 0.726466
O9    O     O_3   0.483140 0.340040 0.044760 -0.377161
O10   O     O_3   0.516860 0.840040 0.955240 -0.377159
V1    V     V_3+5 0.503130 0.064190 0.991700 1.386751
V2    V     V_3+5 0.496870 0.564190 0.008300 1.386760
C5    C     C_2   0.213174 0.727153 0.998847 -0.128334
C6    C     C_2   0.786824 0.227153 0.001148 -0.128330
C7    C     C_2   0.180125 0.886718 0.994888 -0.307163
C8    C     C_2   0.819875 0.386716 0.005111 -0.307163
H1    H     H_    0.189633 0.595862 0.002258 0.138871
H2    H     H_    0.810364 0.095861 0.997734 0.138868
H3    H     H_    0.202010 0.019211 0.989180 0.128346
H4    H     H_    0.797990 0.519208 0.010823 0.128348
C9    C     C_2   0.280795 0.714652 0.997254 -0.152260
C10   C     C_2   0.719204 0.214653 0.002740 -0.152237
C11   C     C_2   0.320144 0.861094 0.004688 -0.318177
C12   C     C_2   0.679854 0.361095 0.995302 -0.318173
H5    H     H_    0.298774 0.576304 0.990919 0.137539
H6    H     H_    0.701226 0.076306 0.009084 0.137520
H7    H     H_    0.303393 0.000175 0.011737 0.135128
H8    H     H_    0.696604 0.500175 0.988247 0.135126
C13   C     C_R   0.926786 0.881973 0.724573 -0.023116
C14   C     C_R   0.073213 0.381989 0.275426 -0.023108
C15   C     C_R   0.575410 0.849471 0.276086 -0.088332
C16   C     C_R   0.424590 0.349460 0.723913 -0.088355
C17   C     C_R   0.938494 0.831818 0.570599 -0.165136
C18   C     C_R   0.061502 0.331980 0.429408 -0.165138
C19   C     C_R   0.965684 0.862062 0.665947 -0.176303
C20   C     C_R   0.034313 0.362174 0.334056 -0.176308
C21   C     C_R   0.860514 0.872483 0.687993 -0.214116
C22   C     C_R   0.139485 0.372456 0.312005 -0.214116
C23   C     C_R   0.831745 0.839182 0.591741 0.080849
C24   C     C_R   0.168251 0.339211 0.408262 0.080852
C25   C     C_R   0.872076 0.819745 0.533129 0.140812
C26   C     C_R   0.127919 0.319868 0.466879 0.140815
C27   C     C_R   0.764414 0.824532 0.551694 0.054980
C28   C     C_R   0.235581 0.324530 0.448309 0.054978
C29   C     C_R   0.738531 0.815900 0.452590 0.053800
C30   C     C_R   0.261465 0.315953 0.547415 0.053800
C31   C     C_R   0.780229 0.775893 0.399211 -0.192853
C32   C     C_R   0.219764 0.276038 0.600801 -0.192862
C33   C     C_R   0.845849 0.781331 0.438273 -0.211333
C34   C     C_R   0.154144 0.281512 0.561740 -0.211327
C35   C     C_R   0.722318 0.807876 0.606918 -0.190798
C36   C     C_R   0.277676 0.307795 0.393087 -0.190807
C37   C     C_R   0.657342 0.785644 0.565629 -0.191743
C38   C     C_R   0.342650 0.285532 0.434377 -0.191731
C39   C     C_R   0.631351 0.799396 0.468842 0.094132
C40   C     C_R   0.368642 0.299323 0.531162 0.094133
C41   C     C_R   0.671246 0.831594 0.410879 0.062892
C42   C     C_R   0.328752 0.331605 0.589122 0.062893
C43   C     C_R   0.565531 0.782864 0.430353 -0.208503
C44   C     C_R   0.434461 0.282741 0.569652 -0.208505
C45   C     C_R   0.537412 0.798698 0.334186 0.055667
C46   C     C_R   0.462582 0.298599 0.665818 0.055655
C47   C     C_R   0.641767 0.884905 0.315511 -0.010301
C48   C     C_R   0.358237 0.384948 0.684485 -0.010300
H9    H     H_    0.876236 0.753756 0.394043 0.124705
H10   H     H_    0.123755 0.254009 0.605975 0.124710
H11   H     H_    0.626857 0.761582 0.609993 0.126845
H12   H     H_    0.373133 0.261411 0.390015 0.126815
H13   H     H_    0.969451 0.815240 0.526238 0.118164
H14   H     H_    0.030545 0.315476 0.473774 0.118161
H15   H     H_    0.017064 0.866716 0.694326 0.104837
H16   H     H_    0.982935 0.366868 0.305679 0.104834
H17   H     H_    0.832785 0.892615 0.736244 0.095924
H18   H     H_    0.167214 0.392521 0.263750 0.095924
H19   H     H_    0.762676 0.728609 0.328190 0.126069
H20   H     H_    0.237312 0.228796 0.671828 0.126059
H21   H     H_    0.738593 0.799266 0.682169 0.123316
H22   H     H_    0.261399 0.299147 0.317838 0.123318
H23   H     H_    0.535763 0.753434 0.475378 0.117242
H24   H     H_    0.464226 0.253242 0.524630 0.117247
O11   O     O_R   0.036450 0.233070 0.130130 -0.536902
O12   O     O_R   0.963550 0.733070 0.869870 -0.536901
O13   O     O_R   0.912470 0.560570 0.006790 -0.545215
O14   O     O_R   0.087530 0.060570 0.993210 -0.545216
C49   C     C_R   0.887038 0.391899 0.002984 0.730084
C50   C     C_R   0.112962 0.891900 0.997016 0.730083
O15   O     O_R   0.032920 0.562940 0.138050 -0.540121
O16   O     O_R   0.967080 0.062940 0.861950 -0.540120
O17   O     O_R   0.084790 0.730500 0.002090 -0.537257
O18   O     O_R   0.915210 0.230500 0.997910 -0.537257
C51   C     C_R   0.044990 0.394125 0.174349 0.684835
C52   C     C_R   0.955010 0.894122 0.825651 0.684831
O19   O     O_3   0.016820 0.396170 0.955260 -0.378524
O20   O     O_3   0.983180 0.896170 0.044740 -0.378523
V3    V     V_3+5 0.996880 0.672090 0.008300 1.413167
V4    V     V_3+5 0.003120 0.172090 0.991700 1.413164
C53   C     C_3   0.676835 0.004041 0.260481 -0.365042
C54   C     C_3   0.706733 0.179560 0.314212 -0.283679
C55   C     C_3   0.738237 0.299117 0.255838 -0.768041
H25   H     H_    0.771746 0.215068 0.229211 0.236856
H26   H     H_    0.701498 0.361554 0.196092 0.226235
H27   H     H_    0.765631 0.412044 0.299861 0.215714
H28   H     H_    0.669280 0.262548 0.332489 0.197130
H29   H     H_    0.743557 0.143539 0.380031 0.211076
H30   H     H_    0.712148 0.924527 0.236740 0.155757
H31   H     H_    0.644479 0.054288 0.194039 0.194142
C56   C     C_3   0.323182 0.504159 0.739503 -0.365033
C57   C     C_3   0.293301 0.679675 0.685754 -0.283687
C58   C     C_3   0.261799 0.799280 0.744110 -0.768053
H32   H     H_    0.228266 0.715278 0.770710 0.236854
H33   H     H_    0.298537 0.861669 0.803873 0.226234
H34   H     H_    0.234432 0.912238 0.700081 0.215731
H35   H     H_    0.330765 0.762626 0.667482 0.197124
H36   H     H_    0.256480 0.643658 0.619932 0.211081
H37   H     H_    0.287863 0.424700 0.763258 0.155760
H38   H     H_    0.355542 0.554420 0.805937 0.194154
C59   C     C_3   0.466040 0.769409 0.296534 -0.350158
C60   C     C_3   0.449666 0.561922 0.289589 -0.284624
C61   C     C_3   0.378747 0.531182 0.242760 -0.771630
H39   H     H_    0.350164 0.594541 0.285222 0.234547
H40   H     H_    0.364580 0.593520 0.171853 0.239286
H41   H     H_    0.368512 0.380141 0.235627 0.205182
H42   H     H_    0.477027 0.489580 0.247944 0.215658
H43   H     H_    0.462777 0.499538 0.360720 0.182427
H44   H     H_    0.441879 0.838623 0.343537 0.166560
H45   H     H_    0.446606 0.835726 0.226950 0.159648
C62   C     C_3   0.533948 0.269218 0.703475 -0.350126
C63   C     C_3   0.550286 0.061707 0.710428 -0.284574
C64   C     C_3   0.621188 0.030861 0.757343 -0.771619
H46   H     H_    0.649821 0.094238 0.714960 0.234522
H47   H     H_    0.635316 0.093117 0.828269 0.239290
H48   H     H_    0.631397 0.879804 0.764446 0.205168
H49   H     H_    0.522877 0.989402 0.752015 0.215670
H50   H     H_    0.537206 0.999342 0.639293 0.182374
H51   H     H_    0.558124 0.338369 0.656473 0.166541
H52   H     H_    0.553391 0.335541 0.773057 0.159664

loop_
_geom_bond_atom_site_label_1
_geom_bond_atom_site_label_2
_ccdc_geom_bond_type
C18   C20   A    
C43   C45   A    
C53   C54   S    
C56   C57   S    
C14   C22   A    
C59   H45   S    
C33   H9    S    
C2    O7    A    
C61   H39   S    
C27   C29   A    
O5    C3    A    
C47   C53   S    
C13   C19   A    
C14   C20   A    
C56   H37   S    
C46   C62   S    
C21   H17   S    
C57   H35   S    
C16   C46   A    
C37   C39   A    
C15   C45   A    
C38   C40   A    
C1    C16   S    
O16   C52   A    
C2    C15   S    
C40   C42   A    
C60   H42   S    
C44   H24   S    
C62   H52   S    
C61   H40   S    
C8    H4    S    
C24   C26   A    
C63   C64   S    
C29   C31   A    
C6    C10   S    
C64   H48   S    
C30   C32   A    
C54   H29   S    
C19   H15   S    
C35   H21   S    
O17   V3    S    
C58   H34   S    
C28   C30   A    
O2    C4    A    
O6    V2    S    
C64   H47   S    
C21   C23   A    
C22   C24   A    
C57   C58   S    
C32   C34   A    
O13   V3    S    
C9    H5    S    
C39   C41   A    
C29   C41   A    
C4    C11   S    
C11   H7    S    
C12   H8    S    
C14   C51   S    
O4    C2    A    
C61   H41   S    
C53   H31   S    
O15   C51   A    
C5    H1    S    
C20   H16   S    
C43   H23   S    
C56   H38   S    
C31   C33   A    
C48   C56   S    
C44   C46   A    
O4    V2    S    
C7    H3    S    
O2    V1    S    
C41   C47   A    
C34   H10   S    
O18   V4    S    
O6    C4    A    
C26   C34   A    
C54   H28   S    
C55   H26   S    
O1    V2    S    
C37   H11   S    
O12   V3    S    
C23   C25   A    
C59   C60   S    
O14   V4    S    
O12   C52   A    
O14   C50   A    
C22   H18   S    
C45   C59   S    
O13   C49   A    
C64   H46   S    
C30   C42   A    
C17   C25   A    
C62   C63   S    
C13   C52   S    
O19   V4    S    
O3    V1    S    
O16   V4    S    
C50   O17   A    
C27   C35   A    
C58   H32   S    
C18   H14   S    
C63   H50   S    
C28   C36   A    
C17   H13   S    
C6    H2    S    
C10   C12   D    
C59   H44   S    
O3    C1    A    
C49   O18   A    
C16   C48   A    
C36   H22   S    
C9    C11   D    
C8    C49   S    
C39   C43   A    
C42   C48   A    
C40   C44   A    
C13   C21   A    
C35   C37   A    
C63   H49   S    
C5    C9    S    
C1    O8    A    
C17   C19   A    
O11   V4    S    
O8    V2    S    
C57   H36   S    
O11   C51   A    
C38   H12   S    
C23   C27   A    
C3    C12   S    
O5    V1    S    
C5    C7    D    
C36   C38   A    
C55   H27   S    
C6    C8    D    
C60   H43   S    
C54   C55   S    
C31   H19   S    
C18   C26   A    
C62   H51   S    
C15   C47   A    
C25   C33   A    
O20   V3    S    
O9    V2    S    
C55   H25   S    
C7    C50   S    
O10   V1    S    
O1    C3    A    
O15   V3    S    
C60   C61   S    
C32   H20   S    
C53   H30   S    
C24   C28   A    
O7    V1    S    
C58   H33   S    
C10   H6    S    
