data_str_m9_o16_o22_f0_sra.sym.81
_audit_creation_date              2012-12-11T15:11:51-0500
_audit_creation_method            fapswitch 2.2
_symmetry_space_group_name_H-M    P1
_symmetry_Int_Tables_number       1
_space_group_crystal_system       triclinic
_cell_length_a                    20.057217
_cell_length_b                    7.127057
_cell_length_c                    13.969845
_cell_angle_alpha                 89.999917
_cell_angle_beta                  103.824083
_cell_angle_gamma                 90.00006
_cell_volume                      1939.12988273

loop_
_atom_site_label
_atom_site_type_symbol
_atom_type_description
_atom_site_fract_x
_atom_site_fract_y
_atom_site_fract_z
_atom_type_partial_charge
O1    O     O_R   0.449830 0.506740 0.599960 -0.541939
O2    O     O_R   0.550170 0.006740 0.400040 -0.541939
O3    O     O_R   0.588980 0.179860 0.596720 -0.548830
O4    O     O_R   0.411020 0.679860 0.403280 -0.548831
C1    C     C_R   0.617538 0.344724 0.615114 0.646445
C2    C     C_R   0.382462 0.844723 0.384886 0.646445
O5    O     O_R   0.452740 0.177340 0.612040 -0.540798
O6    O     O_R   0.547260 0.677340 0.387960 -0.540798
O7    O     O_R   0.412960 0.002070 0.415460 -0.548704
O8    O     O_R   0.587040 0.502070 0.584540 -0.548704
C3    C     C_R   0.436194 0.345358 0.636119 0.698130
C4    C     C_R   0.563806 0.845359 0.363880 0.698130
O9    O     O_3   0.487110 0.337570 0.435490 -0.382638
O10   O     O_3   0.512890 0.837570 0.564510 -0.382637
V1    V     V_3+5 0.502390 0.064650 0.511970 1.396605
V2    V     V_3+5 0.497610 0.564650 0.488030 1.396604
C5    C     C_R   0.600008 0.790571 0.118051 -0.150749
C6    C     C_R   0.399993 0.290588 0.881950 -0.150750
H1    H     H_    0.511157 0.761631 0.175824 0.104385
H2    H     H_    0.488844 0.261658 0.824178 0.104386
H3    H     H_    0.571066 0.743619 0.046614 0.128491
H4    H     H_    0.428936 0.243643 0.953388 0.128487
C7    C     C_R   0.599952 0.849907 0.286264 -0.021046
C8    C     C_R   0.400047 0.349907 0.713735 -0.021046
C9    C     C_R   0.926610 0.864040 0.305568 -0.169901
C10   C     C_R   0.073389 0.364041 0.694432 -0.169902
C11   C     C_R   0.891910 0.864887 0.379844 -0.119356
C12   C     C_R   0.108089 0.364892 0.620156 -0.119354
C13   C     C_R   0.820780 0.865506 0.357150 -0.131301
C14   C     C_R   0.179219 0.365510 0.642849 -0.131300
C15   C     C_R   0.781520 0.866465 0.258147 0.033845
C16   C     C_R   0.218480 0.366463 0.741852 0.033844
C17   C     C_R   0.816619 0.862016 0.180020 0.014381
C18   C     C_R   0.183381 0.362014 0.819979 0.014389
C19   C     C_R   0.708337 0.862052 0.235885 0.026656
C20   C     C_R   0.291662 0.362050 0.764113 0.026659
C21   C     C_R   0.670564 0.836142 0.137217 0.093830
C22   C     C_R   0.329435 0.336151 0.862782 0.093830
C23   C     C_R   0.703190 0.855186 0.059575 0.159492
C24   C     C_R   0.296810 0.355194 0.940423 0.159458
C25   C     C_R   0.776100 0.860055 0.080019 0.089343
C26   C     C_R   0.223900 0.360053 0.919980 0.089334
C27   C     C_R   0.670680 0.880381 0.309071 -0.192215
C28   C     C_R   0.329319 0.380368 0.690928 -0.192218
C29   C     C_R   0.565269 0.797196 0.192066 -0.178756
C30   C     C_R   0.434731 0.297212 0.807934 -0.178755
C31   C     C_R   0.890912 0.862131 0.206589 -0.044370
C32   C     C_R   0.109088 0.362131 0.793411 -0.044373
H5    H     H_    0.694416 0.916535 0.384443 0.107522
H6    H     H_    0.305582 0.416503 0.615555 0.107524
H7    H     H_    0.982299 0.864792 0.325607 0.099889
H8    H     H_    0.017700 0.364794 0.674393 0.099889
H9    H     H_    0.798186 0.859480 0.419642 0.141303
H10   H     H_    0.201813 0.359492 0.580358 0.141303
H11   H     H_    0.920495 0.864012 0.456146 0.126307
H12   H     H_    0.079504 0.364021 0.543854 0.126307
C33   C     C_3   0.232345 0.709733 0.163776 -0.353266
C34   C     C_3   0.767655 0.209728 0.836223 -0.353262
H13   H     H_    0.211017 0.570720 0.176002 0.166132
H14   H     H_    0.788983 0.070717 0.823995 0.166132
H15   H     H_    0.232692 0.725841 0.084717 0.145944
H16   H     H_    0.767306 0.225829 0.915282 0.145955
C35   C     C_3   0.306682 0.722038 0.227965 -0.368258
C36   C     C_3   0.693318 0.222033 0.772033 -0.368253
H17   H     H_    0.341451 0.775141 0.182739 0.135103
H18   H     H_    0.658548 0.275129 0.817261 0.135106
H19   H     H_    0.324140 0.578094 0.252812 0.151965
H20   H     H_    0.675860 0.078090 0.747184 0.151963
H21   H     H_    0.150784 0.682798 0.301151 0.131897
H22   H     H_    0.849216 0.182805 0.698847 0.131897
H23   H     H_    0.262474 0.637938 0.390604 0.147497
H24   H     H_    0.737526 0.137945 0.609394 0.147499
C37   C     C_3   0.180970 0.813607 0.300641 -0.300588
C38   C     C_3   0.819030 0.313613 0.699359 -0.300585
C39   C     C_3   0.223697 0.050859 0.195275 -0.324015
C40   C     C_3   0.776302 0.550856 0.804728 -0.324016
C41   C     C_3   0.185933 0.860027 0.193749 0.093326
C42   C     C_3   0.814066 0.360026 0.806252 0.093320
H25   H     H_    0.190049 0.170562 0.204075 0.172789
H26   H     H_    0.809949 0.670561 0.795929 0.172790
H27   H     H_    0.236787 0.063568 0.122920 0.126918
H28   H     H_    0.763212 0.563561 0.877083 0.126924
C43   C     C_3   0.310581 0.854445 0.317428 0.075060
C44   C     C_3   0.689419 0.354445 0.682573 0.075057
C45   C     C_3   0.254236 0.788456 0.369990 -0.287999
C46   C     C_3   0.745764 0.288462 0.630010 -0.288000
C47   C     C_3   0.292075 0.056647 0.275395 -0.064283
C48   C     C_3   0.707924 0.556646 0.724609 -0.064284
H29   H     H_    0.333138 0.102367 0.239197 0.052328
H30   H     H_    0.666860 0.602361 0.760806 0.052336
H31   H     H_    0.153231 0.928263 0.328783 0.170427
H32   H     H_    0.846768 0.428272 0.671219 0.170427
H33   H     H_    0.258042 0.866858 0.439818 0.162210
H34   H     H_    0.741957 0.366869 0.560183 0.162209
O11   O     O_R   0.912980 0.203550 0.915410 -0.542106
O12   O     O_R   0.087020 0.703550 0.084590 -0.542106
O13   O     O_R   0.047270 0.535570 0.887960 -0.541908
O14   O     O_R   0.952730 0.035570 0.112040 -0.541908
C49   C     C_R   0.065290 0.368409 0.864195 0.695961
C50   C     C_R   0.934710 0.868409 0.135805 0.695959
O15   O     O_R   0.911030 0.532970 0.903270 -0.548999
O16   O     O_R   0.088970 0.032970 0.096730 -0.549000
O17   O     O_R   0.949820 0.708150 0.099970 -0.541126
O18   O     O_R   0.050180 0.208150 0.900030 -0.541125
C51   C     C_R   0.884572 0.364868 0.879456 0.646788
C52   C     C_R   0.115427 0.864868 0.120544 0.646788
O19   O     O_3   0.012900 0.375230 0.064480 -0.372401
O20   O     O_3   0.987100 0.875230 0.935520 -0.372401
V3    V     V_3+5 0.997610 0.648190 0.988040 1.402572
V4    V     V_3+5 0.002390 0.148190 0.011960 1.402572
C53   C     C_2   0.289870 0.203863 0.353243 0.316641
H35   H     H_    0.332214 0.301713 0.375346 0.065324
O21   O     O_2   0.241683 0.214160 0.392392 -0.559182
C54   C     C_2   0.710128 0.703866 0.646762 0.316640
H36   H     H_    0.667784 0.801713 0.624659 0.065327
O22   O     O_2   0.758315 0.714169 0.607614 -0.559182
C55   C     C_3   0.659701 0.884171 0.955246 -0.825439
H37   H     H_    0.679818 0.003978 0.921371 0.217452
H38   H     H_    0.659395 0.755097 0.910870 0.206875
H39   H     H_    0.606233 0.928632 0.951063 0.201159
C56   C     C_3   0.340296 0.384200 0.044751 -0.825291
H40   H     H_    0.320169 0.504034 0.078610 0.217436
H41   H     H_    0.340594 0.255120 0.089141 0.206850
H42   H     H_    0.393773 0.428670 0.048934 0.201137
C57   C     C_3   0.809334 0.856028 0.994271 -0.783304
H43   H     H_    0.773286 0.852902 0.922159 0.191287
H44   H     H_    0.840697 0.982894 0.994160 0.218703
H45   H     H_    0.838929 0.725374 0.996702 0.222463
C58   C     C_3   0.190667 0.356027 0.005730 -0.783317
H46   H     H_    0.226717 0.352903 0.077841 0.191282
H47   H     H_    0.159303 0.482892 0.005841 0.218706
H48   H     H_    0.161073 0.225372 0.003300 0.222467

loop_
_geom_bond_atom_site_label_1
_geom_bond_atom_site_label_2
_ccdc_geom_bond_type
C34   H16   S    
C43   C47   S    
C35   H17   S    
C7    C29   A    
C11   C13   A    
C53   H35   S    
O1    C3    A    
O2    C4    A    
C2    O7    A    
C54   H36   S    
C12   H12   S    
C23   C25   A    
O5    C3    A    
C24   C56   S    
C14   H10   S    
C4    C7    S    
C39   H25   S    
C42   C51   S    
O14   V4    S    
C16   C20   A    
C41   C52   S    
C19   C21   A    
C5    C29   A    
C55   H38   S    
C11   H11   S    
C33   H13   S    
C47   C53   S    
O15   V3    S    
C3    C8    S    
C7    C27   A    
O20   V3    S    
C38   H32   S    
C36   C44   S    
C56   H42   S    
C46   H34   S    
H23   C45   S    
C45   H33   S    
C18   C26   A    
H22   C38   S    
C57   H45   S    
C15   C17   A    
H21   C37   S    
C19   C27   A    
C40   C48   S    
C10   C32   A    
C58   H48   S    
C24   C26   A    
C49   O18   A    
O6    V2    S    
C22   C24   A    
C34   C36   S    
O19   V3    S    
C6    C30   A    
O13   C49   A    
C33   C35   S    
O15   C51   A    
C35   H19   S    
C25   C57   S    
C37   H31   S    
O4    C2    A    
C55   H39   S    
C40   H28   S    
C1    C44   S    
C27   H5    S    
O5    V1    S    
C23   C55   S    
C50   O17   A    
C5    H3    S    
C31   C50   S    
C35   C43   S    
C36   H18   S    
O4    V2    S    
C9    H7    S    
C10   H8    S    
O13   V3    S    
H24   C46   S    
O6    C4    A    
C53   O21   D    
O1    V2    S    
C5    C21   A    
C38   C46   S    
O2    V1    S    
C39   C41   S    
C37   C45   S    
C56   H40   S    
C39   C47   S    
C43   C45   S    
C48   H30   S    
O14   C50   A    
C47   H29   S    
C57   H43   S    
C17   C31   A    
O19   V4    S    
C15   C19   A    
O16   V4    S    
C18   C32   A    
C36   H20   S    
O3    V1    S    
O18   V4    S    
C58   H46   S    
C28   H6    S    
C32   C49   S    
O12   C52   A    
C9    C31   A    
C2    C43   S    
C6    H4    S    
C39   H27   S    
C40   H26   S    
C40   C42   S    
O3    C1    A    
O11   V4    S    
C54   O22   D    
H1    C29   S    
C33   H15   S    
C9    C11   A    
O12   V3    S    
C10   C12   A    
O17   V3    S    
C8    C30   A    
C33   C41   S    
C20   C22   A    
O7    V1    S    
C17   C25   A    
C1    O8    A    
C13   C15   A    
O8    V2    S    
C55   H37   S    
C14   C16   A    
C44   C48   S    
C13   H9    S    
C8    C28   A    
C12   C14   A    
O20   V4    S    
O16   C52   A    
C26   C58   S    
C48   C54   S    
C6    C22   A    
C56   H41   S    
C20   C28   A    
C34   C42   S    
C21   C23   A    
C38   C42   S    
O9    V2    S    
O11   C51   A    
C57   H44   S    
C37   C41   S    
O10   V1    S    
C44   C46   S    
C34   H14   S    
H2    C30   S    
C16   C18   A    
C58   H47   S    
