data_str_m2_o9_o18_f0_pcu.sym.52
_audit_creation_date              2012-10-26T21:10:50-0400
_audit_creation_method            fapswitch 2.2
_symmetry_space_group_name_H-M    P1
_symmetry_Int_Tables_number       1
_space_group_crystal_system       triclinic
_cell_length_a                    10.881434
_cell_length_b                    14.736636
_cell_length_c                    14.901394
_cell_angle_alpha                 64.638317
_cell_angle_beta                  104.82804
_cell_angle_gamma                 102.715794
_cell_volume                      2070.55335048

loop_
_atom_site_label
_atom_site_type_symbol
_atom_type_description
_atom_site_fract_x
_atom_site_fract_y
_atom_site_fract_z
_atom_type_partial_charge
C1    C     C_R   0.478339 0.119805 0.312539 0.593234
C2    C     C_R   0.539671 0.782784 0.969569 -0.151240
C3    C     C_R   0.380423 0.152571 0.132670 -0.175598
C4    C     C_R   0.537860 0.849101 0.868849 -0.164999
C5    C     C_R   0.508729 0.290452 0.175526 0.228912
C6    C     C_R   0.521134 0.706457 0.823532 0.211573
C7    C     C_R   0.463677 0.360489 0.077396 0.023054
C8    C     C_R   0.501023 0.638655 0.921594 0.024815
C9    C     C_R   0.394572 0.322557 0.003531 0.024135
C10   C     C_R   0.520093 0.677946 0.996306 0.023885
C11   C     C_R   0.482599 0.466583 0.051031 0.014332
C12   C     C_R   0.521864 0.880012 0.687628 0.572630
C13   C     C_R   0.464786 0.532949 0.947876 0.018067
C14   C     C_R   0.401458 0.492648 0.874967 -0.131564
C15   C     C_R   0.505729 0.507912 0.124339 -0.135409
C16   C     C_R   0.263486 0.998310 0.504294 0.533357
C17   C     C_R   0.737080 0.000294 0.498432 0.557973
C18   C     C_R   0.363978 0.389140 0.902994 -0.125595
C19   C     C_R   0.519268 0.611827 0.096730 -0.130292
C20   C     C_R   0.745582 0.298443 0.640316 -0.127147
C21   C     C_R   0.276739 0.712708 0.337872 -0.140755
C22   C     C_R   0.698195 0.209163 0.624656 0.391287
C23   C     C_R   0.870755 0.998602 0.499014 -0.002949
C24   C     C_R   0.309184 0.794753 0.367298 0.383371
C25   C     C_R   0.512654 0.282388 0.515558 0.056932
C26   C     C_R   0.488192 0.717942 0.485156 0.061829
C27   C     C_R   0.557192 0.375562 0.527339 -0.035011
C28   C     C_R   0.454729 0.629728 0.462872 -0.039433
C29   C     C_R   0.672818 0.379452 0.596168 -0.016856
C30   C     C_R   0.350127 0.631816 0.383047 -0.020046
C31   C     C_R   0.491619 0.463921 0.474780 -0.020933
C32   C     C_R   0.525503 0.543867 0.511128 -0.022202
C33   C     C_R   0.628699 0.534172 0.594606 0.218964
C34   C     C_R   0.131017 0.996934 0.510053 -0.006693
C35   C     C_R   0.395568 0.475345 0.386819 0.218558
C36   C     C_R   0.712530 0.461685 0.624377 0.218736
C37   C     C_R   0.325564 0.558753 0.341852 0.227502
C38   C     C_R   0.327386 0.171905 0.724158 0.324710
C39   C     C_R   0.665673 0.872955 0.253632 0.332922
C40   C     C_R   0.261345 0.099011 0.685185 0.303499
C41   C     C_R   0.743283 0.931046 0.306302 0.311323
C42   C     C_R   0.182537 0.131161 0.587295 -0.004255
C43   C     C_R   0.817895 0.881495 0.403314 -0.009106
C44   C     C_R   0.171085 0.234775 0.532501 -0.154488
C45   C     C_R   0.907974 0.937855 0.460954 -0.038038
C46   C     C_R   0.817217 0.776145 0.442171 -0.153585
C47   C     C_R   0.232712 0.305356 0.573636 -0.183561
C48   C     C_R   0.745586 0.720397 0.386808 -0.182747
C49   C     C_R   0.309484 0.274293 0.669073 -0.158824
C50   C     C_R   0.669951 0.768128 0.293649 -0.151373
C51   C     C_R   0.964196 0.057671 0.541818 -0.146695
C52   C     C_R   0.037487 0.933391 0.473184 -0.152189
C53   C     C_3   0.116737 0.866634 0.278876 -0.032790
C54   C     C_3   0.088345 0.895650 0.164921 -0.401795
C55   C     C_3   0.822605 0.101076 0.769154 -0.040521
C56   C     C_R   0.093876 0.059563 0.546485 -0.041882
C57   C     C_3   0.968328 0.114544 0.783638 -0.376112
C58   C     C_3   0.530044 0.175314 0.814990 -0.034417
C59   C     C_3   0.609927 0.151204 0.920544 -0.359181
C60   C     C_3   0.465984 0.891814 0.155339 -0.037038
C61   C     C_3   0.392419 0.948422 0.050446 -0.345226
C62   C     C_R   0.457124 0.187973 0.205098 0.066113
C63   C     C_R   0.527699 0.811400 0.794953 0.042404
C64   C     C_R   0.354016 0.218678 0.031763 -0.158408
Cu1   Cu    Cu3+1 0.466270 0.918260 0.475690 1.039439
Cu2   Cu    Cu3+1 0.533730 0.081740 0.524310 1.046823
H1    H     H_    0.354865 0.330026 0.700560 0.121885
H2    H     H_    0.197523 0.713346 0.277109 0.167166
H3    H     H_    0.109758 0.260531 0.458826 0.143672
H4    H     H_    0.875159 0.737355 0.514754 0.141217
H5    H     H_    0.219573 0.384388 0.531853 0.147401
H6    H     H_    0.749248 0.639819 0.415922 0.143682
H7    H     H_    0.936461 0.104569 0.570989 0.179698
H8    H     H_    0.065017 0.882102 0.449612 0.138409
H9    H     H_    0.310960 0.361123 0.845801 0.120469
H10   H     H_    0.530317 0.640192 0.154433 0.112514
H11   H     H_    0.546782 0.929751 0.849195 0.156394
H12   H     H_    0.616407 0.723549 0.251825 0.107250
H13   H     H_    0.340990 0.073710 0.154151 0.150881
H14   H     H_    0.860177 0.537781 0.677044 0.332992
H15   H     H_    0.266576 0.549933 0.210655 0.342475
H16   H     H_    0.070307 0.919291 0.290819 0.159775
H17   H     H_    0.070052 0.789138 0.319895 0.115628
H18   H     H_    0.127525 0.845243 0.144618 0.139604
H19   H     H_    0.983010 0.889621 0.137827 0.128181
H20   H     H_    0.130315 0.974969 0.125767 0.149701
H21   H     H_    0.789737 0.019719 0.810029 0.156537
H22   H     H_    0.793115 0.142360 0.805922 0.091564
H23   H     H_    0.297692 0.189187 0.976442 0.139191
H24   H     H_    0.004837 0.194234 0.740012 0.154244
H25   H     H_    0.010569 0.094505 0.864900 0.114142
H26   H     H_    0.998965 0.064276 0.757550 0.168604
H27   H     H_    0.692349 0.555707 0.719553 0.339729
H28   H     H_    0.282868 0.395410 0.316738 0.332532
H29   H     H_    0.547212 0.258710 0.772588 0.131397
H30   H     H_    0.563459 0.136210 0.778076 0.147738
H31   H     H_    0.611411 0.068293 0.961200 0.185899
H32   H     H_    0.709970 0.188055 0.915494 0.113116
H33   H     H_    0.570171 0.180138 0.963415 0.187759
H34   H     H_    0.554505 0.813125 0.026556 0.144250
H35   H     H_    0.435003 0.910920 0.209948 0.186388
H36   H     H_    0.440205 0.809403 0.172945 0.124999
H37   H     H_    0.423028 0.934383 0.992578 0.191417
H38   H     H_    0.288363 0.922898 0.047205 0.111463
H39   H     H_    0.409284 0.030703 0.032341 0.183984
H40   H     H_    0.222369 0.954968 0.711185 0.316937
H41   H     H_    0.813142 0.068166 0.297215 0.316837
H42   H     H_    0.595619 0.613548 0.800138 0.331396
H43   H     H_    0.666446 0.374896 0.200099 0.322765
H44   H     H_    0.372677 0.541104 0.796582 0.174964
H45   H     H_    0.505740 0.460431 0.203049 0.218964
H46   H     H_    0.575239 0.731223 0.533568 0.231298
H47   H     H_    0.419655 0.267531 0.474202 0.199520
H48   H     H_    0.837942 0.303624 0.688167 0.167712
N1    N     N_R   0.584450 0.204570 0.560790 -0.243537
N2    N     N_R   0.415550 0.795430 0.439210 -0.248728
O1    O     O_R   0.455540 0.022090 0.338120 -0.476025
O2    O     O_3   0.236477 0.573502 0.253454 -0.732233
O3    O     O_3   0.250180 0.882844 0.315030 -0.537201
O4    O     O_3   0.768819 0.128069 0.665267 -0.527123
O5    O     O_3   0.642193 0.589971 0.651456 -0.725724
O6    O     O_3   0.376201 0.408772 0.340516 -0.750631
O7    O     O_3   0.399381 0.140960 0.820948 -0.553599
O8    O     O_3   0.598878 0.921686 0.157122 -0.552714
O9    O     O_3   0.274264 0.998541 0.745998 -0.687741
O10   O     O_3   0.744436 0.034912 0.259435 -0.669851
O11   O     O_3   0.549119 0.673144 0.758474 -0.672382
O12   O     O_R   0.544460 0.977910 0.661880 -0.494289
O13   O     O_3   0.609683 0.317838 0.240835 -0.682200
O14   O     O_R   0.512510 0.160150 0.379180 -0.444182
O15   O     O_R   0.487490 0.839850 0.620820 -0.446565
O16   O     O_R   0.291160 0.930970 0.479480 -0.478849
O17   O     O_R   0.708840 0.069030 0.520520 -0.450935
O18   O     O_R   0.348130 0.069020 0.520540 -0.522451
O19   O     O_R   0.651870 0.930980 0.479460 -0.515326
O20   O     O_3   0.829464 0.466014 0.687642 -0.733479

loop_
_geom_bond_atom_site_label_1
_geom_bond_atom_site_label_2
_ccdc_geom_bond_type
C20   H48   S    
C43   C46   A    
C34   C56   A    
C18   H9    S    
C23   C45   A    
C12   O15   A    
C27   C29   A    
C9    C64   A    
C59   H33   S    
C14   C18   A    
C16   O18   A    
C1    C62   S    
C54   H18   S    
C47   C49   A    
C38   C49   A    
C53   C54   S    
C7    C11   A    
C4    C63   A    
C58   O7    S    
C17   C23   S    
C19   H10   S    
C57   H26   S    
H27   O5    S    
C6    O11   S    
C15   C19   A    
C52   H8    S    
C25   N1    A    
C22   O4    S    
C50   H12   S    
C33   C36   A    
C7    C9    A    
C51   C56   A    
C55   H22   S    
C60   O8    S    
C58   H30   S    
C16   C34   S    
Cu2   O18   S    
C11   C15   A    
C37   O2    S    
C17   O19   A    
C61   H39   S    
C38   O7    S    
C44   C47   A    
C55   O4    S    
C42   C56   S    
C40   C42   A    
C3    H13   S    
C13   C14   A    
C33   O5    S    
C41   C43   A    
C42   C44   A    
C64   H23   S    
C48   H6    S    
C60   H36   S    
C36   O20   S    
Cu1   O15   S    
C20   C29   A    
C46   C48   A    
Cu2   N1    S    
C27   C31   A    
C15   H45   S    
C28   C32   A    
C61   H38   S    
C39   C41   A    
C1    O14   A    
C57   H24   S    
C5    C7    A    
C12   C63   S    
C6    C8    A    
C45   C52   A    
C58   C59   S    
C3    C64   A    
H15   O2    S    
C39   O8    S    
C30   C37   A    
C53   H16   S    
C6    C63   A    
C2    C4    A    
C58   H29   S    
C25   H47   S    
Cu2   O17   S    
C23   C51   A    
C31   C32   A    
C29   C36   A    
C10   C19   A    
C44   H3    S    
C1    O1    A    
C43   C45   S    
C47   H5    S    
Cu1   O19   S    
H28   O6    S    
C22   N1    A    
C20   C22   A    
C24   N2    A    
C55   C57   S    
C21   H2    S    
C17   O17   A    
C59   H31   S    
Cu1   N2    S    
C31   C35   A    
C5    O13   S    
C60   H35   S    
C2    C10   A    
C26   H46   S    
Cu1   O16   S    
C35   C37   A    
C54   H20   S    
C3    C62   A    
C14   H44   S    
C24   O3    S    
C57   H25   S    
C61   H37   S    
C26   C28   A    
C41   O10   S    
C35   O6    S    
C51   H7    S    
H41   O10   S    
C54   H19   S    
C53   O3    S    
C49   H1    S    
C12   O12   A    
C25   C27   A    
C21   C30   A    
C34   C52   A    
H14   O20   S    
C53   H17   S    
C32   C33   A    
C28   C30   A    
C4    H11   S    
C38   C40   A    
C11   C13   A    
C40   O9    S    
C48   C50   A    
Cu2   O12   S    
C5    C62   A    
H42   O11   S    
C55   H21   S    
C16   O16   A    
H40   O9    S    
C26   N2    A    
C46   H4    S    
C2    H34   S    
C8    C13   A    
C9    C18   A    
C39   C50   A    
C8    C10   A    
Cu1   Cu2   S    
C21   C24   A    
C59   H32   S    
Cu1   O1    S    
C60   C61   S    
H43   O13   S    
Cu2   O14   S    
