data_str_m2_o10_o27_f0_pcu.sym.142
_audit_creation_date              2012-12-10T16:49:24-0500
_audit_creation_method            fapswitch 2.2
_symmetry_space_group_name_H-M    P1
_symmetry_Int_Tables_number       1
_space_group_crystal_system       triclinic
_cell_length_a                    19.567496
_cell_length_b                    8.802379
_cell_length_c                    7.784233
_cell_angle_alpha                 103.42525
_cell_angle_beta                  96.30013
_cell_angle_gamma                 92.519479
_cell_volume                      1292.89866566

loop_
_atom_site_label
_atom_site_type_symbol
_atom_type_description
_atom_site_fract_x
_atom_site_fract_y
_atom_site_fract_z
_atom_type_partial_charge
C1    C     C_R   0.497905 0.201364 0.453668 0.742931
C2    C     C_R   0.502192 0.798637 0.546339 0.758283
C3    C     C_2   0.496620 0.032134 0.428208 0.215025
C4    C     C_2   0.503674 0.967871 0.571814 0.206017
C5    C     C_R   0.367732 0.503486 0.500452 0.868022
C6    C     C_R   0.633256 0.497288 0.500523 0.839743
C7    C     C_R   0.261709 0.476567 0.653113 0.365815
C8    C     C_R   0.739369 0.437378 0.336695 0.354003
C9    C     C_R   0.190959 0.440549 0.648582 0.369784
C10   C     C_R   0.805960 0.385116 0.321909 0.392145
C11   C     C_R   0.145143 0.437071 0.494456 -0.247440
C12   C     C_R   0.852651 0.395285 0.477490 -0.251770
C13   C     C_R   0.172706 0.470111 0.346990 0.297310
C14   C     C_R   0.826580 0.435684 0.641595 0.290328
C15   C     C_R   0.243586 0.514084 0.356912 0.327127
C16   C     C_R   0.759214 0.488026 0.652470 0.300412
C17   C     C_R   0.290361 0.502369 0.503413 -0.407701
C18   C     C_R   0.711564 0.477677 0.498590 -0.359485
C19   C     C_R   0.928999 0.383147 0.476288 0.478148
C20   C     C_R   0.069035 0.404405 0.486388 0.500849
Cu1   Cu    Cu3+1 0.507710 0.517380 0.684380 1.111919
Cu2   Cu    Cu3+1 0.492290 0.482620 0.315620 1.112432
N1    N     N_R   0.027138 0.386488 0.331170 -0.119216
N2    N     N_R   0.971083 0.396683 0.630652 -0.105737
N3    N     N_R   0.959012 0.378039 0.326503 -0.210381
N4    N     N_R   0.039107 0.407108 0.635577 -0.214473
N5    N     N_2   0.480680 0.456420 0.038530 0.131693
N6    N     N_2   0.519320 0.543580 0.961470 0.129051
O1    O     O_R   0.505010 0.286130 0.619770 -0.487044
O2    O     O_R   0.494990 0.713870 0.380230 -0.477518
O3    O     O_R   0.491990 0.256780 0.308370 -0.635990
O4    O     O_R   0.508010 0.743220 0.691630 -0.619925
O5    O     O_R   0.406650 0.514660 0.655750 -0.552717
O6    O     O_R   0.593350 0.485340 0.344250 -0.554379
O7    O     O_R   0.393640 0.485310 0.344340 -0.509746
O8    O     O_R   0.606360 0.514690 0.655660 -0.533057
O9    O     O_3   0.302781 0.485552 0.807084 -0.557332
H1    H     H_    0.327983 0.589286 0.836315 0.334170
O10   O     O_3   0.703759 0.466118 0.191319 -0.564320
H2    H     H_    0.667180 0.380326 0.152194 0.354054
O11   O     O_3   0.168481 0.402072 0.794634 -0.614649
H3    H     H_    0.136237 0.481412 0.838696 0.378626
O12   O     O_3   0.821329 0.321335 0.152283 -0.644705
H4    H     H_    0.859763 0.252819 0.157770 0.343553
O13   O     O_3   0.130134 0.455157 0.190327 -0.624197
H5    H     H_    0.148664 0.373094 0.101045 0.386640
O14   O     O_3   0.867742 0.422029 0.792318 -0.618464
H6    H     H_    0.841041 0.357518 0.853476 0.398153
S1    S     S_3+6 0.272066 0.558759 0.170471 0.055175
O15   O     O_2   0.287395 0.399458 0.068303 -0.227340
O16   O     O_2   0.216546 0.628569 0.071430 -0.256441
O17   O     O_3   0.341638 0.687593 0.214965 -0.498291
H7    H     H_    0.348143 0.715367 0.101580 0.366603
S2    S     S_3+6 0.733937 0.540867 0.862817 0.093871
O18   O     O_2   0.695443 0.390673 0.867365 -0.302718
O19   O     O_2   0.793906 0.580833 0.006889 -0.148663
O20   O     O_3   0.685614 0.695786 0.906985 -0.497449
H8    H     H_    0.657614 0.787839 0.923546 0.356660
O21   O     O_3   0.488179 0.937811 0.256322 -0.704634
H9    H     H_    0.482235 0.000560 0.166335 0.344386
O22   O     O_3   0.512412 0.062207 0.743701 -0.705798
H10   H     H_    0.518188 0.999435 0.833703 0.345226
O23   O     O_3   0.431424 0.360710 0.928072 -0.524954
H11   H     H_    0.409227 0.303106 0.004600 0.367196
O24   O     O_3   0.578629 0.599246 0.059145 -0.551861
H12   H     H_    0.610624 0.538538 0.989108 0.413046

loop_
_geom_bond_atom_site_label_1
_geom_bond_atom_site_label_2
_ccdc_geom_bond_type
C2    C4    S    
O12   H4    S    
C8    C10   A    
O9    H1    S    
C8    O10   S    
C9    C11   A    
O11   H3    S    
C9    O11   S    
O14   H6    S    
C20   N1    A    
C12   C14   A    
C2    O2    A    
S1    O17   S    
N5    N6    D    
C7    C9    A    
S1    O15   D    
C16   S2    S    
C15   S1    S    
N6    O24   S    
C7    O9    S    
O21   H9    S    
Cu1   O8    S    
Cu1   Cu2   S    
C13   O13   S    
Cu2   O7    S    
C11   C13   A    
O20   H8    S    
C14   O14   S    
C20   N4    A    
C19   N3    A    
C10   C12   A    
C12   C19   S    
C1    O1    A    
Cu1   O4    S    
Cu1   N6    S    
C6    O8    A    
C19   N2    A    
C14   C16   A    
Cu2   N5    S    
N1    N3    A    
C13   C15   A    
O22   H10   S    
Cu2   O6    S    
C6    C18   S    
S2    O19   D    
C11   C20   S    
Cu1   O5    S    
Cu2   O3    S    
O23   H11   S    
C5    O7    A    
C1    O3    A    
C5    C17   S    
O17   H7    S    
C2    O4    A    
O24   H12   S    
S1    O16   D    
O10   H2    S    
C15   C17   A    
C3    O21   S    
S2    O18   D    
N5    O23   S    
Cu2   O2    S    
C1    C3    S    
C10   O12   S    
O13   H5    S    
Cu1   O1    S    
C4    O22   S    
C16   C18   A    
C8    C18   A    
C3    C4    D    
C6    O6    A    
N2    N4    A    
C7    C17   A    
S2    O20   S    
C5    O5    A    
