data_str_m2_o4_o14_f0_pcu.sym.63
_audit_creation_date              2012-10-26T19:35:16-0400
_audit_creation_method            fapswitch 2.2
_symmetry_space_group_name_H-M    P1
_symmetry_Int_Tables_number       1
_space_group_crystal_system       triclinic
_cell_length_a                    10.827456
_cell_length_b                    10.866583
_cell_length_c                    9.635416
_cell_angle_alpha                 89.737007
_cell_angle_beta                  91.229623
_cell_angle_gamma                 92.773554
_cell_volume                      1132.08253863

loop_
_atom_site_label
_atom_site_type_symbol
_atom_type_description
_atom_site_fract_x
_atom_site_fract_y
_atom_site_fract_z
_atom_type_partial_charge
C1    C     C_R   0.494771 0.262806 0.500119 0.541347
C2    C     C_R   0.453695 0.935449 0.381603 -0.175264
C3    C     C_R   0.489862 0.871274 0.500995 0.001498
C4    C     C_R   0.262946 0.509619 0.499554 0.530192
C5    C     C_R   0.517160 0.937867 0.622487 0.006180
C6    C     C_3   0.449364 0.925074 0.755037 -0.253003
C7    C     C_3   0.435027 0.062800 0.752714 -0.106573
C8    C     C_R   0.598083 0.551303 0.073598 0.165428
C9    C     C_R   0.414173 0.429109 0.069801 0.111564
C10   C     C_R   0.413448 0.433628 0.921545 0.014131
C11   C     C_R   0.600843 0.544507 0.927738 0.131962
C12   C     C_R   0.065168 0.531191 0.627348 0.021227
C13   C     C_3   0.667640 0.665102 0.909964 -0.251831
C14   C     C_3   0.655828 0.681156 0.066647 -0.019290
C15   C     C_R   0.495534 0.737384 0.499999 0.545507
C16   C     C_R   0.736883 0.488880 0.502188 0.563563
C17   C     C_R   0.120662 0.587988 0.746333 -0.101017
C18   C     C_R   0.063372 0.577873 0.874095 -0.148399
C19   C     C_R   0.956451 0.502704 0.886879 -0.141502
C20   C     C_R   0.896124 0.453385 0.768222 0.008148
C21   C     C_R   0.941485 0.485401 0.634593 0.011269
C22   C     C_3   0.299840 0.098876 0.729696 -0.279842
C23   C     C_R   0.128176 0.518080 0.501264 -0.006804
C24   C     C_3   0.219467 0.062204 0.853019 -0.452621
C25   C     C_3   0.325897 0.332382 0.131971 -0.255618
C26   C     C_3   0.192257 0.343187 0.080530 -0.476576
C27   C     C_1   0.777849 0.693150 0.137317 0.189911
C28   C     C_3   0.574346 0.789271 0.099910 -0.257269
C29   C     C_3   0.435972 0.767600 0.061734 -0.439439
C30   C     C_1   0.804343 0.354164 0.788154 0.212990
C31   C     C_R   0.060243 0.493170 0.379315 -0.151581
C32   C     C_R   0.933109 0.475883 0.381701 -0.133164
C33   C     C_R   0.871366 0.475664 0.507913 -0.010037
C34   C     C_R   0.510081 0.065244 0.623229 0.052125
C35   C     C_R   0.488108 0.129565 0.500427 0.008372
C36   C     C_R   0.458814 0.063514 0.378769 -0.164502
Cu1   Cu    Cu3+1 0.499990 0.499980 0.640670 0.934965
Cu2   Cu    Cu3+1 0.500010 0.500020 0.359330 0.928542
H1    H     H_    0.105310 0.489540 0.281478 0.136764
H2    H     H_    0.883093 0.463529 0.283814 0.149917
H3    H     H_    0.434725 0.110134 0.283291 0.124180
H4    H     H_    0.416840 0.886988 0.292335 0.130128
H5    H     H_    0.362439 0.866718 0.744327 0.139006
H6    H     H_    0.264145 0.094849 0.951550 0.146186
H7    H     H_    0.203817 0.960594 0.858724 0.151988
H8    H     H_    0.128105 0.103692 0.840830 0.149733
H9    H     H_    0.298303 0.200155 0.715098 0.161361
H10   H     H_    0.258666 0.054490 0.634494 0.160351
H11   H     H_    0.169125 0.440980 0.076927 0.152350
H12   H     H_    0.512170 0.898773 0.839923 0.121256
H13   H     H_    0.177931 0.304171 0.975005 0.145577
H14   H     H_    0.128189 0.291647 0.150928 0.141731
H15   H     H_    0.356858 0.240558 0.102171 0.103000
H16   H     H_    0.325700 0.332186 0.244896 0.217343
H17   H     H_    0.421689 0.724062 0.958530 0.151007
H18   H     H_    0.388591 0.708090 0.139864 0.189451
H19   H     H_    0.390603 0.857054 0.058007 0.115973
H20   H     H_    0.587372 0.812617 0.210337 0.182722
H21   H     H_    0.611169 0.872595 0.044535 0.125276
H22   H     H_    0.483975 0.111717 0.840615 0.158813
H23   H     H_    0.344832 0.380615 0.861239 0.129312
H24   H     H_    0.763305 0.654759 0.874310 0.129428
H25   H     H_    0.615704 0.728613 0.843798 0.154064
H26   H     H_    0.206813 0.642400 0.741107 0.134337
H27   H     H_    0.106428 0.621707 0.964724 0.120647
H28   H     H_    0.920975 0.482590 0.989274 0.116852
N1    N     N_R   0.500790 0.500930 0.147930 -0.240106
N2    N     N_R   0.500790 0.500890 0.852020 -0.252543
N3    N     N_1   0.873852 0.704134 0.192083 -0.326749
N4    N     N_1   0.731380 0.274359 0.804720 -0.305248
O1    O     O_R   0.500000 0.319640 0.618810 -0.487442
O2    O     O_R   0.500010 0.319680 0.381230 -0.528323
O3    O     O_R   0.319640 0.499980 0.618820 -0.522817
O4    O     O_R   0.319650 0.500020 0.381230 -0.526034
O5    O     O_R   0.499990 0.680320 0.618770 -0.513329
O6    O     O_R   0.500000 0.680360 0.381190 -0.509855
O7    O     O_R   0.680350 0.499980 0.618770 -0.488944
O8    O     O_R   0.680360 0.500020 0.381180 -0.491954

loop_
_geom_bond_atom_site_label_1
_geom_bond_atom_site_label_2
_ccdc_geom_bond_type
C15   O5    A    
C22   H10   S    
C35   C36   A    
C9    C25   S    
C20   C30   S    
C18   H27   S    
C12   C23   A    
C1    O1    A    
C24   H7    S    
C28   C29   S    
C25   H15   S    
C16   O7    A    
C17   H26   S    
C5    C6    S    
C21   C33   A    
Cu1   N2    S    
C19   H28   S    
C34   C35   A    
C13   H24   S    
C19   C20   A    
C12   C17   A    
C14   C27   S    
C9    C10   A    
C4    O4    A    
C27   N3    T    
C15   O6    A    
Cu1   O5    S    
C13   C14   S    
C36   H3    S    
C30   N4    T    
Cu2   O2    S    
C1    O2    A    
C25   H16   S    
C26   H11   S    
C4    C23   S    
C18   C19   A    
Cu2   O6    S    
C29   H17   S    
C25   C26   S    
Cu1   O7    S    
C12   C21   A    
C23   C31   A    
C9    N1    A    
Cu1   Cu2   S    
C26   H14   S    
C16   C33   S    
C31   C32   A    
C13   H25   S    
C5    C34   A    
C20   C21   A    
C17   C18   A    
C6    H12   S    
C4    O3    A    
C29   H19   S    
C28   H20   S    
C6    H5    S    
Cu1   O1    S    
C24   H6    S    
C7    C34   S    
C22   C24   S    
C10   H23   S    
C7    H22   S    
C3    C15   S    
C11   N2    A    
C1    C35   S    
Cu2   O4    S    
C28   H21   S    
C2    C36   A    
Cu1   O3    S    
C8    C14   S    
C3    C5    A    
C6    C7    S    
C29   H18   S    
C10   N2    A    
C7    C22   S    
Cu2   O8    S    
C24   H8    S    
C32   C33   A    
C2    C3    A    
C26   H13   S    
C11   C13   S    
C2    H4    S    
C8    C11   A    
C31   H1    S    
C22   H9    S    
C16   O8    A    
C32   H2    S    
Cu2   N1    S    
C8    N1    A    
C14   C28   S    
