data_str_m9_o18_o28_f0_sra.sym.18
_audit_creation_date              2012-12-11T15:34:50-0500
_audit_creation_method            fapswitch 2.2
_symmetry_space_group_name_H-M    P1
_symmetry_Int_Tables_number       1
_space_group_crystal_system       triclinic
_cell_length_a                    30.607083
_cell_length_b                    7.247455
_cell_length_c                    25.987602
_cell_angle_alpha                 90.000246
_cell_angle_beta                  112.093001
_cell_angle_gamma                 90.0
_cell_volume                      5341.38715806

loop_
_atom_site_label
_atom_site_type_symbol
_atom_type_description
_atom_site_fract_x
_atom_site_fract_y
_atom_site_fract_z
_atom_type_partial_charge
O1    O     O_R   0.295360 0.592990 0.320420 -0.534320
O2    O     O_R   0.704640 0.407010 0.679580 -0.534320
O3    O     O_R   0.204640 0.092990 0.179580 -0.534323
O4    O     O_R   0.795360 0.907010 0.820420 -0.534324
O5    O     O_R   0.294060 0.265620 0.213230 -0.532093
O6    O     O_R   0.705940 0.734380 0.786770 -0.532093
O7    O     O_R   0.205940 0.765620 0.286770 -0.532088
O8    O     O_R   0.794060 0.234380 0.713230 -0.532088
C1    C     C_R   0.304888 0.432692 0.200416 0.689931
C2    C     C_R   0.695112 0.567307 0.799583 0.689931
C3    C     C_R   0.195112 0.932693 0.299583 0.689939
C4    C     C_R   0.804888 0.067307 0.700417 0.689940
O9    O     O_R   0.300850 0.263360 0.322080 -0.533729
O10   O     O_R   0.699150 0.736640 0.677920 -0.533729
O11   O     O_R   0.199150 0.763360 0.177920 -0.533729
O12   O     O_R   0.800850 0.236640 0.822080 -0.533730
O13   O     O_R   0.211480 0.091820 0.289210 -0.536813
O14   O     O_R   0.788520 0.908180 0.710790 -0.536814
O15   O     O_R   0.288520 0.591820 0.210790 -0.536812
O16   O     O_R   0.711480 0.408180 0.789210 -0.536812
C5    C     C_R   0.313290 0.431474 0.343174 0.678829
C6    C     C_R   0.686710 0.568526 0.656826 0.678829
C7    C     C_R   0.186710 0.931473 0.156826 0.678824
C8    C     C_R   0.813290 0.068526 0.843174 0.678825
O17   O     O_3   0.220670 0.426670 0.239090 -0.363450
O18   O     O_3   0.779330 0.573330 0.760910 -0.363450
O19   O     O_3   0.279330 0.926670 0.260910 -0.363452
O20   O     O_3   0.720670 0.073330 0.739090 -0.363452
V1    V     V_3+5 0.255440 0.152290 0.252020 1.479612
V2    V     V_3+5 0.744560 0.847710 0.747980 1.479612
V3    V     V_3+5 0.244560 0.652290 0.247980 1.479618
V4    V     V_3+5 0.755440 0.347710 0.752020 1.479618
C9    C     C_R   0.850310 0.063687 0.899395 -0.040255
C10   C     C_R   0.149690 0.936313 0.100605 -0.040255
C11   C     C_R   0.649690 0.563682 0.600605 -0.040253
C12   C     C_R   0.350310 0.436318 0.399395 -0.040254
C13   C     C_R   0.873975 0.127575 0.997420 -0.142380
C14   C     C_R   0.126025 0.872425 0.002580 -0.142380
C15   C     C_R   0.626027 0.627538 0.502579 -0.142378
C16   C     C_R   0.373973 0.372462 0.497421 -0.142378
C17   C     C_R   0.839096 0.118466 0.944415 -0.159682
C18   C     C_R   0.160904 0.881534 0.055585 -0.159681
C19   C     C_R   0.660906 0.618438 0.555584 -0.159680
C20   C     C_R   0.339094 0.381561 0.444416 -0.159680
C21   C     C_R   0.897203 0.018452 0.907747 -0.199549
C22   C     C_R   0.102797 0.981548 0.092253 -0.199549
C23   C     C_R   0.602796 0.518460 0.592254 -0.199544
C24   C     C_R   0.397204 0.481540 0.407746 -0.199544
C25   C     C_R   0.933844 0.029999 0.961482 0.084964
C26   C     C_R   0.066156 0.970001 0.038518 0.084964
C27   C     C_R   0.566156 0.529996 0.538518 0.084963
C28   C     C_R   0.433844 0.470004 0.461482 0.084963
C29   C     C_R   0.921017 0.085316 0.006298 0.125628
C30   C     C_R   0.078983 0.914684 0.993702 0.125628
C31   C     C_R   0.578984 0.585291 0.493701 0.125628
C32   C     C_R   0.421016 0.414709 0.506298 0.125628
C33   C     C_R   0.982602 0.991314 0.972305 0.054762
C34   C     C_R   0.017398 0.008685 0.027694 0.054762
C35   C     C_R   0.517398 0.491321 0.527695 0.054762
C36   C     C_R   0.482602 0.508679 0.472305 0.054762
C37   C     C_R   0.002242 0.063523 0.070383 -0.172402
C38   C     C_R   0.997758 0.936477 0.929617 -0.172402
C39   C     C_R   0.497760 0.563495 0.429616 -0.172398
C40   C     C_R   0.502240 0.436505 0.570384 -0.172398
C41   C     C_R   0.955154 0.100491 0.059777 -0.178824
C42   C     C_R   0.044846 0.899508 0.940223 -0.178824
C43   C     C_R   0.544848 0.600454 0.440222 -0.178823
C44   C     C_R   0.455152 0.399546 0.559778 -0.178823
H1    H     H_    0.945370 0.142756 0.094020 0.143950
H2    H     H_    0.054630 0.857244 0.905980 0.143950
H3    H     H_    0.554633 0.642701 0.405978 0.143946
H4    H     H_    0.445367 0.357298 0.594022 0.143946
H5    H     H_    0.096152 0.020461 0.128647 0.104161
H6    H     H_    0.903848 0.979539 0.871352 0.104161
H7    H     H_    0.403849 0.520437 0.371351 0.104163
H8    H     H_    0.596151 0.479563 0.628649 0.104163
H9    H     H_    0.196802 0.844506 0.061609 0.117055
H10   H     H_    0.803198 0.155494 0.938390 0.117055
H11   H     H_    0.303196 0.344544 0.438392 0.117051
H12   H     H_    0.696804 0.655456 0.561608 0.117051
H13   H     H_    0.864213 0.170512 0.031605 0.134015
H14   H     H_    0.135786 0.829488 0.968395 0.134015
H15   H     H_    0.635789 0.670457 0.468393 0.134012
H16   H     H_    0.364211 0.329543 0.531607 0.134012
H17   H     H_    0.026005 0.079960 0.112869 0.135946
H18   H     H_    0.973995 0.920040 0.887130 0.135946
H19   H     H_    0.473997 0.579921 0.387129 0.135947
H20   H     H_    0.526003 0.420079 0.612871 0.135947
C45   C     C_R   0.092811 0.971279 0.479251 0.571609
C46   C     C_R   0.907189 0.028720 0.520749 0.571608
C47   C     C_R   0.407186 0.471464 0.020749 0.571612
C48   C     C_R   0.592814 0.528535 0.979250 0.571612
N1    N     N_R   0.072572 0.960487 0.422773 -0.552185
N2    N     N_R   0.927427 0.039512 0.577227 -0.552185
N3    N     N_R   0.427425 0.460494 0.077225 -0.552191
N4    N     N_R   0.572575 0.539506 0.922775 -0.552191
C49   C     C_R   0.024789 0.962726 0.395635 0.573648
C50   C     C_R   0.975211 0.037274 0.604365 0.573648
C51   C     C_R   0.475209 0.462555 0.104360 0.573654
C52   C     C_R   0.524791 0.537445 0.895640 0.573654
C53   C     C_R   0.994329 0.981279 0.425397 -0.068740
C54   C     C_R   0.005671 0.018720 0.574603 -0.068740
C55   C     C_R   0.505671 0.481070 0.074599 -0.068742
C56   C     C_R   0.494329 0.518929 0.925401 -0.068742
C57   C     C_R   0.014713 0.991418 0.484347 -0.012999
C58   C     C_R   0.985287 0.008581 0.515652 -0.013000
C59   C     C_R   0.485286 0.491420 0.015652 -0.012995
C60   C     C_R   0.514714 0.508580 0.984348 -0.012995
C61   C     C_R   0.064583 0.984358 0.511929 -0.067673
C62   C     C_R   0.935417 0.015641 0.488071 -0.067673
C63   C     C_R   0.435414 0.484574 0.988072 -0.067678
C64   C     C_R   0.564586 0.515426 0.011928 -0.067678
C65   C     C_R   0.944450 0.990950 0.398144 -0.114523
C66   C     C_R   0.055550 0.009049 0.601855 -0.114523
C67   C     C_R   0.555554 0.490498 0.101850 -0.114526
C68   C     C_R   0.444446 0.509501 0.898150 -0.114526
C69   C     C_R   0.915398 0.008307 0.429056 -0.115659
C70   C     C_R   0.084601 0.991692 0.570944 -0.115659
C71   C     C_R   0.584607 0.507853 0.070940 -0.115663
C72   C     C_R   0.415393 0.492147 0.929060 -0.115663
O21   O     O_2   0.140275 0.972078 0.503239 -0.514063
O22   O     O_2   0.859725 0.027922 0.496761 -0.514064
O23   O     O_2   0.359722 0.472402 0.996766 -0.514061
O24   O     O_2   0.640278 0.527598 0.003234 -0.514061
O25   O     O_2   0.007194 0.945854 0.339871 -0.513178
O26   O     O_2   0.992806 0.054146 0.660128 -0.513178
O27   O     O_2   0.492802 0.445549 0.160120 -0.513174
O28   O     O_2   0.507198 0.554451 0.839880 -0.513174
C73   C     C_R   0.895972 0.897745 0.642485 -0.127234
C74   C     C_R   0.104028 0.102255 0.357515 -0.127234
C75   C     C_R   0.604019 0.397765 0.857503 -0.127239
C76   C     C_R   0.395981 0.602234 0.142497 -0.127238
H21   H     H_    0.917683 0.777687 0.644416 0.129347
H22   H     H_    0.082317 0.222313 0.355585 0.129347
H23   H     H_    0.582299 0.277726 0.855562 0.129341
H24   H     H_    0.417700 0.722274 0.144438 0.129341
C77   C     C_R   0.866823 0.901633 0.673179 -0.090784
C78   C     C_R   0.133177 0.098367 0.326821 -0.090783
C79   C     C_R   0.633168 0.401655 0.826809 -0.090782
C80   C     C_R   0.366832 0.598345 0.173190 -0.090782
C81   C     C_R   0.837975 0.058111 0.670355 -0.093737
C82   C     C_R   0.162025 0.941889 0.329644 -0.093738
C83   C     C_R   0.662025 0.558113 0.829645 -0.093729
C84   C     C_R   0.337975 0.441887 0.170355 -0.093729
C85   C     C_R   0.840549 0.208843 0.637308 -0.180668
C86   C     C_R   0.159450 0.791157 0.362692 -0.180667
C87   C     C_R   0.659461 0.708824 0.862706 -0.180672
C88   C     C_R   0.340539 0.291176 0.137294 -0.180671
H25   H     H_    0.819202 0.330719 0.634117 0.141803
H26   H     H_    0.180797 0.669280 0.365883 0.141802
H27   H     H_    0.680816 0.830684 0.865906 0.141782
H28   H     H_    0.319184 0.169316 0.134094 0.141782
C89   C     C_R   0.869911 0.203375 0.607025 -0.084803
C90   C     C_R   0.130089 0.796625 0.392975 -0.084803
C91   C     C_R   0.630101 0.703351 0.892991 -0.084811
C92   C     C_R   0.369899 0.296649 0.107009 -0.084810
H29   H     H_    0.871007 0.320509 0.581671 0.128904
H30   H     H_    0.128993 0.679490 0.418329 0.128903
H31   H     H_    0.629014 0.820465 0.918356 0.128896
H32   H     H_    0.370986 0.179534 0.081644 0.128895
C93   C     C_R   0.897591 0.047380 0.609143 0.374236
C94   C     C_R   0.102409 0.952619 0.390856 0.374236
C95   C     C_R   0.602411 0.547377 0.890858 0.374264
C96   C     C_R   0.397589 0.452623 0.109141 0.374263
C97   C     C_1   0.921712 0.985646 0.337881 0.419130
N5    N     N_1   0.903341 0.981581 0.289975 -0.280779
C98   C     C_1   0.078288 0.014352 0.662119 0.419129
N6    N     N_1   0.096659 0.018416 0.710025 -0.280778
C99   C     C_1   0.578296 0.484918 0.162111 0.419126
N7    N     N_1   0.596669 0.480631 0.210014 -0.280772
C100  C     C_1   0.421704 0.515081 0.837889 0.419127
N8    N     N_1   0.403331 0.519368 0.789985 -0.280772
C101  C     C_1   0.864704 0.020632 0.398555 0.419251
N9    N     N_1   0.824429 0.030420 0.373968 -0.272185
C102  C     C_1   0.135295 0.979366 0.601445 0.419251
N10   N     N_1   0.175570 0.969578 0.626031 -0.272184
C103  C     C_1   0.635305 0.519900 0.101441 0.419253
N11   N     N_1   0.675584 0.529465 0.126027 -0.272185
C104  C     C_1   0.364695 0.480100 0.898559 0.419253
N12   N     N_1   0.324416 0.470535 0.873973 -0.272185
C105  C     C_1   0.868830 0.745153 0.708416 0.309677
N13   N     N_1   0.870672 0.619448 0.736624 -0.333759
C106  C     C_1   0.131170 0.254847 0.291585 0.309676
N14   N     N_1   0.129328 0.380553 0.263377 -0.333759
C107  C     C_1   0.631153 0.245198 0.791561 0.309685
N15   N     N_1   0.629305 0.119512 0.763343 -0.333755
C108  C     C_1   0.368847 0.754802 0.208439 0.309685
N16   N     N_1   0.370695 0.880488 0.236656 -0.333755

loop_
_geom_bond_atom_site_label_1
_geom_bond_atom_site_label_2
_ccdc_geom_bond_type
O17   V3    S    
C51   C55   A    
C100  N8    T    
C25   C29   A    
O1    C5    A    
C97   N5    T    
O19   V1    S    
C53   C65   A    
C99   N7    T    
C82   C86   A    
O3    C7    A    
C10   C18   A    
C48   N4    A    
C67   C99   S    
C11   C23   A    
C11   C19   A    
C107  N15   T    
C25   C33   A    
C66   C98   S    
C5    C12   S    
C105  N13   T    
O7    C3    A    
C6    C11   S    
C38   H18   S    
C35   C40   A    
C26   C30   A    
N4    C52   A    
C36   C39   A    
C40   C44   A    
O9    V1    S    
C72   C104  S    
C23   H8    S    
C14   C18   A    
C24   C28   A    
C75   H23   S    
C48   O24   S    
C65   C97   S    
O4    C8    A    
N3    C51   A    
C76   H24   S    
C44   H4    S    
C77   C105  S    
N2    C50   A    
C45   C61   A    
C56   C60   A    
O1    V3    S    
O13   V1    S    
C4    C81   S    
O2    V4    S    
C47   C63   A    
O3    V1    S    
C16   H16   S    
C57   C61   A    
C28   C36   A    
C56   C68   A    
C79   C83   A    
C1    O15   A    
C52   C56   A    
C15   C31   A    
C76   C80   A    
C2    O16   A    
C16   C32   A    
C86   C90   A    
O2    C6    A    
C59   C60   A    
C54   C58   A    
C10   C22   A    
C75   C95   A    
C87   C91   A    
C43   H3    S    
C81   C85   A    
C13   C29   A    
C74   C94   A    
C34   C37   A    
O11   C7    A    
O15   V3    S    
C35   C36   A    
O12   C8    A    
C47   O23   S    
C14   H14   S    
C45   N1    A    
C46   O22   S    
C24   H7    S    
C13   H13   S    
C74   H22   S    
O10   V2    S    
C62   C69   A    
C1    C84   S    
C61   C70   A    
C46   N2    A    
O5    V1    S    
C53   C57   A    
C39   C43   A    
O7    V3    S    
C38   C42   A    
C91   H31   S    
C26   C34   A    
C80   C84   A    
C33   C38   A    
C49   O25   S    
C78   C82   A    
C98   N6    T    
O18   V4    S    
C48   C64   A    
C15   C19   A    
C91   C95   A    
C19   H12   S    
C32   C44   A    
C47   N3    A    
O4    V2    S    
C68   C72   A    
C68   C100  S    
C89   C93   A    
C21   H6    S    
O8    V4    S    
C55   C67   A    
C106  N14   T    
C76   C96   A    
O5    C1    A    
C9    C21   A    
C54   C66   A    
C37   C41   A    
C31   C43   A    
C102  N10   T    
C14   C30   A    
C21   C25   A    
O8    C4    A    
C7    C10   S    
O9    C5    A    
O11   V3    S    
C78   C106  S    
N2    C93   S    
C66   C70   A    
C37   H17   S    
C51   O27   S    
O6    V2    S    
C70   C102  S    
C83   C87   A    
C67   C71   A    
O14   V2    S    
C65   C69   A    
C12   C20   A    
C27   C35   A    
C46   C62   A    
C74   C78   A    
N1    C49   A    
C17   H10   S    
C29   C41   A    
O16   V4    S    
C50   O26   S    
C69   C101  S    
C77   C81   A    
C3    O13   A    
C73   H21   S    
C39   H19   S    
C52   O28   S    
C80   C108  S    
C59   C63   A    
C90   C94   A    
C20   H11   S    
C88   H28   S    
O6    C2    A    
C64   C71   A    
C23   C27   A    
C86   H26   S    
C30   C42   A    
C92   H32   S    
O12   V4    S    
C88   C92   A    
C57   C58   A    
C22   C26   A    
C8    C9    S    
N4    C95   S    
C9    C17   A    
C13   C17   A    
O10   C6    A    
O20   V2    S    
C85   C89   A    
C108  N16   T    
C50   C54   A    
N3    C96   S    
C33   C34   A    
C42   H2    S    
C45   O21   S    
N1    C94   S    
C41   H1    S    
C87   H27   S    
C73   C93   A    
C12   C24   A    
C27   C31   A    
C2    C83   S    
C89   H29   S    
C3    C82   S    
C85   H25   S    
C15   H15   S    
C75   C79   A    
C101  N9    T    
C104  N12   T    
C60   C64   A    
C16   C20   A    
C73   C77   A    
C92   C96   A    
C18   H9    S    
C58   C62   A    
C103  N11   T    
C4    O14   A    
C90   H30   S    
C63   C72   A    
C55   C59   A    
C71   C103  S    
C79   C107  S    
C40   H20   S    
C22   H5    S    
C49   C53   A    
C28   C32   A    
C84   C88   A    
