data_str_m2_o1_o7_f0_pcu.sym.88
_audit_creation_date              2013-03-05T16:07:16-0500
_audit_creation_method            fapswitch 2.2
_symmetry_space_group_name_H-M    P1
_symmetry_Int_Tables_number       1
_space_group_crystal_system       triclinic
_cell_length_a                    10.892712
_cell_length_b                    9.91066
_cell_length_c                    17.572339
_cell_angle_alpha                 90.197033
_cell_angle_beta                  95.790731
_cell_angle_gamma                 89.465886
_cell_volume                      1887.23539032

loop_
_atom_site_label
_atom_site_type_symbol
_atom_site_description
_atom_site_fract_x
_atom_site_fract_y
_atom_site_fract_z
_atom_type_partial_charge
O1    O     O_R   0.319640 0.618740 0.499990 -0.561443
O2    O     O_R   0.680360 0.381260 0.500010 -0.535266
O3    O     O_R   0.680360 0.618740 0.500010 -0.553447
O4    O     O_R   0.319640 0.381260 0.499990 -0.547936
C1    C     C_R   0.263875 0.500276 0.504072 0.834728
C2    C     C_R   0.736729 0.498894 0.498743 0.860840
O5    O     O_R   0.500000 0.618830 0.391250 -0.567440
O6    O     O_R   0.500000 0.381170 0.608750 -0.599080
O7    O     O_R   0.500000 0.618830 0.608750 -0.571889
O8    O     O_R   0.500000 0.381170 0.391250 -0.607826
C3    C     C_R   0.068035 0.378104 0.521127 0.242531
C4    C     C_R   0.934031 0.613482 0.478345 0.189648
C5    C     C_R   0.940440 0.378627 0.520898 0.252561
C6    C     C_R   0.061561 0.621980 0.502010 0.181286
C7    C     C_R   0.501051 0.499790 0.356644 0.806505
C8    C     C_R   0.498225 0.500297 0.643204 0.795682
Cu1   Cu    Cu3+1 0.500000 0.640660 0.500000 0.997924
Cu2   Cu    Cu3+1 0.500000 0.359340 0.500000 0.999385
C9    C     C_R   0.871739 0.495833 0.497904 -0.334470
C10   C     C_R   0.129803 0.499987 0.509902 -0.320464
N1    N     N_R   0.500000 0.852070 0.500000 -0.182656
N2    N     N_R   0.500000 0.147930 0.500000 -0.176361
C11   C     C_R   0.585432 0.565936 0.851503 0.337014
C12   C     C_R   0.588839 0.409677 0.161368 0.307251
C13   C     C_R   0.417607 0.574092 0.148710 0.339648
C14   C     C_R   0.400415 0.423935 0.837046 0.299219
C15   C     C_R   0.583900 0.569283 0.772159 -0.264674
C16   C     C_R   0.588477 0.416262 0.240917 -0.215398
C17   C     C_R   0.419625 0.577423 0.228068 -0.272178
C18   C     C_R   0.402472 0.429297 0.757627 -0.217287
H1    H     H_    0.656276 0.620953 0.746906 0.164268
H2    H     H_    0.654978 0.357573 0.277312 0.191181
H3    H     H_    0.351750 0.637700 0.253597 0.167777
H4    H     H_    0.332273 0.378018 0.720529 0.213460
C19   C     C_R   0.494126 0.500651 0.725559 -0.123785
C20   C     C_R   0.503764 0.498742 0.274017 -0.106855
C21   C     C_R   0.472848 0.070775 0.433537 0.166938
C22   C     C_R   0.544678 0.926487 0.564309 0.204190
C23   C     C_R   0.524037 0.071421 0.566974 0.171109
C24   C     C_R   0.452246 0.926601 0.436461 0.190251
C25   C     C_R   0.493705 0.491754 0.884208 -0.136595
C26   C     C_R   0.501921 0.488893 0.115094 -0.137442
C27   C     C_1   0.496040 0.486383 0.965498 0.197523
C28   C     C_1   0.499183 0.485349 0.033731 0.201507
N3    N     N_R   0.680744 0.638043 0.897351 0.145629
O9    O     O_R   0.726835 0.746941 0.870845 -0.323498
O10   O     O_R   0.731923 0.587913 0.961285 -0.268421
N4    N     N_R   0.676109 0.320993 0.129353 0.146788
O11   O     O_R   0.719968 0.215973 0.167621 -0.310907
O12   O     O_R   0.720684 0.350069 0.065513 -0.275609
N5    N     N_R   0.329598 0.657919 0.103560 0.142974
O13   O     O_R   0.298732 0.775437 0.129286 -0.341060
O14   O     O_R   0.270278 0.612291 0.040924 -0.267194
N6    N     N_R   0.305524 0.346780 0.868065 0.146358
O15   O     O_R   0.253198 0.247409 0.828924 -0.286595
O16   O     O_R   0.262729 0.382051 0.931759 -0.270375
C29   C     C_3   0.472420 0.129524 0.353461 -0.299095
C30   C     C_3   0.342450 0.185300 0.321712 -0.339926
C31   C     C_3   0.324484 0.183926 0.234361 -0.751777
H5    H     H_    0.397158 0.243035 0.210508 0.261099
H6    H     H_    0.327586 0.078988 0.212280 0.275934
H7    H     H_    0.233276 0.229007 0.214306 0.269544
H8    H     H_    0.268079 0.124424 0.342998 0.229128
H9    H     H_    0.322029 0.287890 0.341727 0.241963
H10   H     H_    0.554237 0.191048 0.347591 0.222960
H11   H     H_    0.502769 0.051570 0.313715 0.164678
C32   C     C_3   0.605113 0.858862 0.638680 -0.323216
C33   C     C_3   0.730920 0.788341 0.637741 -0.436013
C34   C     C_3   0.816380 0.861881 0.589196 -0.513565
H12   H     H_    0.777362 0.864900 0.528526 0.283561
H13   H     H_    0.832181 0.966258 0.610432 0.275344
H14   H     H_    0.905682 0.807662 0.594433 0.260499
H15   H     H_    0.777988 0.786245 0.697075 0.229575
H16   H     H_    0.722263 0.681057 0.623016 0.233062
H17   H     H_    0.630016 0.930575 0.683931 0.167719
H18   H     H_    0.537105 0.806408 0.669734 0.211096
C35   C     C_3   0.507376 0.128243 0.646639 -0.306555
C36   C     C_3   0.630071 0.177581 0.692349 -0.334906
C37   C     C_3   0.627902 0.161166 0.778749 -0.736420
H19   H     H_    0.543682 0.207886 0.797896 0.261132
H20   H     H_    0.629788 0.052944 0.794815 0.269406
H21   H     H_    0.709889 0.210440 0.809275 0.277904
H22   H     H_    0.710788 0.121300 0.674804 0.245273
H23   H     H_    0.654206 0.282873 0.681634 0.252451
H24   H     H_    0.426234 0.195049 0.646544 0.250787
H25   H     H_    0.466590 0.048672 0.680450 0.172916
C38   C     C_3   0.382386 0.860083 0.364637 -0.381653
C39   C     C_3   0.262229 0.787058 0.376713 -0.337061
C40   C     C_3   0.154338 0.821028 0.316709 -0.711630
H26   H     H_    0.124020 0.927383 0.323185 0.285138
H27   H     H_    0.181384 0.805483 0.258086 0.272716
H28   H     H_    0.075777 0.753584 0.324175 0.283912
H29   H     H_    0.276732 0.676915 0.372555 0.216993
H30   H     H_    0.234449 0.816178 0.432966 0.301823
H31   H     H_    0.350738 0.932138 0.320410 0.194722
H32   H     H_    0.446048 0.805150 0.330827 0.218680
N7    N     N_R   0.133919 0.254828 0.539789 0.186478
O17   O     O_R   0.126298 0.154645 0.491583 -0.280974
O18   O     O_R   0.188845 0.237226 0.608270 -0.324249
N8    N     N_R   0.873631 0.705982 0.422516 0.136918
O19   O     O_R   0.791854 0.660092 0.369827 -0.344286
O20   O     O_R   0.912702 0.828045 0.414653 -0.290402
N9    N     N_R   0.882920 0.259060 0.545210 0.159728
O21   O     O_R   0.896588 0.226912 0.617253 -0.353941
O22   O     O_R   0.843325 0.168914 0.494802 -0.303034
N10   N     N_R   0.112536 0.741025 0.540857 0.124545
O23   O     O_R   0.182276 0.727350 0.605103 -0.320671
O24   O     O_R   0.078700 0.862299 0.519619 -0.266333

loop_
_geom_bond_atom_site_label_1
_geom_bond_atom_site_label_2
_geom_bond_distance
_ccdc_geom_bond_type
C38   C39   1.535128 S    
C11   N3    1.441779 S    
O2    Cu2   1.978578 S    
C12   C26   1.417429 A    
C29   H11   1.109996 S    
O3    C2    1.333135 A    
N7    O17   1.300699 A    
C1    C10   1.474303 S    
N3    O9    1.301748 A    
C2    C9    1.472219 S    
C17   C20   1.393440 A    
C18   C19   1.394195 A    
O1    C1    1.332361 A    
C23   C35   1.534167 S    
C24   C38   1.554482 S    
O7    C8    1.324623 A    
C21   C24   1.450330 A    
O8    C7    1.326098 A    
C8    C19   1.452357 S    
C22   C23   1.453146 A    
N10   O23   1.302327 A    
C33   H16   1.096090 S    
C17   H3    1.077780 S    
C34   H13   1.107542 S    
N6    O15   1.301741 A    
C36   H22   1.106157 S    
N1    C22   1.395626 A    
C33   C34   1.517441 S    
O5    Cu1   1.922460 S    
C38   H31   1.085346 S    
C11   C15   1.393180 A    
C5    N9    1.431995 S    
O4    Cu2   1.974552 S    
O5    C7    1.325891 A    
C35   H24   1.099266 S    
C31   H5    1.105817 S    
O6    C8    1.325826 A    
C13   C17   1.392744 A    
C25   C27   1.427280 S    
O2    C2    1.323987 A    
C26   C28   1.427354 S    
C14   N6    1.442720 S    
N7    O18   1.300270 A    
C39   H30   1.099424 S    
N3    O10   1.300805 A    
C30   H9    1.102742 S    
N6    O16   1.300684 A    
C3    C10   1.412186 A    
C31   H6    1.110188 S    
C18   H4    1.082743 S    
C15   H1    1.077212 S    
C32   C33   1.534043 S    
C12   N4    1.442772 S    
C6    C10   1.413204 A    
C16   H2    1.083177 S    
C37   H20   1.109504 S    
C5    C9    1.413704 A    
C36   C37   1.530069 S    
C15   C19   1.391557 A    
C33   H15   1.114673 S    
C35   C36   1.569501 S    
N2    C21   1.401633 A    
O6    Cu2   1.922460 S    
N5    O13   1.301386 A    
N5    O14   1.300768 A    
C34   H14   1.102710 S    
C27   C28   1.196117 T    
C13   N5    1.440449 S    
C38   H32   1.097331 S    
N8    O20   1.298566 A    
Cu1   Cu2   2.788067 S    
N9    O22   1.301327 A    
C39   C40   1.533399 S    
C40   H28   1.109149 S    
O7    Cu1   1.923939 S    
N4    O11   1.301719 A    
C4    C6    1.412490 A    
C35   H25   1.111430 S    
C14   C18   1.399220 A    
C32   H17   1.080364 S    
C7    C20   1.455230 S    
C30   H8    1.109947 S    
C39   H29   1.104738 S    
C31   H7    1.110411 S    
Cu2   N2    2.095214 S    
C12   C16   1.399560 A    
C29   H10   1.098087 S    
O4    C1    1.326750 A    
C13   C26   1.413137 A    
C37   H21   1.110599 S    
O1    Cu1   1.978578 S    
C11   C25   1.414773 A    
C3    N7    1.433237 S    
C30   C31   1.527696 S    
C3    C5    1.389416 A    
C29   C30   1.565012 S    
N1    C24   1.394319 A    
N10   O24   1.298757 A    
O8    Cu2   1.923939 S    
N2    C23   1.403152 A    
C4    C9    1.415129 A    
N4    O12   1.300765 A    
N8    O19   1.302218 A    
O3    Cu1   1.974553 S    
C34   H12   1.107563 S    
Cu1   N1    2.095213 S    
C4    N8    1.449284 S    
C37   H19   1.105656 S    
C36   H23   1.099973 S    
C6    N10   1.447909 S    
C22   C32   1.553917 S    
C16   C20   1.396048 A    
C40   H27   1.109504 S    
N9    O21   1.300075 A    
C32   H18   1.098865 S    
C40   H26   1.110544 S    
C21   C29   1.524218 S    
C14   C25   1.417807 A    
