data_str_m3_o14_o14_f0_pcu.sym.200
_audit_creation_date              2013-03-05T15:52:19-0500
_audit_creation_method            fapswitch 2.2
_symmetry_space_group_name_H-M    P1
_symmetry_Int_Tables_number       1
_space_group_crystal_system       triclinic
_cell_length_a                    14.646709
_cell_length_b                    15.401596
_cell_length_c                    9.984773
_cell_angle_alpha                 88.229464
_cell_angle_beta                  89.477211
_cell_angle_gamma                 90.301424
_cell_volume                      2251.18833256

loop_
_atom_site_label
_atom_site_type_symbol
_atom_site_description
_atom_site_fract_x
_atom_site_fract_y
_atom_site_fract_z
_atom_type_partial_charge
O1    O     O_R   0.408390 0.908380 0.614690 -0.543490
O2    O     O_R   0.408390 0.091620 0.614690 -0.605821
O3    O     O_R   0.908390 0.408380 0.614690 -0.543536
O4    O     O_R   0.908390 0.591620 0.614690 -0.605983
O5    O     O_R   0.408370 0.908380 0.385360 -0.636709
O6    O     O_R   0.408370 0.091620 0.385360 -0.648061
O7    O     O_R   0.908370 0.408380 0.385360 -0.636712
O8    O     O_R   0.908370 0.591620 0.385360 -0.648088
C1    C     C_R   0.380812 0.880033 0.501485 0.911222
C2    C     C_R   0.385292 0.123746 0.499183 0.907847
C3    C     C_R   0.880797 0.380050 0.501490 0.911294
C4    C     C_R   0.885320 0.623769 0.499183 0.908082
Zn1   Zn    Zn3+2 0.500010 0.000000 0.653130 0.989739
Zn2   Zn    Zn3+2 0.000010 0.500000 0.653130 0.989640
Zn3   Zn    Zn3+2 0.499980 1.000000 0.346870 0.957209
Zn4   Zn    Zn3+2 0.999980 0.500000 0.346870 0.957243
O9    O     O_R   0.591620 0.091610 0.614640 -0.634327
O10   O     O_R   0.591620 0.908390 0.614640 -0.623683
O11   O     O_R   0.091620 0.591610 0.614640 -0.634400
O12   O     O_R   0.091620 0.408390 0.614640 -0.623675
O13   O     O_R   0.591610 0.091610 0.385310 -0.608486
O14   O     O_R   0.591610 0.908390 0.385310 -0.619164
O15   O     O_R   0.091610 0.591610 0.385310 -0.608542
O16   O     O_R   0.091610 0.408390 0.385310 -0.619012
C5    C     C_R   0.620409 0.118805 0.498032 0.828024
C6    C     C_R   0.623750 0.884242 0.500886 0.822514
C7    C     C_R   0.120423 0.618787 0.498037 0.828028
C8    C     C_R   0.123727 0.384223 0.500883 0.822397
H1    H     H_    0.246182 0.141369 0.343174 0.202143
H2    H     H_    0.204163 0.899506 0.508299 0.206302
H3    H     H_    0.746717 0.641897 0.342283 0.202064
H4    H     H_    0.704130 0.399626 0.506971 0.206197
C9    C     C_R   0.418560 0.275003 0.664350 -0.205772
C10   C     C_R   0.441548 0.702490 0.487672 -0.168111
C11   C     C_R   0.918308 0.774747 0.665133 -0.205758
C12   C     C_R   0.941568 0.202417 0.489440 -0.167922
H5    H     H_    0.473740 0.228943 0.661613 0.161023
H6    H     H_    0.494099 0.751158 0.497787 0.127329
H7    H     H_    0.973529 0.728735 0.662378 0.161180
H8    H     H_    0.994090 0.251099 0.499688 0.127273
C13   C     C_R   0.429202 0.345311 0.747380 -0.111032
C14   C     C_R   0.468333 0.616677 0.470621 -0.066271
C15   C     C_R   0.928755 0.844862 0.748590 -0.111274
C16   C     C_R   0.968403 0.116540 0.473108 -0.066730
H9    H     H_    0.489980 0.350944 0.807467 0.170823
H10   H     H_    0.540158 0.600495 0.467317 0.185428
H11   H     H_    0.989405 0.850370 0.808980 0.170693
H12   H     H_    0.040239 0.100317 0.470463 0.184715
C17   C     C_R   0.862085 0.908538 0.752617 -0.127742
C18   C     C_R   0.902729 0.051830 0.458968 -0.089469
C19   C     C_R   0.362545 0.409006 0.751386 -0.127455
C20   C     C_R   0.402623 0.551979 0.456655 -0.089522
C21   C     C_R   0.784935 0.902549 0.672744 -0.205127
C22   C     C_R   0.810117 0.072646 0.463562 -0.203693
C23   C     C_R   0.285209 0.402840 0.671925 -0.205163
C24   C     C_R   0.310030 0.572743 0.462096 -0.204073
H13   H     H_    0.737568 0.955809 0.675744 0.156823
H14   H     H_    0.760887 0.021173 0.450355 0.126046
H15   H     H_    0.237800 0.456074 0.674928 0.156692
H16   H     H_    0.260770 0.521270 0.449058 0.126333
C25   C     C_R   0.772477 0.831419 0.587958 0.107569
C26   C     C_R   0.782062 0.158973 0.483185 0.092916
C27   C     C_R   0.272577 0.331530 0.587556 0.107471
C28   C     C_R   0.282033 0.659009 0.482385 0.092880
C29   C     C_R   0.339751 0.266733 0.584477 0.093947
C30   C     C_R   0.348062 0.724538 0.491832 0.080863
C31   C     C_R   0.839663 0.766632 0.584869 0.094100
C32   C     C_R   0.848067 0.224514 0.492721 0.080909
C33   C     C_R   0.326771 0.196888 0.497867 -0.101596
C34   C     C_R   0.317956 0.810658 0.503780 -0.076679
C35   C     C_R   0.826871 0.696968 0.497854 -0.101731
C36   C     C_R   0.817924 0.310695 0.503819 -0.076259
C37   C     C_R   0.254174 0.194186 0.410115 -0.157036
C38   C     C_R   0.226010 0.832543 0.505451 -0.082360
C39   C     C_R   0.754527 0.694514 0.409634 -0.157186
C40   C     C_R   0.725969 0.332627 0.504665 -0.082637
H17   H     H_    0.632306 0.752490 0.344050 0.193737
H18   H     H_    0.589818 0.285052 0.504547 0.140462
H19   H     H_    0.131788 0.252040 0.344850 0.193778
H20   H     H_    0.089875 0.784945 0.506014 0.140331
C41   C     C_R   0.689658 0.757320 0.411430 -0.207017
C42   C     C_R   0.661527 0.268160 0.501560 -0.204531
C43   C     C_R   0.189318 0.257016 0.411883 -0.206812
C44   C     C_R   0.161568 0.768083 0.502399 -0.204355
C45   C     C_R   0.696538 0.823718 0.502158 -0.112485
C46   C     C_R   0.689536 0.182465 0.493030 -0.072993
C47   C     C_R   0.196456 0.323650 0.502162 -0.112458
C48   C     C_R   0.189544 0.682447 0.493051 -0.073036
H21   H     H_    0.640702 0.976954 0.123194 0.144536
H22   H     H_    0.140711 0.476999 0.123190 0.144524
C49   C     C_R   0.336692 0.022916 0.144660 -0.238144
C50   C     C_R   0.836689 0.522900 0.144656 -0.238359
H23   H     H_    0.330665 0.005758 0.248411 0.236489
H24   H     H_    0.830676 0.505765 0.248415 0.236620
C51   C     C_R   0.258302 0.053350 0.081321 0.260564
C52   C     C_R   0.758289 0.553308 0.081314 0.260524
C53   C     C_R   0.260660 0.067026 0.943638 -0.288008
C54   C     C_R   0.760626 0.566925 0.943616 -0.288035
H25   H     H_    0.197233 0.083203 0.893902 0.224825
H26   H     H_    0.697193 0.583070 0.893872 0.224841
C55   C     C_R   0.331460 0.031176 0.868847 0.309306
C56   C     C_R   0.831438 0.531084 0.868840 0.309145
C57   C     C_R   0.418244 0.014482 0.929867 0.045013
C58   C     C_R   0.918235 0.514444 0.929865 0.045036
C59   C     C_R   0.419401 0.013388 0.074005 0.103219
C60   C     C_R   0.919396 0.513368 0.074002 0.103227
N1    N     N_R   0.498810 0.000000 0.142780 -0.103697
N2    N     N_R   0.998810 0.500000 0.142780 -0.103698
C61   C     C_R   0.577227 0.987264 0.070628 -0.067165
C62   C     C_R   0.077233 0.487289 0.070625 -0.067077
C63   C     C_R   0.577141 0.986905 0.928168 -0.075026
C64   C     C_R   0.077148 0.486934 0.928163 -0.075085
N3    N     N_R   0.498740 0.000000 0.857170 -0.115889
N4    N     N_R   0.998740 0.500000 0.857170 -0.115931
N5    N     N_R   0.297739 0.978672 0.765657 0.238101
O17   O     O_R   0.247179 0.014642 0.673046 -0.451888
O18   O     O_R   0.283592 0.896875 0.796565 -0.392054
N6    N     N_R   0.797734 0.478534 0.765689 0.238162
O19   O     O_R   0.747194 0.514450 0.673004 -0.451346
O20   O     O_R   0.783631 0.396735 0.796630 -0.391905
H27   H     H_    0.640491 0.976327 0.874949 0.135690
H28   H     H_    0.140503 0.476378 0.874931 0.135861
H29   H     H_    0.870897 0.963662 0.816046 0.160004
H30   H     H_    0.923514 0.985344 0.444804 0.161716
H31   H     H_    0.371496 0.464263 0.814500 0.160039
H32   H     H_    0.423368 0.485541 0.441974 0.161803
N7    N     N_R   0.173346 0.060099 0.153661 0.203217
O21   O     O_R   0.158021 0.012275 0.261410 -0.444197
O22   O     O_R   0.108220 0.109310 0.107136 -0.396105
N8    N     N_R   0.673350 0.560117 0.153691 0.203193
O23   O     O_R   0.658144 0.512552 0.261721 -0.444984
O24   O     O_R   0.608151 0.609175 0.107016 -0.396354

loop_
_geom_bond_atom_site_label_1
_geom_bond_atom_site_label_2
_geom_bond_distance
_ccdc_geom_bond_type
C43   C47   1.390849 A    
C27   C29   1.405920 A    
C11   C31   1.416426 A    
C23   H15   1.078143 S    
C63   H27   1.080647 S    
C49   C59   1.406920 A    
N8    O24   1.301514 A    
O10   C6    1.291524 A    
H20   C44   1.083578 S    
C10   C30   1.413024 A    
C58   C60   1.439018 A    
C9    C29   1.416393 A    
C12   C32   1.413215 A    
O7    C3    1.286988 A    
C59   N1    1.369375 A    
C18   C22   1.396138 A    
Zn1   O10   1.995709 S    
C57   N3    1.401364 A    
C61   C63   1.422627 A    
H2    C38   1.082569 S    
C17   C21   1.393316 A    
C28   C48   1.407711 A    
H1    C37   1.075269 S    
N5    O17   1.302126 A    
C17   H29   1.082638 S    
H21   C61   1.081812 S    
C50   C52   1.392329 A    
C14   H10   1.082828 S    
Zn3   N1    2.038021 S    
O2    Zn1   1.983719 S    
C25   C31   1.405939 A    
N6    O19   1.302133 A    
O6    Zn3   1.995819 S    
C21   C25   1.417091 A    
Zn3   O14   1.983709 S    
Zn1   N3    2.037208 S    
N2    C62   1.368475 A    
C10   C14   1.395631 A    
N5    O18   1.302822 A    
C52   C54   1.384451 A    
Zn4   O16   1.983709 S    
C34   C38   1.390045 A    
C24   C28   1.412554 A    
C33   C37   1.385229 A    
O15   C7    1.286891 A    
O4    C4    1.289593 A    
O11   C7    1.291408 A    
C31   C35   1.414068 A    
C56   N6    1.419902 S    
C36   C40   1.390284 A    
O8    Zn4   1.995819 S    
N1    C61   1.368456 A    
C64   N4    1.367590 A    
C53   H25   1.083950 S    
C41   C45   1.390825 A    
C62   C64   1.422649 A    
C19   H31   1.082624 S    
Zn2   O12   1.995709 S    
C12   H8    1.079131 S    
C18   H30   1.082894 S    
C1    C34   1.406238 S    
C63   N3    1.367592 A    
C40   C42   1.367575 A    
C21   H13   1.078061 S    
C3    C36   1.406162 S    
C15   C17   1.388805 A    
O12   C8    1.291520 A    
Zn2   N4    2.037208 S    
C9    H5    1.078892 S    
C24   H16   1.080760 S    
C23   C27   1.417038 A    
C32   C36   1.408304 A    
C28   C30   1.400028 A    
C11   H7    1.078871 S    
N7    O22   1.301571 A    
O5    C1    1.286951 A    
C54   C56   1.398288 A    
C49   H23   1.063930 S    
C26   C46   1.407868 A    
H18   C42   1.083743 S    
H3    C39   1.075244 S    
H17   C41   1.084688 S    
O8    C4    1.296262 A    
C8    C47   1.419578 S    
C50   H24   1.063909 S    
O1    C1    1.291659 A    
C57   C59   1.439015 A    
C56   C58   1.435636 A    
O3    Zn2   1.990535 S    
C25   C45   1.416824 A    
C58   N4    1.401357 A    
C50   C60   1.406897 A    
O7    Zn4   1.968866 S    
C4    C35   1.418987 S    
Zn4   O15   1.990522 S    
C54   H26   1.083948 S    
C55   N5    1.419857 S    
C12   C16   1.395742 A    
O1    Zn1   1.990535 S    
H22   C62   1.081814 S    
N7    O21   1.302017 A    
O2    C2    1.289579 A    
C11   C15   1.392888 A    
C52   N8    1.438966 S    
C22   H14   1.080734 S    
C16   C18   1.392693 A    
O13   C5    1.286877 A    
C20   H32   1.082855 S    
C27   C47   1.416729 A    
C10   H6    1.079127 S    
Zn2   O11   1.968755 S    
C39   C41   1.359840 A    
O16   C8    1.294869 A    
C38   C44   1.367479 A    
H4    C40   1.082808 S    
C51   C53   1.384413 A    
Zn1   O9    1.968755 S    
C22   C26   1.412586 A    
C64   H28   1.080710 S    
C26   C32   1.399989 A    
C9    C13   1.392924 A    
N8    O23   1.301865 A    
O9    C5    1.291461 A    
C16   H12   1.082969 S    
C42   C46   1.389070 A    
C35   C39   1.385186 A    
C30   C34   1.408160 A    
C44   C48   1.388812 A    
C60   N2    1.369407 A    
C6    C45   1.419732 S    
C29   C33   1.414033 A    
C5    C46   1.405190 S    
C13   C19   1.388860 A    
C19   C23   1.393373 A    
O4    Zn2   1.983719 S    
C7    C48   1.405109 S    
N6    O20   1.302826 A    
O5    Zn3   1.968866 S    
O3    C3    1.291586 A    
O6    C2    1.296230 A    
Zn4   N2    2.038021 S    
C49   C51   1.392303 A    
H19   C43   1.084734 S    
C2    C33   1.418912 S    
C51   N7    1.438916 S    
Zn3   O13   1.990522 S    
C55   C57   1.435591 A    
O14   C6    1.294946 A    
C13   H9    1.082624 S    
C15   H11   1.082601 S    
C37   C43   1.359957 A    
C53   C55   1.398295 A    
C20   C24   1.395977 A    
C14   C20   1.392703 A    
