data_str_m4_o14_o22_f0_acs.sym.36
_audit_creation_date              2012-12-11T14:23:09-0500
_audit_creation_method            fapswitch 2.2
_symmetry_space_group_name_H-M    P1
_symmetry_Int_Tables_number       1
_space_group_crystal_system       triclinic
_cell_length_a                    10.886607
_cell_length_b                    11.231402
_cell_length_c                    18.852947
_cell_angle_alpha                 90.619696
_cell_angle_beta                  90.224225
_cell_angle_gamma                 59.598623
_cell_volume                      1988.10589998

loop_
_atom_site_label
_atom_site_type_symbol
_atom_type_description
_atom_site_fract_x
_atom_site_fract_y
_atom_site_fract_z
_atom_type_partial_charge
C1    C     C_R   0.239927 0.643558 0.610715 0.525782
C2    C     C_R   0.637466 0.082607 0.698567 -0.005358
C3    C     C_R   0.630688 0.081993 0.772160 -0.138580
C4    C     C_R   0.625296 0.588320 0.609089 0.559536
C5    C     C_R   0.895978 0.186814 0.821856 -0.126566
C6    C     C_R   0.984392 0.225164 0.787704 -0.162454
C7    C     C_R   0.985640 0.231039 0.714024 -0.163491
C8    C     C_R   0.900753 0.195711 0.673850 -0.131698
C9    C     C_R   0.699638 0.149519 0.667505 0.021716
C10   C     C_R   0.191102 0.664088 0.837318 -0.021720
C11   C     C_R   0.223178 0.540145 0.802725 0.014280
C12   C     C_3   0.669705 0.533224 0.812875 -0.235923
C13   C     C_R   0.218146 0.535655 0.727096 0.006633
C14   C     C_R   0.172591 0.772109 0.724941 -0.048829
C15   C     C_R   0.181318 0.771569 0.797968 -0.143290
C16   C     C_R   0.632987 0.227096 0.602187 0.541919
C17   C     C_R   0.261829 0.420397 0.842276 -0.086265
C18   C     C_R   0.285369 0.299956 0.808948 -0.126535
C19   C     C_R   0.267396 0.297868 0.736232 -0.134533
C20   C     C_R   0.230458 0.414599 0.695798 -0.087914
C21   C     C_R   0.198216 0.653048 0.687036 0.000255
C22   C     C_R   0.705269 0.677456 0.178207 0.012535
C23   C     C_3   0.677931 0.665621 0.818375 0.053490
C24   C     C_R   0.820653 0.567354 0.217262 0.029724
C25   C     C_R   0.791386 0.525404 0.281730 0.038060
C26   C     C_R   0.539408 0.705618 0.270543 -0.162836
C27   C     C_R   0.566263 0.738192 0.203866 -0.139724
C28   C     C_R   0.222317 0.647417 0.401893 0.529103
C29   C     C_R   0.964172 0.490047 0.192147 -0.094907
C30   C     C_R   0.071905 0.378929 0.227316 -0.150766
C31   C     C_R   0.044082 0.338839 0.289881 -0.143928
C32   C     C_R   0.905697 0.402188 0.313233 -0.088576
C33   C     C_R   0.650394 0.606929 0.311675 0.000124
C34   C     C_3   0.638207 0.619298 0.685688 0.041806
C35   C     C_R   0.635424 0.158749 0.176441 0.006210
C36   C     C_R   0.554240 0.120598 0.220798 0.030570
C37   C     C_R   0.581152 0.109881 0.294034 0.026049
C38   C     C_R   0.700224 0.241248 0.277990 -0.146544
C39   C     C_R   0.704483 0.222302 0.205775 -0.152353
C40   C     C_R   0.619983 0.589379 0.385411 0.556148
C41   C     C_R   0.444321 0.097625 0.196312 -0.103279
C42   C     C_R   0.377421 0.051264 0.242010 -0.156712
C43   C     C_R   0.422272 0.019920 0.311785 -0.114759
C44   C     C_R   0.526578 0.045306 0.337399 -0.076028
C45   C     C_3   0.778394 0.622162 0.694313 -0.226120
C46   C     C_R   0.647992 0.178324 0.322873 0.005855
C47   C     C_R   0.142536 0.692029 0.186426 0.003578
C48   C     C_R   0.104009 0.808657 0.232330 0.040097
C49   C     C_R   0.086128 0.795127 0.304509 0.020992
C50   C     C_R   0.217219 0.545945 0.287794 -0.132949
C51   C     C_R   0.206034 0.561103 0.214865 -0.172141
C52   C     C_R   0.618603 0.228321 0.395342 0.521223
C53   C     C_R   0.089816 0.935768 0.210772 -0.081899
C54   C     C_R   0.035678 0.048525 0.256563 -0.150582
C55   C     C_R   0.998498 0.037667 0.325517 -0.116621
C56   C     C_3   0.642964 0.508339 0.734833 -0.249717
C57   C     C_R   0.018505 0.912935 0.348845 -0.079326
C58   C     C_R   0.158403 0.663160 0.332752 0.003876
C59   C     C_R   0.706746 0.093353 0.893020 0.539280
C60   C     C_R   0.716444 0.685773 0.891012 0.547814
C61   C     C_R   0.121698 0.704348 0.907286 0.533258
C62   C     C_R   0.672410 0.105806 0.104422 0.547229
C63   C     C_R   0.729685 0.710765 0.106394 0.554307
C64   C     C_3   0.531745 0.784011 0.791810 -0.236081
C65   C     C_R   0.092104 0.713341 0.113141 0.533625
C66   C     C_3   0.507153 0.754083 0.714231 -0.234622
C67   C     C_R   0.708400 0.121959 0.815986 -0.007808
C68   C     C_3   0.797328 0.656288 0.770061 -0.228812
C69   C     C_3   0.589521 0.000473 0.654736 -0.273526
C70   C     C_3   0.676169 0.933903 0.586728 -0.428336
C71   C     C_3   0.131335 0.905643 0.690115 -0.379741
C72   C     C_R   0.803156 0.157128 0.782834 0.014310
C73   C     C_R   0.801897 0.166466 0.707129 -0.008752
Cr1   Cr    Cr6+3 0.392940 0.397950 0.502230 0.989427
Cr2   Cr    Cr6+3 0.398400 0.708500 0.501260 0.983753
Cr3   Cr    Cr6+3 0.708640 0.393530 0.496460 0.966247
Cr4   Cr    Cr6+3 0.937880 0.938320 0.007620 0.998616
Cr5   Cr    Cr6+3 0.625560 0.937220 0.994510 0.994107
Cr6   Cr    Cr6+3 0.938080 0.625010 0.001190 0.983720
H1    H     H_    0.525824 0.884048 0.795013 0.114675
H2    H     H_    0.444655 0.792925 0.826296 0.119195
H3    H     H_    0.277700 0.418196 0.899064 0.126509
H4    H     H_    0.166456 0.863821 0.824781 0.148425
H5    H     H_    0.314870 0.208636 0.839817 0.112028
H6    H     H_    0.280919 0.205058 0.711199 0.089756
H7    H     H_    0.206021 0.408072 0.641060 0.146427
H8    H     H_    0.430937 0.758014 0.290260 0.136262
H9    H     H_    0.001411 0.504701 0.144054 0.188934
H10   H     H_    0.477639 0.810858 0.171864 0.136516
H11   H     H_    0.177106 0.321426 0.204614 0.108575
H12   H     H_    0.728534 0.412670 0.717357 0.169725
H13   H     H_    0.126947 0.249539 0.316940 0.120874
H14   H     H_    0.417159 0.736132 0.714416 0.143329
H15   H     H_    0.895277 0.341886 0.353702 0.143946
H16   H     H_    0.737511 0.306054 0.298856 0.126885
H17   H     H_    0.398934 0.125085 0.144000 0.141285
H18   H     H_    0.759644 0.258982 0.172813 0.129695
H19   H     H_    0.292261 0.037012 0.222546 0.101991
H20   H     H_    0.373378 0.979653 0.346604 0.127746
H21   H     H_    0.558159 0.021777 0.392360 0.124104
H22   H     H_    0.278338 0.442411 0.308660 0.161453
H23   H     H_    0.904508 0.575053 0.788611 0.152736
H24   H     H_    0.129125 0.949435 0.160915 0.140370
H25   H     H_    0.249703 0.471424 0.180275 0.112108
H26   H     H_    0.470598 0.843906 0.679392 0.119273
H27   H     H_    0.020843 0.144405 0.237096 0.118829
H28   H     H_    0.956907 0.124083 0.361810 0.110956
H29   H     H_    0.992400 0.905738 0.403462 0.116764
H30   H     H_    0.796517 0.755855 0.771609 0.121568
H31   H     H_    0.782710 0.695798 0.657559 0.128492
H32   H     H_    0.769394 0.446861 0.833189 0.151782
H33   H     H_    0.582222 0.541911 0.846975 0.114354
H34   H     H_    0.871318 0.519329 0.680477 0.144319
H35   H     H_    0.544712 0.501368 0.730465 0.112189
H36   H     H_    0.792184 0.884653 0.597431 0.136781
H37   H     H_    0.653399 0.853709 0.566894 0.166658
H38   H     H_    0.646854 0.009056 0.543322 0.167853
H39   H     H_    0.611046 0.913965 0.688539 0.137215
H40   H     H_    0.474325 0.061651 0.642549 0.153949
H41   H     H_    0.221444 0.909677 0.665867 0.147515
H42   H     H_    0.046061 0.929558 0.650727 0.153772
H43   H     H_    0.092940 0.984460 0.731270 0.155303
H44   H     H_    0.896432 0.189649 0.878954 0.142161
H45   H     H_    0.567346 0.044623 0.795464 0.128468
H46   H     H_    0.051163 0.251454 0.818774 0.126915
H47   H     H_    0.054610 0.258899 0.687264 0.113003
H48   H     H_    0.918452 0.187562 0.617347 0.150122
O1    O     O_R   0.507340 0.255690 0.581430 -0.514762
O2    O     O_R   0.837290 0.593240 0.915240 -0.522640
O3    O     O_R   0.065320 0.635310 0.931580 -0.503479
O4    O     O_R   0.280360 0.527380 0.578910 -0.517154
O5    O     O_R   0.068470 0.828620 0.091850 -0.533311
O6    O     O_R   0.799150 0.057200 0.079350 -0.495084
O7    O     O_R   0.585220 0.080180 0.076770 -0.547289
O8    O     O_R   0.627170 0.809480 0.067050 -0.504164
O9    O     O_R   0.816200 0.596410 0.076500 -0.541185
O10   O     O_R   0.045770 0.638240 0.081070 -0.546096
O11   O     O_3   0.833840 0.833520 0.001110 -0.257659
O12   O     O_R   0.524510 0.695820 0.424050 -0.491572
O13   O     O_R   0.260600 0.739610 0.584580 -0.533409
O14   O     O_R   0.532370 0.695050 0.573830 -0.509389
O15   O     O_R   0.744850 0.503430 0.576380 -0.525949
O16   O     O_R   0.699080 0.276500 0.571950 -0.540749
O17   O     O_R   0.498860 0.256520 0.419860 -0.525915
O18   O     O_R   0.272490 0.528150 0.429140 -0.503499
O19   O     O_R   0.252110 0.740440 0.423010 -0.527601
O20   O     O_R   0.736370 0.504260 0.414810 -0.535076
O21   O     O_R   0.691220 0.277270 0.422180 -0.538929
O22   O     O_3   0.499990 0.499990 0.499980 -0.274819
O23   O     O_R   0.089570 0.825450 0.930590 -0.526386
O24   O     O_R   0.818700 0.054260 0.929860 -0.507260
O25   O     O_R   0.606310 0.077010 0.915520 -0.533502
O26   O     O_R   0.646730 0.806540 0.917560 -0.509563

loop_
_geom_bond_atom_site_label_1
_geom_bond_atom_site_label_2
_ccdc_geom_bond_type
C32   H15   S    
C1    C21   S    
C44   H21   S    
C14   C71   S    
C71   H43   S    
C19   C20   A    
C30   H11   S    
Cr4   O24   S    
Cr5   O25   S    
C7    C8    A    
C59   O25   A    
C34   C56   S    
Cr6   O9    S    
C12   C23   S    
C28   O18   A    
C52   O17   A    
Cr4   O6    S    
C71   H41   S    
C14   C21   A    
C36   C37   A    
C9    C16   S    
C43   H20   S    
C17   H3    S    
C5    C72   A    
C10   C15   A    
C42   H19   S    
C4    O15   A    
C30   C31   A    
C39   H18   S    
C41   H17   S    
C70   H38   S    
Cr6   O2    S    
C40   O12   A    
C46   C52   S    
C69   H39   S    
C49   C57   A    
C67   C72   A    
C41   C42   A    
C24   C29   A    
C29   H9    S    
Cr1   O18   S    
C59   C67   S    
C22   C63   S    
C60   O26   A    
C56   H12   S    
Cr1   O1    S    
C35   C36   A    
Cr3   O20   S    
C26   H8    S    
C20   H7    S    
C38   H16   S    
C18   H5    S    
Cr1   O22   S    
C2    C69   S    
Cr2   O14   S    
C61   O23   A    
C13   C20   A    
C65   O10   A    
C25   C32   A    
C52   O21   A    
Cr1   O4    S    
C64   H1    S    
C34   C66   S    
C36   C41   A    
C23   C60   S    
C9    C73   A    
Cr5   O11   S    
C50   C51   A    
Cr2   O19   S    
C48   C53   A    
C4    C34   S    
C33   C40   S    
C54   H27   S    
C50   C58   A    
C47   C48   A    
C16   O16   A    
C38   C39   A    
C24   C25   A    
C4    O14   A    
C45   H31   S    
C18   C19   A    
C47   C51   A    
C1    O4    A    
C51   H25   S    
C53   C54   A    
Cr6   O3    S    
C69   H40   S    
C49   C58   A    
C55   H28   S    
Cr4   O5    S    
C63   O8    A    
C23   C68   S    
C60   O2    A    
C35   C39   A    
C43   C44   A    
C29   C30   A    
Cr5   O7    S    
C8    H48   S    
C31   C32   A    
Cr6   O11   S    
C45   C68   S    
C17   C18   A    
C26   C27   A    
C13   C21   A    
C34   C45   S    
Cr4   O11   S    
C16   O1    A    
C64   C66   S    
C12   C56   S    
C1    O13   A    
C61   O3    A    
C66   H14   S    
C23   C64   S    
Cr6   O10   S    
C59   O24   A    
C22   C27   A    
C55   C57   A    
C22   C24   A    
C10   C61   S    
C42   C43   A    
C66   H26   S    
C12   H33   S    
C65   O5    A    
C3    H45   S    
C62   O6    A    
Cr5   O8    S    
Cr1   O17   S    
C54   C55   A    
C48   C49   A    
C40   O20   A    
C71   H42   S    
C3    C67   A    
C6    H46   S    
C68   H23   S    
C72   C73   A    
C19   H6    S    
C11   C17   A    
Cr4   O23   S    
C15   H4    S    
Cr5   O26   S    
C6    C7    A    
C28   C58   S    
C70   H36   S    
C5    H44   S    
C28   O19   A    
Cr2   O22   S    
Cr2   O13   S    
C70   H37   S    
C63   O9    A    
C62   O7    A    
C37   C44   A    
C2    C3    A    
Cr2   O12   S    
C11   C13   A    
C5    C6    A    
Cr3   O22   S    
C53   H24   S    
C8    C73   A    
C27   H10   S    
C35   C62   S    
C68   H30   S    
C7    H47   S    
C69   C70   S    
C64   H2    S    
C38   C46   A    
C10   C11   A    
Cr3   O16   S    
C45   H34   S    
C57   H29   S    
Cr3   O21   S    
C50   H22   S    
C31   H13   S    
C56   H35   S    
C14   C15   A    
C37   C46   A    
C2    C9    A    
C47   C65   S    
C12   H32   S    
C26   C33   A    
C25   C33   A    
Cr3   O15   S    
