data_str_m9_o11_o18_f0_sra.sym.99
_audit_creation_date              2012-12-11T14:21:23-0500
_audit_creation_method            fapswitch 2.2
_symmetry_space_group_name_H-M    P1
_symmetry_Int_Tables_number       1
_space_group_crystal_system       triclinic
_cell_length_a                    21.957175
_cell_length_b                    7.208379
_cell_length_c                    14.935761
_cell_angle_alpha                 89.518723
_cell_angle_beta                  106.94531
_cell_angle_gamma                 89.837942
_cell_volume                      2261.2175106

loop_
_atom_site_label
_atom_site_type_symbol
_atom_type_description
_atom_site_fract_x
_atom_site_fract_y
_atom_site_fract_z
_atom_type_partial_charge
O1    O     O_R   0.584770 0.505770 0.002090 -0.541111
O2    O     O_R   0.415230 0.005770 0.997910 -0.542601
O3    O     O_R   0.467060 0.173340 0.861950 -0.536678
O4    O     O_R   0.532940 0.673340 0.138050 -0.536978
C1    C     C_R   0.455298 0.345277 0.826074 0.677951
C2    C     C_R   0.544797 0.843268 0.174063 0.677806
O5    O     O_R   0.587510 0.175890 0.993210 -0.541224
O6    O     O_R   0.412490 0.675890 0.006790 -0.539964
O7    O     O_R   0.536540 0.008150 0.130100 -0.536396
O8    O     O_R   0.463460 0.508150 0.869900 -0.535885
C3    C     C_R   0.612958 0.344760 0.997439 0.730600
C4    C     C_R   0.387035 0.845091 0.002587 0.732306
O9    O     O_3   0.483140 0.340040 0.044760 -0.376282
O10   O     O_3   0.516860 0.840040 0.955240 -0.375759
V1    V     V_3+5 0.503130 0.064190 0.991700 1.447084
V2    V     V_3+5 0.496870 0.564190 0.008300 1.452480
C5    C     C_2   0.214250 0.727414 0.003960 -0.125679
C6    C     C_2   0.786185 0.227899 0.996786 -0.124190
C7    C     C_2   0.180329 0.886466 0.996358 -0.303033
C8    C     C_2   0.819637 0.387029 0.003634 -0.302104
H1    H     H_    0.191365 0.596524 0.010117 0.139457
H2    H     H_    0.809492 0.097202 0.991300 0.140408
H3    H     H_    0.201716 0.018771 0.989154 0.128861
H4    H     H_    0.797880 0.519182 0.010242 0.129389
C9    C     C_2   0.282142 0.714751 0.003724 -0.122628
C10   C     C_2   0.718313 0.214540 0.997008 -0.131626
C11   C     C_2   0.319939 0.861693 0.003575 -0.291454
C12   C     C_2   0.680026 0.361181 0.996402 -0.287268
H5    H     H_    0.301536 0.575821 0.004373 0.139301
H6    H     H_    0.699380 0.075523 0.997017 0.138982
H7    H     H_    0.301851 0.001492 0.003890 0.131356
H8    H     H_    0.697742 0.501000 0.995510 0.134158
C13   C     C_R   0.926807 0.892799 0.724009 -0.032407
C14   C     C_R   0.073257 0.380976 0.275547 -0.029240
C15   C     C_R   0.572860 0.845856 0.275604 -0.036646
C16   C     C_R   0.427071 0.357864 0.724840 -0.033335
C17   C     C_R   0.934333 0.961028 0.569225 -0.166649
C18   C     C_R   0.063738 0.317136 0.429549 -0.165645
C19   C     C_R   0.962985 0.944465 0.665152 -0.171177
C20   C     C_R   0.035601 0.340158 0.333789 -0.174203
C21   C     C_R   0.861673 0.858310 0.686945 -0.207745
C22   C     C_R   0.139181 0.398552 0.312811 -0.206956
C23   C     C_R   0.830755 0.879566 0.589834 0.117310
C24   C     C_R   0.169315 0.373384 0.409811 0.117575
C25   C     C_R   0.868715 0.931143 0.531333 0.142383
C26   C     C_R   0.130001 0.332188 0.467821 0.142297
C27   C     C_R   0.763606 0.855407 0.549297 -0.031207
C28   C     C_R   0.236836 0.385306 0.450771 -0.031560
C29   C     C_R   0.735758 0.883264 0.450761 0.058216
C30   C     C_R   0.263751 0.355060 0.549262 0.058466
C31   C     C_R   0.776024 0.933390 0.395989 -0.157618
C32   C     C_R   0.222238 0.314817 0.603553 -0.156532
C33   C     C_R   0.840971 0.956083 0.435610 -0.204964
C34   C     C_R   0.156922 0.304216 0.563497 -0.204963
C35   C     C_R   0.723387 0.805431 0.604073 -0.261357
C36   C     C_R   0.278283 0.426060 0.396516 -0.261826
C37   C     C_R   0.658381 0.782477 0.564693 0.598038
C38   C     C_R   0.343667 0.436912 0.436336 0.597608
C39   C     C_R   0.630536 0.807310 0.468657 -0.003427
C40   C     C_R   0.370709 0.408281 0.532277 -0.003436
C41   C     C_R   0.668630 0.859001 0.410231 0.008575
C42   C     C_R   0.331264 0.366646 0.590189 0.008676
C43   C     C_R   0.564851 0.777553 0.430092 -0.081308
C44   C     C_R   0.437048 0.422920 0.571203 -0.080171
C45   C     C_R   0.536483 0.794192 0.334113 -0.162936
C46   C     C_R   0.464918 0.399179 0.666975 -0.163457
C47   C     C_R   0.637922 0.880328 0.313055 -0.169782
C48   C     C_R   0.361207 0.340562 0.687201 -0.169180
H9    H     H_    0.869771 0.995565 0.390687 0.120763
H10   H     H_    0.127121 0.272522 0.608081 0.119736
H11   H     H_    0.663192 0.916543 0.263580 0.092058
H12   H     H_    0.335032 0.310471 0.736305 0.089339
H13   H     H_    0.486229 0.764703 0.305243 0.150609
H14   H     H_    0.515945 0.414509 0.696117 0.144928
H15   H     H_    0.963289 0.001446 0.524715 0.113285
H16   H     H_    0.033710 0.285142 0.473720 0.113315
H17   H     H_    0.013257 0.973996 0.693707 0.106397
H18   H     H_    0.984563 0.324724 0.304960 0.105603
H19   H     H_    0.836533 0.822148 0.736603 0.101558
H20   H     H_    0.165235 0.428035 0.263496 0.099221
H21   H     H_    0.759075 0.957402 0.321662 0.117597
H22   H     H_    0.238416 0.289991 0.677852 0.116792
H23   H     H_    0.740558 0.781768 0.678412 0.155978
H24   H     H_    0.261853 0.451373 0.322253 0.156622
H25   H     H_    0.535409 0.737167 0.473851 0.181810
H26   H     H_    0.467552 0.455166 0.527804 0.180556
O11   O     O_R   0.036450 0.233070 0.130130 -0.537309
O12   O     O_R   0.963550 0.733070 0.869870 -0.538007
O13   O     O_R   0.912470 0.560570 0.006790 -0.545056
O14   O     O_R   0.087530 0.060570 0.993210 -0.544790
C49   C     C_R   0.886978 0.392084 0.002551 0.730397
C50   C     C_R   0.113019 0.891756 0.997458 0.731835
O15   O     O_R   0.032920 0.562940 0.138050 -0.539049
O16   O     O_R   0.967080 0.062940 0.861950 -0.539020
O17   O     O_R   0.084790 0.730500 0.002090 -0.537782
O18   O     O_R   0.915210 0.230500 0.997910 -0.537280
C51   C     C_R   0.044760 0.393435 0.174373 0.685938
C52   C     C_R   0.955139 0.895460 0.825495 0.686198
O19   O     O_3   0.016820 0.396170 0.955260 -0.379039
O20   O     O_3   0.983180 0.896170 0.044740 -0.378894
V3    V     V_3+5 0.996880 0.672090 0.008300 1.418698
V4    V     V_3+5 0.003120 0.172090 0.991700 1.420386
F1    F     F_    0.622549 0.733216 0.621404 -0.696349
F2    F     F_    0.380732 0.477254 0.380100 -0.697741

loop_
_geom_bond_atom_site_label_1
_geom_bond_atom_site_label_2
_ccdc_geom_bond_type
C43   C45   A    
C22   H20   S    
C17   C25   A    
O18   V4    S    
C14   C22   A    
O2    C4    A    
C2    O7    A    
O12   V3    S    
C27   C29   A    
C18   H16   S    
O5    C3    A    
C13   C19   A    
C14   C20   A    
C19   H17   S    
C16   C46   A    
C37   C39   A    
C15   C45   A    
C38   C40   A    
C46   H14   S    
C1    C16   S    
C14   C51   S    
C45   H13   S    
C2    C15   S    
C40   C42   A    
C13   C52   S    
O14   V4    S    
C7    C50   S    
C49   O18   A    
C8    H4    S    
C24   C26   A    
C29   C31   A    
C6    C10   S    
C30   C32   A    
O13   C49   A    
C31   H21   S    
C47   H11   S    
C48   H12   S    
C28   C30   A    
C17   H15   S    
C33   H9    S    
O6    V2    S    
C43   H25   S    
C21   C23   A    
C22   C24   A    
C44   H26   S    
C32   C34   A    
C36   H24   S    
C9    H5    S    
C37   F1    S    
C8    C49   S    
C39   C41   A    
C29   C41   A    
C4    C11   S    
C11   H7    S    
C12   H8    S    
O4    C2    A    
O15   V3    S    
C50   O17   A    
C5    H1    S    
C31   C33   A    
C44   C46   A    
O4    V2    S    
C7    H3    S    
O11   V4    S    
C41   C47   A    
O14   C50   A    
C34   H10   S    
C15   C47   A    
O6    C4    A    
C26   C34   A    
O1    V2    S    
C32   H22   S    
O2    V1    S    
C23   C25   A    
C10   H6    S    
C35   C37   A    
C30   C42   A    
C20   H18   S    
C38   F2    S    
C35   H23   S    
O15   C51   A    
O3    V1    S    
C27   C35   A    
C28   C36   A    
O13   V3    S    
C6    H2    S    
C10   C12   D    
O3    C1    A    
C21   H19   S    
C16   C48   A    
C9    C11   D    
C39   C43   A    
C42   C48   A    
C40   C44   A    
C13   C21   A    
O7    V1    S    
C5    C9    S    
C1    O8    A    
C17   C19   A    
O8    V2    S    
C18   C20   A    
C3    C12   S    
O5    V1    S    
O20   V3    S    
C5    C7    D    
C36   C38   A    
C6    C8    D    
C18   C26   A    
C25   C33   A    
O17   V3    S    
O19   V4    S    
O16   V4    S    
O9    V2    S    
O16   C52   A    
O10   V1    S    
O1    C3    A    
C23   C27   A    
O12   C52   A    
C24   C28   A    
O11   C51   A    
