data_str_m2_o12_o29_f0_pcu.sym.97
_audit_creation_date              2012-10-26T18:28:26-0400
_audit_creation_method            fapswitch 2.2
_symmetry_space_group_name_H-M    P1
_symmetry_Int_Tables_number       1
_space_group_crystal_system       triclinic
_cell_length_a                    27.585966
_cell_length_b                    10.943739
_cell_length_c                    9.941497
_cell_angle_alpha                 109.970796
_cell_angle_beta                  98.236107
_cell_angle_gamma                 92.896634
_cell_volume                      2775.69970408

loop_
_atom_site_label
_atom_site_type_symbol
_atom_type_description
_atom_site_fract_x
_atom_site_fract_y
_atom_site_fract_z
_atom_type_partial_charge
C1    C     C_R   0.494219 0.253517 0.442400 0.550343
C2    C     C_R   0.860829 0.387383 0.349887 0.015201
C3    C     C_R   0.354003 0.487930 0.496505 -0.058988
C4    C     C_R   0.645310 0.494796 0.499360 -0.065501
C5    C     C_R   0.961724 0.393972 0.326173 -0.066159
C6    C     C_R   0.027884 0.597275 0.527605 0.007570
C7    C     C_R   0.980721 0.572923 0.560766 0.081100
C8    C     C_R   0.013167 0.385169 0.330877 -0.009234
C9    C     C_R   0.946185 0.478071 0.451860 -0.030389
C10   C     C_R   0.045938 0.493181 0.426063 -0.049641
C11   C     C_R   0.925772 0.322723 0.203028 0.017659
C12   C     C_R   0.502035 0.745534 0.557489 0.562093
C13   C     C_R   0.056373 0.721337 0.584395 0.077648
C14   C     C_R   0.875898 0.311459 0.218673 0.253382
C15   C     C_R   0.106199 0.730236 0.564550 0.258313
C16   C     C_R   0.407632 0.499082 0.500226 0.589321
C17   C     C_R   0.592309 0.500722 0.499833 0.626387
C18   C     C_R   0.032969 0.271011 0.250238 0.264445
C19   C     C_R   0.969059 0.631208 0.701411 0.270211
C20   C     C_2   0.486722 0.111728 0.415530 0.228371
C21   C     C_2   0.502160 0.885852 0.582864 0.214603
C22   C     C_2   0.472821 0.067498 0.518298 0.085603
C23   C     C_R   0.096469 0.498244 0.418529 -0.117219
C24   C     C_2   0.469500 0.927897 0.496515 0.069810
C25   C     C_2   0.500626 0.526622 0.086902 0.118469
C26   C     C_2   0.487690 0.529300 0.934859 0.090876
C27   C     C_R   0.165432 0.403804 0.315553 0.475365
C28   C     C_R   0.831887 0.530531 0.612421 0.417084
C29   C     C_R   0.178574 0.613812 0.488108 0.448797
C30   C     C_R   0.810764 0.390488 0.364151 0.473404
C31   C     C_R   0.281091 0.574330 0.583645 0.265709
C32   C     C_R   0.716622 0.374468 0.515226 0.270809
C33   C     C_R   0.332408 0.588673 0.589301 0.220583
C34   C     C_R   0.896458 0.468418 0.468065 -0.097859
C35   C     C_R   0.665777 0.382557 0.510732 0.210403
C36   C     C_R   0.324774 0.371961 0.405928 -0.018988
C37   C     C_R   0.675501 0.598097 0.487751 -0.012948
C38   C     C_R   0.272375 0.366951 0.384270 0.238300
C39   C     C_R   0.726362 0.587321 0.488661 0.248623
C40   C     C_R   0.250316 0.481344 0.459197 0.144246
C41   C     C_R   0.746315 0.474643 0.499138 0.195472
C42   C     C_2   0.349655 0.253348 0.347896 0.564457
C43   C     C_2   0.654878 0.717811 0.476628 0.619039
C44   C     C_3   0.545208 0.970888 0.818358 -0.037688
C45   C     C_R   0.115358 0.390083 0.326150 -0.031143
C46   C     C_3   0.463202 0.997403 0.172388 -0.067379
C47   C     C_2   0.435707 0.542921 0.890906 0.647070
C48   C     C_2   0.539667 0.629290 0.182535 0.638994
C49   C     C_2   0.571165 0.536942 0.905412 0.754766
C50   C     C_2   0.432992 0.370939 0.064250 0.759254
C51   C     C_3   0.252055 0.173884 0.180892 0.007562
C52   C     C_3   0.769068 0.791037 0.606420 -0.043637
C53   C     C_2   0.103359 0.151966 0.165816 0.637170
C54   C     C_2   0.909215 0.651337 0.873165 0.632545
C55   C     C_3   0.621499 0.185453 0.386924 -0.049414
C56   C     C_R   0.882622 0.538039 0.603046 -0.022237
C57   C     C_3   0.347318 0.813650 0.699290 -0.003013
C58   C     C_3   0.747132 0.275269 0.670775 -0.050686
C59   C     C_3   0.248180 0.562164 0.776348 -0.068617
C60   C     C_3   0.836745 0.106244 0.112302 -0.037417
C61   C     C_3   0.129421 0.902824 0.501968 -0.023581
C62   C     C_2   0.938427 0.277319 0.053437 0.702954
C63   C     C_2   0.032333 0.843562 0.639478 0.572939
C64   C     C_3   0.998529 0.095362 0.288995 -0.120755
C65   C     C_3   0.002715 0.805720 0.914451 -0.040259
C66   C     C_2   0.424427 0.847196 0.400454 0.538641
C67   C     C_R   0.083717 0.274544 0.244759 0.089768
C68   C     C_2   0.463827 0.153017 0.661437 0.604407
C69   C     C_R   0.919950 0.609681 0.723494 0.075293
C70   C     C_R   0.127506 0.615330 0.493374 -0.000385
Cu1   Cu    Cu3+1 0.508480 0.521810 0.644910 1.123612
Cu2   Cu    Cu3+1 0.491520 0.478190 0.355090 1.103478
H1    H     H_    0.379029 0.138203 0.181514 0.326466
H2    H     H_    0.560891 0.822206 0.281697 0.353195
H3    H     H_    0.642125 0.614765 0.959703 0.350017
H4    H     H_    0.358986 0.367066 0.024722 0.349624
H5    H     H_    0.274733 0.094060 0.185278 0.148619
H6    H     H_    0.268669 0.234812 0.125914 0.143031
H7    H     H_    0.216579 0.124575 0.111002 0.191429
H8    H     H_    0.757433 0.773511 0.701935 0.131629
H9    H     H_    0.752166 0.877383 0.594296 0.158094
H10   H     H_    0.809621 0.816145 0.631448 0.172069
H11   H     H_    0.147918 0.013970 0.176514 0.331601
H12   H     H_    0.608629 0.854030 0.541590 0.357597
H13   H     H_    0.885721 0.790083 0.036044 0.335223
H14   H     H_    0.653612 0.144651 0.337696 0.170613
H15   H     H_    0.597892 0.223223 0.312627 0.129720
H16   H     H_    0.599358 0.103841 0.399519 0.185496
H17   H     H_    0.323376 0.847960 0.782535 0.187688
H18   H     H_    0.328039 0.812310 0.592215 0.177755
H19   H     H_    0.380334 0.886239 0.732184 0.156065
H20   H     H_    0.712979 0.280242 0.719052 0.179093
H21   H     H_    0.774075 0.361682 0.735529 0.169472
H22   H     H_    0.763933 0.187080 0.677439 0.155807
H23   H     H_    0.568546 0.894092 0.829801 0.183007
H24   H     H_    0.279585 0.511103 0.806280 0.120322
H25   H     H_    0.216488 0.489942 0.709174 0.132819
H26   H     H_    0.236178 0.621752 0.878393 0.164408
H27   H     H_    0.810535 0.040585 0.016351 0.165016
H28   H     H_    0.821579 0.109067 0.211064 0.141414
H29   H     H_    0.872411 0.062941 0.112330 0.142674
H30   H     H_    0.142958 0.837969 0.404751 0.130220
H31   H     H_    0.152420 0.998314 0.541162 0.187851
H32   H     H_    0.090810 0.920555 0.470439 0.106651
H33   H     H_    0.981581 0.444272 0.087874 0.315580
H34   H     H_    0.508734 0.957971 0.850561 0.115073
H35   H     H_    0.970975 0.935320 0.629094 0.354929
H36   H     H_    0.034868 0.076392 0.338464 0.129445
H37   H     H_    0.975707 0.999879 0.234834 0.144315
H38   H     H_    0.979250 0.156683 0.374936 0.133220
H39   H     H_    0.991761 0.797500 0.014343 0.142199
H40   H     H_    0.976528 0.860392 0.866960 0.180532
H41   H     H_    0.039136 0.864348 0.949233 0.208517
H42   H     H_    0.394096 0.699834 0.216304 0.368644
H43   H     H_    0.494853 0.267860 0.865326 0.347558
H44   H     H_    0.564239 0.065847 0.895757 0.179634
H45   H     H_    0.461604 0.081059 0.133642 0.161544
H46   H     H_    0.426729 0.969721 0.195191 0.150184
H47   H     H_    0.471840 0.912924 0.082391 0.200905
H48   H     H_    0.367978 0.453847 0.788426 0.341414
N1    N     N_R   0.197573 0.497701 0.423818 -0.382337
N2    N     N_R   0.797629 0.462616 0.492714 -0.357449
N3    N     N_2   0.478780 0.445430 0.137360 -0.276404
N4    N     N_2   0.521220 0.554570 0.862640 -0.271846
O1    O     O_R   0.504520 0.332330 0.577400 -0.476709
O2    O     O_2   0.816264 0.593115 0.738138 -0.488452
O3    O     O_2   0.775130 0.325480 0.249879 -0.420947
O4    O     O_2   0.208024 0.727502 0.538723 -0.407352
O5    O     O_2   0.355910 0.179861 0.416341 -0.458935
O6    O     O_R   0.365306 0.225505 0.214236 -0.696316
O7    O     O_2   0.669600 0.769864 0.396804 -0.446756
O8    O     O_R   0.619002 0.772091 0.558135 -0.696275
O9    O     O_3   0.540995 0.974158 0.676472 -0.564933
O10   O     O_3   0.500901 0.024151 0.293336 -0.591091
O11   O     O_2   0.421004 0.650838 0.932261 -0.471765
O12   O     O_R   0.495480 0.667670 0.422600 -0.464276
O13   O     O_R   0.403051 0.432387 0.806919 -0.636297
O14   O     O_2   0.580964 0.600978 0.213060 -0.471189
O15   O     O_R   0.530860 0.760339 0.221411 -0.637047
O16   O     O_2   0.581927 0.432047 0.912849 -0.467042
O17   O     O_R   0.608033 0.638821 0.932467 -0.657581
O18   O     O_2   0.431295 0.252761 0.003955 -0.514909
O19   O     O_R   0.389413 0.430734 0.076775 -0.655132
O20   O     O_3   0.243237 0.246963 0.321935 -0.501768
O21   O     O_3   0.757133 0.684108 0.473399 -0.514240
O22   O     O_2   0.087765 0.094602 0.036669 -0.430504
O23   O     O_R   0.490210 0.295500 0.332650 -0.508309
O24   O     O_R   0.138777 0.100746 0.240522 -0.692751
O25   O     O_2   0.916015 0.579887 0.943893 -0.475464
O26   O     O_R   0.891415 0.772215 0.932845 -0.694959
O27   O     O_3   0.636342 0.283059 0.525097 -0.539125
O28   O     O_3   0.362849 0.691669 0.695781 -0.530786
O29   O     O_3   0.736850 0.263704 0.523629 -0.546012
O30   O     O_3   0.262338 0.646282 0.705143 -0.517870
O31   O     O_3   0.841656 0.231631 0.101706 -0.502639
O32   O     O_3   0.133744 0.851232 0.615035 -0.482235
O33   O     O_2   0.919963 0.171852 0.964211 -0.419101
O34   O     O_R   0.509790 0.704500 0.667350 -0.512452
O35   O     O_R   0.971144 0.354156 0.011977 -0.610641
O36   O     O_2   0.055799 0.942387 0.729847 -0.420484
O37   O     O_R   0.983039 0.846833 0.584096 -0.727290
O38   O     O_3   0.003695 0.152759 0.183824 -0.550331
O39   O     O_3   0.008358 0.680490 0.817014 -0.575583
O40   O     O_2   0.384044 0.877980 0.428201 -0.514800
O41   O     O_R   0.427630 0.743922 0.273253 -0.613931
O42   O     O_2   0.421842 0.161278 0.686773 -0.423300
O43   O     O_R   0.504270 0.216643 0.769381 -0.618965
O44   O     O_R   0.437420 0.518430 0.622370 -0.461000
O45   O     O_R   0.562580 0.481570 0.377630 -0.478774
O46   O     O_R   0.423110 0.481600 0.377610 -0.464503
O47   O     O_R   0.576890 0.518400 0.622390 -0.451505
O48   O     O_2   0.179531 0.338960 0.188765 -0.457029

loop_
_geom_bond_atom_site_label_1
_geom_bond_atom_site_label_2
_ccdc_geom_bond_type
C34   C56   A    
C52   O21   S    
C23   C45   A    
C14   O31   S    
C36   C42   S    
C60   H27   S    
C27   N1    A    
C39   C41   A    
C51   O20   S    
C40   N1    S    
C39   O21   S    
C57   H17   S    
C22   C24   S    
C43   O8    S    
C61   H31   S    
C58   H21   S    
C1    O1    A    
C5    C11   A    
C11   C14   A    
C17   O45   A    
Cu2   O12   S    
C3    C33   A    
C57   O28   S    
C68   O43   S    
C31   C40   A    
C46   H46   S    
C7    C9    A    
C35   O27   S    
C55   H16   S    
C15   C70   A    
H13   O26   S    
C65   H39   S    
H3    O17   S    
C30   O3    S    
H35   O37   S    
C29   N1    A    
C45   C67   A    
C32   C41   A    
C31   C33   A    
C65   H41   S    
C48   O15   S    
C24   C66   S    
C2    C34   A    
C4    C35   A    
C55   H15   S    
C23   C70   A    
C65   O39   S    
C26   N4    D    
C63   O36   D    
C2    C14   A    
C21   O9    S    
C59   O30   S    
C28   O2    S    
C64   H36   S    
C54   O25   D    
C28   C56   A    
C57   H18   S    
C32   C35   A    
C30   N2    A    
Cu1   N4    S    
C61   H32   S    
C64   O38   S    
C25   C26   S    
C49   N4    S    
C12   C21   S    
H12   O8    S    
C53   O24   S    
C8    C18   A    
C32   O29   S    
C46   H45   S    
C49   O17   S    
Cu2   O46   S    
C41   N2    S    
C37   C43   S    
C51   H5    S    
C65   H40   S    
C5    C9    A    
C58   O29   S    
C46   O10   S    
C64   H38   S    
C13   C63   S    
C47   O13   S    
C62   O33   D    
C66   O40   D    
C42   O6    S    
C19   O39   S    
C52   H10   S    
C25   N3    D    
C25   C48   S    
C22   C68   S    
C15   O32   S    
C26   C47   S    
C4    C17   S    
C20   C22   D    
C7    C19   A    
Cu1   O44   S    
C13   C15   A    
Cu2   N3    S    
C9    C34   A    
C59   H25   S    
Cu1   O47   S    
C29   O4    S    
C59   H24   S    
C21   C24   D    
H43   O43   S    
C60   H29   S    
C61   O32   S    
C31   O30   S    
C50   O19   S    
H42   O41   S    
C29   C70   A    
C44   O9    S    
C63   O37   S    
Cu1   O34   S    
H1    O6    S    
C1    C20   S    
C57   H19   S    
C66   O41   S    
C47   O11   D    
C38   O20   S    
C50   N3    S    
C60   H28   S    
C33   O28   S    
C6    C10   A    
C5    C8    A    
C17   O47   A    
C55   O27   S    
C6    C7    A    
C44   H34   S    
C10   C23   A    
Cu2   O23   S    
H2    O15   S    
C11   C62   S    
C48   O14   D    
C2    C30   A    
C20   O10   S    
Cu2   O45   S    
C55   H14   S    
C43   O7    D    
C61   H30   S    
C18   C67   A    
C60   O31   S    
Cu1   Cu2   S    
C37   C39   A    
C44   H23   S    
C6    C13   A    
C38   C40   A    
C18   O38   S    
C27   C45   A    
C64   H37   S    
H33   O35   S    
C54   C69   S    
C3    C36   A    
C16   O44   A    
C36   C38   A    
C53   O22   D    
C46   H47   S    
C42   O5    D    
C28   N2    A    
C58   H22   S    
C52   H9    S    
C53   C67   S    
C51   H7    S    
C51   H6    S    
C1    O23   A    
C19   C69   A    
H11   O24   S    
H4    O19   S    
C16   O46   A    
C4    C37   A    
C44   H44   S    
C8    C10   A    
C56   C69   A    
C12   O12   A    
C49   O16   D    
C59   H26   S    
C62   O35   S    
Cu1   O1    S    
H48   O13   S    
C12   O34   A    
C52   H8    S    
C58   H20   S    
C27   O48   S    
C3    C16   S    
C50   O18   D    
C54   O26   S    
C68   O42   D    
