data_str_m9_o4_o18_f0_sra.sym.81
_audit_creation_date              2012-12-11T17:02:21-0500
_audit_creation_method            fapswitch 2.2
_symmetry_space_group_name_H-M    P1
_symmetry_Int_Tables_number       1
_space_group_crystal_system       triclinic
_cell_length_a                    21.630378
_cell_length_b                    7.075378
_cell_length_c                    14.806836
_cell_angle_alpha                 90.000183
_cell_angle_beta                  106.181949
_cell_angle_gamma                 90.001763
_cell_volume                      2176.30531524

loop_
_atom_site_label
_atom_site_type_symbol
_atom_type_description
_atom_site_fract_x
_atom_site_fract_y
_atom_site_fract_z
_atom_type_partial_charge
O1    O     O_R   0.585850 0.505770 0.002130 -0.533659
O2    O     O_R   0.414150 0.005770 0.997870 -0.533663
O3    O     O_R   0.467530 0.173560 0.861970 -0.531360
O4    O     O_R   0.532470 0.673560 0.138030 -0.531346
C1    C     C_R   0.455162 0.344109 0.825208 0.695120
C2    C     C_R   0.544830 0.844114 0.174792 0.695067
O5    O     O_R   0.588690 0.175900 0.993250 -0.549455
O6    O     O_R   0.411310 0.675900 0.006750 -0.549449
O7    O     O_R   0.536170 0.007950 0.130090 -0.539448
O8    O     O_R   0.463830 0.507950 0.869910 -0.539469
C3    C     C_R   0.615066 0.344633 0.997822 0.700739
C4    C     C_R   0.384935 0.844631 0.002184 0.700691
O9    O     O_3   0.482630 0.339970 0.044740 -0.375061
O10   O     O_3   0.517370 0.839970 0.955260 -0.375075
V1    V     V_3+5 0.503220 0.064200 0.991700 1.436278
V2    V     V_3+5 0.496780 0.564200 0.008300 1.436305
C5    C     C_R   0.292445 0.009704 0.041484 0.092958
C6    C     C_R   0.707557 0.509679 0.958510 0.092958
C7    C     C_R   0.316999 0.852767 0.005152 -0.090293
C8    C     C_R   0.683004 0.352770 0.994864 -0.090267
C9    C     C_R   0.274749 0.699968 0.973392 -0.147475
C10   C     C_R   0.725253 0.199990 0.026645 -0.147396
H1    H     H_    0.291406 0.575537 0.944959 0.144117
H2    H     H_    0.708595 0.075580 0.055095 0.144017
C11   C     C_R   0.209345 0.711739 0.971618 -0.154367
C12   C     C_R   0.790658 0.211756 0.028417 -0.154368
H3    H     H_    0.177786 0.594816 0.942917 0.139846
H4    H     H_    0.822218 0.094855 0.057138 0.139808
C13   C     C_R   0.184097 0.877291 0.000889 -0.093013
C14   C     C_R   0.815904 0.377281 0.999115 -0.093030
C15   C     C_R   0.227755 0.021721 0.039337 0.099867
C16   C     C_R   0.772246 0.521685 0.960646 0.099902
C17   C     C_3   0.224970 0.227173 0.016564 -0.405659
C18   C     C_3   0.775033 0.727155 0.983382 -0.405668
C19   C     C_3   0.295637 0.214228 0.019435 -0.384903
C20   C     C_3   0.704370 0.714216 0.980534 -0.384942
H5    H     H_    0.216347 0.314970 0.074137 0.158176
H6    H     H_    0.783644 0.814903 0.925784 0.158183
H7    H     H_    0.192887 0.257424 0.945160 0.202434
H8    H     H_    0.807124 0.757467 0.054773 0.202310
H9    H     H_    0.327787 0.294021 0.078873 0.161191
H10   H     H_    0.672214 0.793980 0.921093 0.161203
H11   H     H_    0.304555 0.237925 0.949905 0.209365
H12   H     H_    0.695466 0.737957 0.050071 0.209237
C21   C     C_R   0.927653 0.882338 0.722753 -0.095672
C22   C     C_R   0.072339 0.382340 0.277250 -0.095663
C23   C     C_R   0.572899 0.847753 0.276674 -0.044451
C24   C     C_R   0.427090 0.347707 0.723324 -0.044517
C25   C     C_R   0.941051 0.859834 0.566336 0.369654
C26   C     C_R   0.058915 0.359938 0.433659 0.369649
C27   C     C_R   0.967356 0.881085 0.663128 -0.148470
C28   C     C_R   0.032623 0.381112 0.336860 -0.148451
C29   C     C_R   0.861076 0.866955 0.685872 -0.193174
C30   C     C_R   0.138911 0.366919 0.314154 -0.193232
C31   C     C_R   0.832433 0.843388 0.588160 0.047011
C32   C     C_R   0.167536 0.343365 0.411870 0.047009
C33   C     C_R   0.873636 0.838376 0.528237 0.011931
C34   C     C_R   0.126328 0.338544 0.471783 0.011931
C35   C     C_R   0.764346 0.824898 0.548478 0.049601
C36   C     C_R   0.235614 0.324720 0.451565 0.049571
C37   C     C_R   0.738006 0.812755 0.448599 -0.001355
C38   C     C_R   0.261955 0.312886 0.551450 -0.001352
C39   C     C_R   0.781236 0.781392 0.393131 0.225303
C40   C     C_R   0.218722 0.281883 0.606944 0.225354
C41   C     C_R   0.847266 0.802341 0.432385 -0.116091
C42   C     C_R   0.152694 0.302783 0.567662 -0.116124
C43   C     C_R   0.721787 0.811906 0.605603 -0.162378
C44   C     C_R   0.278155 0.311166 0.394447 -0.162425
C45   C     C_R   0.655803 0.796026 0.566764 -0.203928
C46   C     C_R   0.344133 0.295107 0.433287 -0.203947
C47   C     C_R   0.629099 0.804997 0.469908 0.136782
C48   C     C_R   0.370851 0.304430 0.530130 0.136783
C49   C     C_R   0.669593 0.823259 0.409709 0.106904
C50   C     C_R   0.330373 0.323224 0.590321 0.106912
C51   C     C_R   0.561911 0.798200 0.432662 -0.164375
C52   C     C_R   0.438035 0.297374 0.567371 -0.164401
C53   C     C_R   0.534142 0.813398 0.336118 -0.176406
C54   C     C_R   0.465819 0.312822 0.663900 -0.176344
C55   C     C_R   0.639749 0.860957 0.313758 -0.153861
C56   C     C_R   0.360245 0.361185 0.686236 -0.153963
H13   H     H_    0.878185 0.780267 0.387166 0.205758
H14   H     H_    0.121775 0.280926 0.612894 0.205754
H15   H     H_    0.667362 0.903678 0.266834 0.154573
H16   H     H_    0.332660 0.404273 0.733128 0.154633
H17   H     H_    0.482432 0.800321 0.307800 0.104865
H18   H     H_    0.517521 0.299488 0.692223 0.104881
H19   H     H_    0.625219 0.782355 0.613320 0.120740
H20   H     H_    0.374698 0.280957 0.386742 0.120766
H21   H     H_    0.019024 0.894178 0.692112 0.150573
H22   H     H_    0.980957 0.394183 0.307858 0.150564
H23   H     H_    0.833315 0.874955 0.735866 0.096638
H24   H     H_    0.166691 0.374960 0.264182 0.096661
H25   H     H_    0.737843 0.807099 0.681189 0.117814
H26   H     H_    0.262075 0.305931 0.318872 0.117858
H27   H     H_    0.530906 0.778964 0.478211 0.119770
H28   H     H_    0.469023 0.277681 0.521837 0.119785
O11   O     O_R   0.036080 0.231270 0.130120 -0.536135
O12   O     O_R   0.963920 0.731270 0.869880 -0.536136
O13   O     O_R   0.911300 0.558970 0.006750 -0.540289
O14   O     O_R   0.088700 0.058970 0.993250 -0.540291
C57   C     C_R   0.884918 0.389925 0.002122 0.690740
C58   C     C_R   0.115082 0.889930 0.997880 0.690727
O15   O     O_R   0.032450 0.561140 0.138040 -0.535178
O16   O     O_R   0.967550 0.061140 0.861960 -0.535172
O17   O     O_R   0.085870 0.728910 0.002130 -0.544191
O18   O     O_R   0.914130 0.228910 0.997870 -0.544190
C59   C     C_R   0.044590 0.392421 0.175274 0.711423
C60   C     C_R   0.955414 0.892419 0.824726 0.711440
O19   O     O_3   0.017320 0.394650 0.955270 -0.372715
O20   O     O_3   0.982680 0.894650 0.044730 -0.372719
V3    V     V_3+5 0.996780 0.670490 0.008300 1.446403
V4    V     V_3+5 0.003220 0.170490 0.991700 1.446413
Br1   Br    Br    0.000304 0.860009 0.490437 -0.503336
Br2   Br    Br    0.999642 0.360049 0.509526 -0.503341
Br3   Br    Br    0.758307 0.660149 0.271419 -0.609525
Br4   Br    Br    0.241639 0.161114 0.728764 -0.609780

loop_
_geom_bond_atom_site_label_1
_geom_bond_atom_site_label_2
_ccdc_geom_bond_type
C55   H15   S    
C39   C41   A    
C40   Br4   S    
C31   C35   A    
C20   H10   S    
O1    C3    A    
C23   C55   A    
C56   H16   S    
C46   H20   S    
C2    O7    A    
C51   H27   S    
O18   V4    S    
O5    C3    A    
C17   H7    S    
C18   H8    S    
O15   V3    S    
C7    C9    A    
C52   C54   A    
O19   V3    S    
C17   C19   S    
C21   C27   A    
C22   C28   A    
C25   C33   A    
C14   C57   S    
C58   O17   A    
C36   C38   A    
C24   C54   A    
C45   C47   A    
O20   V3    S    
C38   C40   A    
C35   C43   A    
C28   H22   S    
C34   C42   A    
C25   C27   A    
C29   H23   S    
C26   C28   A    
C15   C17   S    
C14   C16   A    
C19   H11   S    
C18   C20   S    
C45   H19   S    
C21   C60   S    
C48   C52   A    
C39   Br3   S    
C54   H18   S    
O5    V1    S    
O17   V3    S    
C53   H17   S    
O6    V2    S    
C50   C56   A    
O20   V4    S    
C29   C31   A    
C11   C13   A    
C1    C24   S    
C30   C32   A    
C3    C8    S    
C35   C37   A    
C2    C23   S    
C26   C34   A    
C48   C50   A    
O19   V4    S    
O16   V4    S    
O11   V4    S    
C37   C49   A    
C17   H5    S    
C32   C36   A    
C26   Br2   S    
C40   C42   A    
O4    V2    S    
C30   H24   S    
C42   H14   S    
C41   H13   S    
O6    C4    A    
O13   V3    S    
C22   C59   S    
C22   C30   A    
O14   C58   A    
C25   Br1   S    
C49   C55   A    
O1    V2    S    
O2    V1    S    
C51   C53   A    
O4    C2    A    
O13   C57   A    
C8    C10   A    
C12   C14   A    
C31   C33   A    
C5    C15   A    
C10   H2    S    
C20   H12   S    
C6    C16   A    
C23   C53   A    
O16   C60   A    
O3    V1    S    
C47   C49   A    
O2    C4    A    
C57   O18   A    
C9    C11   A    
O12   V3    S    
C18   H6    S    
O12   C60   A    
C37   C39   A    
C33   C41   A    
O3    C1    A    
C46   C48   A    
O14   V4    S    
C11   H3    S    
C12   H4    S    
C24   C56   A    
C9    H1    S    
O7    V1    S    
C1    O8    A    
C13   C15   A    
O8    V2    S    
C52   H28   S    
C47   C51   A    
C4    C7    S    
C5    C7    A    
C32   C34   A    
C13   C58   S    
C6    C8    A    
C19   H9    S    
C44   H26   S    
C21   C29   A    
O11   C59   A    
C36   C44   A    
C44   C46   A    
C10   C12   A    
O9    V2    S    
C43   H25   S    
O10   V1    S    
C38   C50   A    
O15   C59   A    
C5    C19   S    
C43   C45   A    
C6    C20   S    
C27   H21   S    
C16   C18   S    
