data_str_m3_o10_o17_f0_pcu.sym.140
_audit_creation_date              2012-12-10T16:52:04-0500
_audit_creation_method            fapswitch 2.2
_symmetry_space_group_name_H-M    P1
_symmetry_Int_Tables_number       1
_space_group_crystal_system       triclinic
_cell_length_a                    7.807409
_cell_length_b                    8.54619
_cell_length_c                    14.889268
_cell_angle_alpha                 91.689676
_cell_angle_beta                  85.31598
_cell_angle_gamma                 93.624625
_cell_volume                      987.8714499

loop_
_atom_site_label
_atom_site_type_symbol
_atom_type_description
_atom_site_fract_x
_atom_site_fract_y
_atom_site_fract_z
_atom_type_partial_charge
C1    C     C_R   0.545589 0.794548 0.497684 0.956785
C2    C     C_R   0.456460 0.638877 0.817862 0.031346
C3    C     C_R   0.493269 0.487922 0.232197 -0.062729
C4    C     C_R   0.505352 0.505605 0.767823 -0.038536
C5    C     C_R   0.448016 0.622245 0.191835 -0.280253
C6    C     C_R   0.554262 0.372434 0.807740 -0.305787
C7    C     C_R   0.449769 0.626674 0.099298 0.123834
C8    C     C_R   0.550606 0.367509 0.900400 0.129734
C9    C     C_R   0.497380 0.494072 0.046774 0.030730
C10   C     C_R   0.501198 0.499716 0.953029 0.047199
C11   C     C_R   0.540921 0.355920 0.087885 0.106188
C12   C     C_R   0.454407 0.205452 0.502304 0.925811
C13   C     C_R   0.455284 0.637170 0.911935 0.081485
C14   C     C_R   0.406550 0.762633 0.058795 -0.196132
C15   C     C_R   0.594106 0.231725 0.940907 -0.221838
C16   C     C_R   0.408827 0.767999 0.965755 -0.227887
C17   C     C_R   0.589070 0.225635 0.033990 -0.204375
C18   C     C_2   0.569595 0.958115 0.496211 -0.374470
C19   C     C_2   0.430393 0.041885 0.503639 -0.373712
C20   C     C_R   0.501759 0.502176 0.672636 0.907266
C21   C     C_R   0.497845 0.495705 0.327383 0.855977
C22   C     C_R   0.536330 0.351541 0.181928 0.046582
H1    H     H_    0.414525 0.724656 0.232959 0.146443
H2    H     H_    0.470964 0.125651 0.212681 0.171492
H3    H     H_    0.284800 0.798734 0.793821 0.191900
H4    H     H_    0.494496 0.869366 0.787302 0.176754
H5    H     H_    0.935934 0.300402 0.387771 0.335244
H6    H     H_    0.064045 0.699503 0.612289 0.335087
H7    H     H_    0.590879 0.271329 0.766316 0.148002
H8    H     H_    0.370764 0.864914 0.099153 0.144130
H9    H     H_    0.631560 0.129953 0.900550 0.147216
H10   H     H_    0.373966 0.875070 0.936854 0.149320
H11   H     H_    0.624189 0.118752 0.063127 0.171604
H12   H     H_    0.701136 0.009018 0.489028 0.191602
H13   H     H_    0.298851 0.990984 0.510803 0.193106
H14   H     H_    0.572281 0.220422 0.294082 0.190694
N1    N     N_2   0.950330 0.457950 0.475660 0.178940
N2    N     N_2   0.049670 0.542050 0.524340 0.178315
N3    N     N_3   0.571812 0.208341 0.224262 -0.462555
N4    N     N_3   0.410913 0.773796 0.771691 -0.462776
O1    O     O_R   0.389250 0.738570 0.505970 -0.634401
O2    O     O_3   0.970226 0.644011 0.580782 -0.657133
O3    O     O_R   0.610750 0.261430 0.494030 -0.641625
O4    O     O_R   0.678390 0.711620 0.490370 -0.578362
O5    O     O_R   0.321610 0.288380 0.509630 -0.579453
O6    O     O_R   0.355420 0.513510 0.639950 -0.626399
O7    O     O_R   0.644580 0.486490 0.360050 -0.633850
O8    O     O_R   0.644560 0.486560 0.624350 -0.580100
O9    O     O_R   0.355440 0.513440 0.375650 -0.574558
O10   O     O_3   0.029766 0.355943 0.419245 -0.657530
Zn1   Zn    Zn3+2 0.306940 0.517990 0.510420 1.042578
Zn2   Zn    Zn3+2 0.693060 0.482010 0.489580 1.039097

loop_
_geom_bond_atom_site_label_1
_geom_bond_atom_site_label_2
_ccdc_geom_bond_type
C6    H7    S    
O7    Zn2   S    
C2    C4    A    
C15   H9    S    
N1    N2    D    
C8    C15   A    
C9    C11   A    
C9    C10   A    
C1    O4    A    
N1    Zn2   S    
C5    H1    S    
H5    O10   S    
C3    C5    A    
O4    Zn2   S    
C21   O9    A    
C19   H13   S    
N1    O10   S    
C18   H12   S    
H4    N4    S    
C1    C18   S    
C20   O8    A    
C17   H11   S    
C14   H8    S    
C22   N3    S    
C12   C19   S    
H6    O2    S    
N2    O2    S    
C12   O3    A    
C5    C7    A    
H14   N3    S    
H3    N4    S    
C8    C10   A    
C14   C16   A    
O3    Zn2   S    
C3    C21   S    
C16   H10   S    
O5    Zn1   S    
C4    C20   S    
C2    N4    S    
O8    Zn2   S    
H2    N3    S    
C4    C6    A    
C18   C19   D    
C13   C16   A    
C1    O1    A    
C7    C9    A    
C2    C13   A    
C11   C17   A    
C3    C22   A    
C6    C8    A    
N2    Zn1   S    
C11   C22   A    
C21   O7    A    
C15   C17   A    
O6    Zn1   S    
O1    Zn1   S    
C7    C14   A    
C20   O6    A    
C12   O5    A    
O9    Zn1   S    
C10   C13   A    
