data_str_m3_o14_o18_f0_pcu.sym.133
_audit_creation_date              2012-12-10T17:44:29-0500
_audit_creation_method            fapswitch 2.2
_symmetry_space_group_name_H-M    P1
_symmetry_Int_Tables_number       1
_space_group_crystal_system       triclinic
_cell_length_a                    9.978546
_cell_length_b                    10.601185
_cell_length_c                    15.416239
_cell_angle_alpha                 94.717336
_cell_angle_beta                  68.147787
_cell_angle_gamma                 93.954412
_cell_volume                      1507.195645

loop_
_atom_site_label
_atom_site_type_symbol
_atom_type_description
_atom_site_fract_x
_atom_site_fract_y
_atom_site_fract_z
_atom_type_partial_charge
C1    C     C_R   0.508399 0.739549 0.495109 0.909743
C2    C     C_R   0.695044 0.623111 0.051680 -0.058350
C3    C     C_R   0.561674 0.556474 0.098488 -0.060705
C4    C     C_R   0.408374 0.498613 0.676171 0.953520
C5    C     C_R   0.808123 0.622531 0.087084 0.532176
C6    C     C_R   0.779040 0.573237 0.174731 -0.339027
C7    C     C_R   0.543684 0.498056 0.180054 -0.123013
C8    C     C_R   0.721593 0.886501 0.334919 0.202501
C9    C     C_R   0.767607 0.943391 0.247602 0.265769
C10   C     C_R   0.692244 0.045845 0.238378 0.412186
C11   C     C_R   0.589976 0.103324 0.318179 0.276331
C12   C     C_R   0.387120 0.549859 0.924921 0.162890
C13   C     C_R   0.559073 0.056822 0.407231 -0.210096
C14   C     C_R   0.602761 0.936205 0.412085 -0.071165
C15   C     C_R   0.524116 0.873684 0.494954 -0.031501
C16   C     C_R   0.496773 0.259938 0.496851 0.987131
C17   C     C_R   0.437799 0.938726 0.576662 -0.301587
C18   C     C_R   0.424622 0.067735 0.577335 0.462175
C19   C     C_R   0.485747 0.125571 0.492370 -0.052022
C20   C     C_R   0.819028 0.693696 0.614102 0.397116
C21   C     C_R   0.879605 0.788089 0.659678 -0.203515
C22   C     C_R   0.011473 0.774998 0.665646 0.450400
C23   C     C_R   0.249639 0.493840 0.974144 0.082444
C24   C     C_R   0.091070 0.671567 0.618458 -0.254734
C25   C     C_R   0.047411 0.587042 0.557825 0.076968
C26   C     C_R   0.904173 0.591770 0.556646 0.135485
C27   C     C_R   0.953639 0.415324 0.445643 -0.087201
C28   C     C_R   0.590599 0.501105 0.323966 0.943055
C29   C     C_R   0.096535 0.416142 0.445064 -0.065775
C30   C     C_R   0.347407 0.500120 0.778961 -0.190047
C31   C     C_R   0.643462 0.518174 0.223269 -0.066043
C32   C     C_R   0.157686 0.451677 0.927017 -0.167280
C33   C     C_R   0.204724 0.455318 0.829965 0.425788
C34   C     C_R   0.479325 0.592624 0.973305 -0.055960
C35   C     C_R   0.436160 0.546755 0.827191 -0.227836
C36   C     C_R   0.449731 0.548304 0.062387 0.055683
C37   C     C_R   0.308311 0.498771 0.112269 -0.115290
C38   C     C_R   0.208435 0.475708 0.069126 -0.209081
C39   C     C_R   0.597231 0.680010 0.937388 0.256479
C40   C     C_R   0.706977 0.692761 0.974375 0.396718
Cl1   Cl    Cl    0.837018 0.780826 0.352960 -0.626249
Cl2   Cl    Cl    0.479138 0.213037 0.300890 -0.600130
Cl3   Cl    Cl    0.849132 0.806871 0.928147 -0.392742
Cl4   Cl    Cl    0.083976 0.392606 0.776523 -0.517738
Cl5   Cl    Cl    0.588077 0.796824 0.864340 -0.574382
H1    H     H_    0.101893 0.436224 0.108730 0.156832
H2    H     H_    0.547286 0.574133 0.787622 0.228598
H3    H     H_    0.270358 0.479363 0.185271 0.142328
H4    H     H_    0.009580 0.661084 0.070854 0.333926
H5    H     H_    0.930249 0.832833 0.185205 0.387864
H6    H     H_    0.784917 0.040547 0.101837 0.412362
H7    H     H_    0.315795 0.082580 0.711802 0.369867
H8    H     H_    0.636151 0.780084 0.666751 0.345365
H9    H     H_    0.146289 0.833786 0.725805 0.334865
H10   H     H_    0.384052 0.889011 0.639926 0.130253
H11   H     H_    0.921162 0.345892 0.400998 0.150327
H12   H     H_    0.818022 0.868483 0.698081 0.230235
H13   H     H_    0.448185 0.440581 0.214575 0.190442
H14   H     H_    0.187586 0.660888 0.630143 0.211438
H15   H     H_    0.170540 0.347371 0.399855 0.178733
H16   H     H_    0.860041 0.582138 0.206212 0.187025
H17   H     H_    0.050910 0.411431 0.965289 0.188650
N1    N     N_R   0.856800 0.501200 0.500850 -0.079597
N2    N     N_R   0.142390 0.501280 0.500880 -0.089428
O1    O     O_R   0.385310 0.683220 0.500000 -0.653575
O2    O     O_3   0.885344 0.903964 0.170554 -0.703576
O3    O     O_3   0.719451 0.095459 0.152920 -0.666524
O4    O     O_3   0.351662 0.138773 0.658783 -0.730576
O5    O     O_3   0.674770 0.698645 0.633282 -0.712562
O6    O     O_3   0.057879 0.863318 0.720358 -0.659204
O7    O     O_R   0.614640 0.683250 0.500010 -0.502825
O8    O     O_R   0.319840 0.499980 0.632240 -0.597144
O9    O     O_R   0.549160 0.500000 0.632250 -0.552878
O10   O     O_R   0.385360 0.316750 0.499990 -0.551995
O11   O     O_R   0.614690 0.316780 0.500000 -0.633079
O12   O     O_R   0.450840 0.500000 0.367750 -0.612507
O13   O     O_R   0.680160 0.500020 0.367760 -0.594389
O14   O     O_3   0.944850 0.670392 0.036403 -0.687577
Zn1   Zn    Zn3+2 0.346880 0.499980 0.499990 1.018746
Zn2   Zn    Zn3+2 0.653120 0.500020 0.500010 1.046494

loop_
_geom_bond_atom_site_label_1
_geom_bond_atom_site_label_2
_ccdc_geom_bond_type
O1    Zn1   S    
C27   C29   A    
C16   O11   A    
O12   Zn1   S    
H8    O5    S    
C10   O3    S    
C12   C23   A    
C1    O7    A    
C30   C35   A    
C16   O10   A    
C6    H16   S    
C36   C37   A    
O8    Zn1   S    
C3    C7    A    
C24   H14   S    
C5    C6    A    
C18   O4    S    
H4    O14   S    
C11   Cl2   S    
C18   C19   A    
C9    O2    S    
C40   Cl3   S    
C8    C9    A    
C1    O1    A    
C1    C15   S    
O11   Zn2   S    
C17   H10   S    
C7    H13   S    
H7    O4    S    
C39   Cl5   S    
C6    C31   A    
C29   N2    A    
C35   H2    S    
C13   C14   A    
O7    Zn2   S    
N1    Zn2   S    
C7    C31   A    
C13   C19   A    
C34   C39   A    
C8    Cl1   S    
C39   C40   A    
C27   H11   S    
C25   C26   A    
C12   C35   A    
C25   N2    A    
C26   N1    A    
C21   H12   S    
C37   C38   A    
H9    O6    S    
C29   H15   S    
C17   C18   A    
H6    O3    S    
C24   C25   A    
C37   H3    S    
C28   O13   A    
H5    O2    S    
C4    O9    A    
C27   N1    A    
O10   Zn1   S    
N2    Zn1   S    
C22   C24   A    
C20   O5    S    
C2    C5    A    
C12   C34   A    
C28   O12   A    
C4    O8    A    
C9    C10   A    
O13   Zn2   S    
C15   C17   A    
C8    C14   A    
C30   C33   A    
C33   Cl4   S    
C28   C31   S    
C23   C38   A    
C23   C32   A    
C2    C3    A    
C32   H17   S    
C32   C33   A    
C11   C13   A    
C20   C26   A    
C3    C36   A    
C16   C19   S    
O9    Zn2   S    
C34   C36   A    
C38   H1    S    
C10   C11   A    
C2    C40   A    
C20   C21   A    
C14   C15   A    
C5    O14   S    
C21   C22   A    
C22   O6    S    
C4    C30   S    
