data_str_m2_o16_o22_f0_pcu.sym.46
_audit_creation_date              2012-10-26T20:03:00-0400
_audit_creation_method            fapswitch 2.2
_symmetry_space_group_name_H-M    P1
_symmetry_Int_Tables_number       1
_space_group_crystal_system       triclinic
_cell_length_a                    10.722617
_cell_length_b                    12.323289
_cell_length_c                    13.181241
_cell_angle_alpha                 116.684239
_cell_angle_beta                  77.619112
_cell_angle_gamma                 101.538735
_cell_volume                      1509.26681347

loop_
_atom_site_label
_atom_site_type_symbol
_atom_type_description
_atom_site_fract_x
_atom_site_fract_y
_atom_site_fract_z
_atom_type_partial_charge
C1    C     C_R   0.512581 0.854878 0.286513 0.520825
C2    C     C_R   0.504667 0.566562 0.009193 0.029345
C3    C     C_R   0.463058 0.651272 0.122137 0.023718
C4    C     C_R   0.739875 0.999892 0.500075 0.545077
C5    C     C_R   0.457856 0.440575 0.974996 0.029488
C6    C     C_R   0.362106 0.403065 0.049519 0.051467
C7    C     C_R   0.312294 0.489919 0.154979 -0.143262
C8    C     C_R   0.360788 0.612324 0.190308 -0.126789
C9    C     C_R   0.503918 0.350268 0.869040 -0.135706
C10   C     C_R   0.359020 0.191804 0.908826 -0.138514
C11   C     C_R   0.524238 0.773223 0.163467 -0.003030
C12   C     C_3   0.122200 0.002104 0.503324 0.053295
C13   C     C_R   0.715156 0.355562 0.341301 -0.149961
C14   C     C_R   0.327116 0.761962 0.646532 0.032019
C15   C     C_R   0.299720 0.675525 0.690964 -0.144267
C16   C     C_R   0.480265 0.145116 0.713333 0.559294
C17   C     C_R   0.371992 0.576816 0.646842 -0.014614
C18   C     C_R   0.465387 0.557754 0.546625 0.006457
C19   C     C_R   0.495413 0.654849 0.509931 0.168226
C20   C     C_R   0.534411 0.451332 0.483540 -0.015049
C21   C     C_R   0.641597 0.453842 0.399645 0.037248
C22   C     C_R   0.673420 0.552899 0.371876 -0.181480
C23   C     C_3   0.037133 0.920073 0.559550 -0.242730
C24   C     C_R   0.599705 0.648900 0.423049 -0.103005
C25   C     C_R   0.499570 0.339463 0.494676 0.033099
C26   C     C_R   0.681068 0.252860 0.363471 0.037908
C27   C     C_R   0.260070 0.001564 0.502358 0.587333
C28   C     C_3   0.938802 0.134070 0.569051 -0.202226
C29   C     C_3   0.085071 0.135445 0.566537 0.167459
C30   C     C_3   0.894220 0.923043 0.561777 -0.258903
C31   C     C_3   0.950884 0.943592 0.374548 -0.123119
C32   C     C_3   0.878209 0.000774 0.500335 0.032445
C33   C     C_3   0.358356 0.509619 0.721046 -0.404013
C34   C     C_3   0.095760 0.948155 0.377646 -0.262330
C35   C     C_3   0.057286 0.213922 0.772382 -0.130678
C36   C     C_3   0.933233 0.000451 0.296313 -0.422332
C37   C     C_R   0.315084 0.278975 0.016587 -0.141693
C38   C     C_R   0.451449 0.228142 0.834003 0.006790
C39   C     C_R   0.609547 0.814120 0.087597 -0.138032
C40   C     C_R   0.639932 0.734312 0.973692 -0.143133
C41   C     C_R   0.590771 0.611527 0.934941 -0.126581
Cu1   Cu    Cu3+1 0.529690 0.098270 0.475420 0.923915
Cu2   Cu    Cu3+1 0.470310 0.901730 0.524580 0.903739
H1    H     H_    0.883747 0.171159 0.656371 0.104534
H2    H     H_    0.620397 0.555174 0.845828 0.100236
H3    H     H_    0.705578 0.766950 0.915755 0.112774
H4    H     H_    0.926958 0.194972 0.530924 0.107944
H5    H     H_    0.314747 0.676087 0.270736 0.142198
H6    H     H_    0.738450 0.177487 0.320090 0.111183
H7    H     H_    0.754311 0.554682 0.306912 0.101720
H8    H     H_    0.798388 0.358108 0.278670 0.083537
H9    H     H_    0.411488 0.322466 0.544772 0.145445
H10   H     H_    0.273698 0.840124 0.685336 0.122314
H11   H     H_    0.226075 0.689768 0.764830 0.096914
H12   H     H_    0.124393 0.854000 0.329346 0.101097
H13   H     H_    0.629624 0.717860 0.392436 0.183905
H14   H     H_    0.133834 0.181635 0.510252 0.132572
H15   H     H_    0.845755 0.961276 0.652108 0.120189
H16   H     H_    0.058504 0.948268 0.647314 0.125599
H17   H     H_    0.910870 0.845467 0.333789 0.127630
H18   H     H_    0.156811 0.003707 0.333988 0.122014
H19   H     H_    0.280321 0.432318 0.697522 0.169678
H20   H     H_    0.450600 0.478625 0.716041 0.133324
H21   H     H_    0.332588 0.571145 0.813041 0.137731
H22   H     H_    0.993733 0.128489 0.763403 0.100106
H23   H     H_    0.848386 0.827388 0.518636 0.133232
H24   H     H_    0.999550 0.291232 0.804112 0.118433
H25   H     H_    0.117744 0.234736 0.838910 0.144380
H26   H     H_    0.831704 0.982258 0.281184 0.150987
H27   H     H_    0.963759 0.100418 0.333221 0.130114
H28   H     H_    0.991955 0.957762 0.211048 0.119959
H29   H     H_    0.058962 0.823752 0.509187 0.124289
H30   H     H_    0.316680 0.097378 0.882143 0.115638
H31   H     H_    0.235570 0.463128 0.210701 0.101016
H32   H     H_    0.241657 0.249910 0.072912 0.097872
H33   H     H_    0.579714 0.372159 0.810506 0.109510
H34   H     H_    0.656099 0.907397 0.117120 0.120129
N1    N     N_R   0.574690 0.246280 0.438200 -0.237037
N2    N     N_R   0.426100 0.754320 0.561190 -0.238355
O1    O     O_R   0.537340 0.972510 0.318130 -0.507386
O2    O     O_R   0.487200 0.806530 0.359650 -0.525645
O3    O     O_R   0.707380 0.082980 0.479220 -0.509665
O4    O     O_R   0.657240 0.917000 0.520740 -0.525650
O5    O     O_R   0.512800 0.193470 0.640350 -0.498059
O6    O     O_R   0.462660 0.027490 0.681870 -0.504848
O7    O     O_R   0.342760 0.083000 0.479260 -0.495489
O8    O     O_R   0.292620 0.917020 0.520780 -0.524162
O9    O     O_3   0.139282 0.205830 0.670681 -0.579606

loop_
_geom_bond_atom_site_label_1
_geom_bond_atom_site_label_2
_ccdc_geom_bond_type
C28   H4    S    
Cu1   O1    S    
C12   C29   S    
Cu2   O4    S    
Cu1   O3    S    
C7    C8    A    
C23   H16   S    
C12   C23   S    
C26   N1    A    
C10   C37   A    
C39   H34   S    
C28   C29   S    
C5    C6    A    
C11   C39   A    
C10   H30   S    
C20   C25   A    
C35   H22   S    
C2    C41   A    
C1    O2    A    
C16   O5    A    
C18   C19   A    
C29   O9    S    
C13   H8    S    
C33   H19   S    
C1    C11   S    
Cu1   O7    S    
C9    H33   S    
C23   C30   S    
C36   H28   S    
C22   H7    S    
C37   H32   S    
C34   H12   S    
C21   C22   A    
C17   C33   S    
C36   H27   S    
C7    H31   S    
C31   C34   S    
C12   C27   S    
C25   N1    A    
Cu2   O6    S    
C15   H11   S    
C28   C32   S    
Cu1   O5    S    
C3    C8    A    
C26   H6    S    
C39   C40   A    
C28   H1    S    
C34   H18   S    
C31   H17   S    
C27   O7    A    
C40   H3    S    
C8    H5    S    
C5    C9    A    
C35   O9    S    
C31   C32   S    
C35   H24   S    
C33   H20   S    
C17   C18   A    
C6    C37   A    
C13   C21   A    
C30   H23   S    
C14   N2    A    
C27   O8    A    
C4    C32   S    
C40   C41   A    
C29   H14   S    
Cu1   N1    S    
C16   O6    A    
Cu2   O2    S    
C22   C24   A    
C13   C26   A    
C2    C5    A    
Cu1   Cu2   S    
C12   C34   S    
C36   H26   S    
C15   C17   A    
C14   C15   A    
C23   H29   S    
C6    C7    A    
C24   H13   S    
C10   C38   A    
Cu2   O8    S    
C2    C3    A    
C25   H9    S    
C30   C32   S    
C4    O4    A    
C35   H25   S    
C33   H21   S    
C30   H15   S    
C9    C38   A    
C19   C24   A    
C18   C20   A    
C3    C11   A    
C14   H10   S    
C4    O3    A    
C20   C21   A    
C1    O1    A    
C41   H2    S    
C31   C36   S    
Cu2   N2    S    
C19   N2    A    
C16   C38   S    
