data_str_m3_o4_o16_f0_pcu.sym.203
_audit_creation_date              2012-12-10T20:30:11-0500
_audit_creation_method            fapswitch 2.2
_symmetry_space_group_name_H-M    P1
_symmetry_Int_Tables_number       1
_space_group_crystal_system       triclinic
_cell_length_a                    9.876391
_cell_length_b                    10.662482
_cell_length_c                    13.181838
_cell_angle_alpha                 90.775861
_cell_angle_beta                  69.589117
_cell_angle_gamma                 89.476776
_cell_volume                      1300.72311225

loop_
_atom_site_label
_atom_site_type_symbol
_atom_type_description
_atom_site_fract_x
_atom_site_fract_y
_atom_site_fract_z
_atom_type_partial_charge
C1    C     C_R   0.502231 0.740094 0.495030 0.879119
C2    C     C_R   0.455381 0.528857 0.972460 0.072444
C3    C     C_R   0.462380 0.465089 0.875894 0.059044
C4    C     C_R   0.557296 0.492633 0.020968 0.085823
C5    C     C_R   0.675009 0.411392 0.965296 0.132230
C6    C     C_R   0.678137 0.349684 0.870969 -0.276382
C7    C     C_R   0.568211 0.370627 0.830533 -0.204620
C8    C     C_R   0.534583 0.520937 0.128625 -0.323918
C9    C     C_R   0.762782 0.421632 0.115908 0.195136
C10   C     C_R   0.368103 0.501353 0.822414 -0.127812
C11   C     C_R   0.414864 0.936035 0.441285 0.136003
C12   C     C_R   0.419471 0.495257 0.704246 0.865180
C13   C     C_R   0.515711 0.870892 0.473438 -0.138962
C14   C     C_R   0.636632 0.933949 0.480240 -0.216380
C15   C     C_R   0.637299 0.063262 0.480100 -0.237064
C16   C     C_R   0.516891 0.128489 0.473473 -0.100657
C17   C     C_R   0.414865 0.064630 0.442276 0.085387
C18   C     C_3   0.253730 0.075048 0.482643 -0.489361
C19   C     C_3   0.253548 0.932409 0.482332 -0.030603
C20   C     C_R   0.900098 0.588023 0.559261 0.166316
C21   C     C_R   0.959515 0.420502 0.434341 -0.151937
C22   C     C_R   0.103386 0.420601 0.434212 -0.131482
C23   C     C_R   0.503137 0.259883 0.494977 0.873691
C24   C     C_R   0.042894 0.588170 0.559476 0.161997
C25   C     C_3   0.991430 0.606247 0.680002 -0.067815
C26   C     C_3   0.836714 0.606314 0.679117 -0.060379
C27   C     C_R   0.580953 0.497306 0.295548 0.881000
C28   C     C_R   0.781453 0.383919 0.009684 -0.204125
C29   C     C_R   0.632520 0.484449 0.177632 -0.083053
C30   C     C_R   0.245524 0.574040 0.877050 -0.266924
C31   C     C_R   0.235645 0.636540 0.972296 -0.146758
C32   C     C_R   0.347908 0.626395 0.013751 0.209938
H1    H     H_    0.725069 0.110847 0.495207 0.169418
H2    H     H_    0.208312 0.117285 0.565451 0.186467
H3    H     H_    0.213361 0.118205 0.422078 0.204863
H4    H     H_    0.210185 0.893590 0.564408 0.170597
H5    H     H_    0.929832 0.354247 0.383165 0.148050
H6    H     H_    0.182215 0.354754 0.382583 0.151670
H7    H     H_    0.016283 0.522968 0.720791 0.153277
H8    H     H_    0.777212 0.523102 0.719141 0.184508
H9    H     H_    0.762637 0.281630 0.830567 0.146362
H10   H     H_    0.874519 0.326521 0.963883 0.136592
H11   H     H_    0.432192 0.560660 0.178833 0.197027
H12   H     H_    0.167112 0.595582 0.839621 0.174321
H13   H     H_    0.148882 0.704675 0.006297 0.152708
H14   H     H_    0.569663 0.315592 0.760463 0.160058
H15   H     H_    0.724175 0.885147 0.495434 0.172056
N1    N     N_R   0.856940 0.500860 0.500710 -0.115044
N2    N     N_R   0.142580 0.500820 0.500710 -0.119790
O1    O     O_R   0.385310 0.683210 0.499990 -0.615509
O2    O     O_R   0.614650 0.683240 0.500000 -0.612237
O3    O     O_R   0.328390 0.499940 0.653610 -0.612640
O4    O     O_R   0.557730 0.499980 0.653620 -0.614587
O5    O     O_R   0.385350 0.316760 0.500000 -0.615702
O6    O     O_R   0.614690 0.316790 0.500010 -0.630599
O7    O     O_R   0.442270 0.500020 0.346380 -0.620393
O8    O     O_R   0.671610 0.500060 0.346390 -0.605876
Zn1   Zn    Zn3+2 0.346870 0.499980 0.499990 0.929577
Zn2   Zn    Zn3+2 0.653130 0.500020 0.500010 0.931184
C33   C     C_3   0.875427 0.383650 0.163142 -0.889890
H16   H     H_    0.828212 0.318206 0.230810 0.239758
H17   H     H_    0.969428 0.335275 0.102118 0.229589
H18   H     H_    0.916492 0.468133 0.192522 0.254804
C34   C     C_3   0.192881 0.873199 0.401014 -0.861660
H19   H     H_    0.241480 0.914928 0.319670 0.246297
H20   H     H_    0.216055 0.770782 0.393721 0.259854
H21   H     H_    0.073955 0.888126 0.429895 0.233615
C35   C     C_3   0.042407 0.728566 0.716115 -0.876732
H22   H     H_    0.991128 0.740514 0.805217 0.237301
H23   H     H_    0.161385 0.724995 0.694964 0.250244
H24   H     H_    0.013737 0.811088 0.677409 0.244032
C36   C     C_3   0.745919 0.727647 0.712794 -0.807576
H25   H     H_    0.795543 0.806616 0.659015 0.224728
H26   H     H_    0.637131 0.712899 0.708388 0.254325
H27   H     H_    0.731899 0.753244 0.797808 0.242624
C37   C     C_3   0.359370 0.734282 0.085850 -0.978052
H28   H     H_    0.283242 0.721512 0.169747 0.245072
H29   H     H_    0.471451 0.746163 0.084452 0.253803
H30   H     H_    0.330427 0.824073 0.056103 0.246426

loop_
_geom_bond_atom_site_label_1
_geom_bond_atom_site_label_2
_ccdc_geom_bond_type
O6    Zn2   S    
C27   C29   S    
C26   C36   S    
C37   H30   S    
C4    C8    A    
O4    Zn2   S    
C11   C19   S    
N1    Zn2   S    
C33   H18   S    
C8    C29   A    
C33   H17   S    
C37   H29   S    
C3    C7    A    
C19   H4    S    
O5    Zn1   S    
C30   C31   A    
O8    Zn2   S    
C15   C16   A    
C22   H6    S    
C2    C32   A    
C18   C19   S    
C35   H22   S    
C20   C24   A    
C16   C17   A    
C6    H9    S    
C8    H11   S    
C1    O1    A    
C12   O4    A    
C9    C29   A    
C21   N1    A    
C21   C22   A    
C30   H12   S    
C25   C35   S    
C36   H27   S    
C10   C12   S    
C12   O3    A    
C6    C7    A    
O1    Zn1   S    
C7    H14   S    
C37   H28   S    
C36   H26   S    
C27   O8    A    
C27   O7    A    
C4    C5    A    
C25   C26   S    
N2    Zn1   S    
C33   H16   S    
C34   H20   S    
C1    C13   S    
C2    C4    A    
C34   H21   S    
C5    C28   A    
C18   H2    S    
C10   C30   A    
C31   C32   A    
C19   C34   S    
C17   C18   S    
C24   C25   S    
C1    O2    A    
C20   N1    A    
O3    Zn1   S    
C22   N2    A    
C16   C23   S    
O2    Zn2   S    
C23   O5    A    
C18   H3    S    
C24   N2    A    
C11   C17   A    
C36   H25   S    
C32   C37   S    
C23   O6    A    
C14   H15   S    
C9    C33   S    
C34   H19   S    
C2    C3    A    
C3    C10   A    
C25   H7    S    
C11   C13   A    
C26   H8    S    
C5    C6    A    
C20   C26   S    
C35   H24   S    
C28   H10   S    
O7    Zn1   S    
C21   H5    S    
C35   H23   S    
C31   H13   S    
C14   C15   A    
C13   C14   A    
C15   H1    S    
C9    C28   A    
