data_str_m2_o1_o14_f0_pcu.sym.41
_audit_creation_date              2012-10-26T21:00:42-0400
_audit_creation_method            fapswitch 2.2
_symmetry_space_group_name_H-M    P1
_symmetry_Int_Tables_number       1
_space_group_crystal_system       triclinic
_cell_length_a                    10.917347
_cell_length_b                    9.553479
_cell_length_c                    10.814427
_cell_angle_alpha                 89.565461
_cell_angle_beta                  88.812006
_cell_angle_gamma                 90.052487
_cell_volume                      1127.65455561

loop_
_atom_site_label
_atom_site_type_symbol
_atom_type_description
_atom_site_fract_x
_atom_site_fract_y
_atom_site_fract_z
_atom_type_partial_charge
C1    C     C_R   0.262428 0.500548 0.507835 0.547272
C2    C     C_R   0.501350 0.499438 0.737302 0.535386
C3    C     C_R   0.699821 0.644505 0.120193 -0.115119
C4    C     C_R   0.702354 0.633749 0.862454 -0.114131
C5    C     C_R   0.793731 0.709238 0.051091 -0.129544
C6    C     C_R   0.795709 0.702322 0.923156 -0.130065
C7    C     C_R   0.604632 0.570085 0.930051 0.025592
C8    C     C_R   0.604170 0.573561 0.060881 0.022103
C9    C     C_R   0.510444 0.501383 0.128035 -0.001134
C10   C     C_R   0.509786 0.498198 0.870475 0.001991
C11   C     C_R   0.421845 0.424635 0.066316 -0.159163
C12   C     C_R   0.738112 0.500964 0.500782 0.530771
C13   C     C_R   0.421156 0.423576 0.938486 -0.162054
C14   C     C_R   0.063392 0.378552 0.512298 -0.161524
C15   C     C_R   0.936857 0.379178 0.510521 -0.159072
C16   C     C_R   0.872337 0.505402 0.508035 -0.010161
C17   C     C_R   0.128605 0.503999 0.519653 -0.008294
C18   C     C_R   0.879686 0.770766 0.489240 0.071608
C19   C     C_R   0.863741 0.808137 0.365482 -0.085073
C20   C     C_R   0.816520 0.939005 0.334152 -0.123456
C21   C     C_R   0.788621 0.035075 0.426928 -0.101171
C22   C     C_R   0.808642 0.000559 0.550882 -0.113219
C23   C     C_R   0.937244 0.633848 0.516771 -0.036975
C24   C     C_R   0.852723 0.868002 0.582306 -0.073455
C25   C     C_R   0.126180 0.764880 0.565182 0.068849
C26   C     C_R   0.152018 0.792303 0.689265 -0.083930
C27   C     C_R   0.199322 0.922404 0.722556 -0.122758
C28   C     C_R   0.220392 0.025660 0.632360 -0.101449
C29   C     C_R   0.196701 0.997893 0.508397 -0.105556
C30   C     C_R   0.150602 0.867721 0.474532 -0.060782
C31   C     C_R   0.064360 0.631981 0.532367 -0.034709
C32   C     C_R   0.475440 0.074861 0.394978 -0.003861
C33   C     C_R   0.524012 0.073281 0.605143 -0.001400
C34   C     C_R   0.475447 0.926676 0.394992 0.019173
C35   C     C_R   0.524185 0.925072 0.605109 0.030949
C36   C     C_R   0.503876 0.500550 0.262314 0.538960
Cu1   Cu    Cu3+1 0.500000 0.640660 0.500000 0.945683
Cu2   Cu    Cu3+1 0.500000 0.359340 0.500000 0.905141
H1    H     H_    0.351172 0.367681 0.117569 0.117713
H2    H     H_    0.544701 0.127105 0.689638 0.113189
H3    H     H_    0.454494 0.872798 0.310592 0.113917
H4    H     H_    0.545330 0.870086 0.689584 0.116133
H5    H     H_    0.891149 0.735413 0.294483 0.083263
H6    H     H_    0.803082 0.966680 0.238182 0.101936
H7    H     H_    0.751971 0.136313 0.402289 0.143429
H8    H     H_    0.789053 0.076061 0.622690 0.103483
H9    H     H_    0.868578 0.842528 0.677930 0.086678
H10   H     H_    0.133106 0.714088 0.760157 0.093750
H11   H     H_    0.218346 0.943740 0.818405 0.098530
H12   H     H_    0.349713 0.366477 0.892246 0.114691
H13   H     H_    0.255903 0.126819 0.658390 0.127653
H14   H     H_    0.214267 0.077010 0.438202 0.105036
H15   H     H_    0.131669 0.847793 0.378361 0.095508
H16   H     H_    0.704073 0.648081 0.219685 0.136947
H17   H     H_    0.709517 0.628537 0.762779 0.134230
H18   H     H_    0.867142 0.763629 0.095553 0.099060
H19   H     H_    0.871159 0.748944 0.871349 0.100168
H20   H     H_    0.110112 0.279239 0.506988 0.134295
H21   H     H_    0.889939 0.280200 0.506999 0.134979
H22   H     H_    0.454314 0.129830 0.310500 0.113693
N1    N     N_R   0.500000 0.852070 0.500000 -0.212310
N2    N     N_R   0.500000 0.147940 0.500000 -0.234119
O1    O     O_R   0.319640 0.618740 0.499990 -0.484265
O2    O     O_R   0.680360 0.618740 0.500010 -0.497829
O3    O     O_R   0.319620 0.381170 0.499990 -0.513194
O4    O     O_R   0.680380 0.381170 0.500010 -0.513826
O5    O     O_R   0.500000 0.618810 0.319650 -0.516516
O6    O     O_R   0.500000 0.618810 0.680350 -0.516883
O7    O     O_R   0.499970 0.381240 0.319640 -0.510316
O8    O     O_R   0.500030 0.381240 0.680360 -0.514447

loop_
_geom_bond_atom_site_label_1
_geom_bond_atom_site_label_2
_ccdc_geom_bond_type
C23   C31   A    
C25   C31   S    
C7    C10   A    
C1    O3    A    
Cu2   O8    S    
C12   O4    A    
Cu1   Cu2   S    
C18   C23   S    
C9    C36   S    
C11   C13   A    
C5    H18   S    
Cu1   N1    S    
C19   C20   A    
C14   C17   A    
Cu2   O3    S    
C26   H10   S    
C3    C5    A    
Cu2   O7    S    
C32   N2    A    
C7    C8    A    
C35   N1    A    
C2    O8    A    
C21   C22   A    
C20   C21   A    
C11   H1    S    
C9    C11   A    
C6    H19   S    
C26   C27   A    
C29   C30   A    
C34   H3    S    
C15   H21   S    
C3    H16   S    
C4    C7    A    
C18   C24   A    
C1    O1    A    
C4    C6    A    
C28   C29   A    
C20   H6    S    
C17   C31   A    
C19   H5    S    
C3    C8    A    
C16   C23   A    
C2    O6    A    
C22   H8    S    
C4    H17   S    
C5    C6    A    
C12   O2    A    
C28   H13   S    
C22   C24   A    
C36   O5    A    
C33   H2    S    
C32   H22   S    
C27   H11   S    
C13   H12   S    
C2    C10   S    
Cu1   O6    S    
Cu1   O5    S    
C25   C30   A    
Cu1   O2    S    
C36   O7    A    
C30   H15   S    
C18   C19   A    
C27   C28   A    
C35   H4    S    
Cu2   O4    S    
C14   C15   A    
C8    C9    A    
C12   C16   S    
C33   C35   A    
C25   C26   A    
Cu1   O1    S    
C24   H9    S    
C1    C17   S    
C10   C13   A    
C34   N1    A    
C15   C16   A    
C14   H20   S    
Cu2   N2    S    
C33   N2    A    
C21   H7    S    
C29   H14   S    
C32   C34   A    
