data_str_m9_o11_o16_f0_sra.sym.77
_audit_creation_date              2012-12-11T14:17:48-0500
_audit_creation_method            fapswitch 2.2
_symmetry_space_group_name_H-M    P1
_symmetry_Int_Tables_number       1
_space_group_crystal_system       triclinic
_cell_length_a                    6.950604
_cell_length_b                    13.683007
_cell_length_c                    20.468772
_cell_angle_alpha                 102.231597
_cell_angle_beta                  89.456489
_cell_angle_gamma                 90.43074
_cell_volume                      1902.37877083

loop_
_atom_site_label
_atom_site_type_symbol
_atom_type_description
_atom_site_fract_x
_atom_site_fract_y
_atom_site_fract_z
_atom_type_partial_charge
O1    O     O_R   0.506860 0.599390 0.449240 -0.541065
O2    O     O_R   0.180220 0.594600 0.586780 -0.543968
O3    O     O_R   0.004500 0.400610 0.550760 -0.540619
C1    C     C_R   0.347693 0.616323 0.612845 0.730003
O4    O     O_R   0.177490 0.611290 0.451970 -0.541103
O5    O     O_R   0.001750 0.417420 0.414990 -0.511124
C2    C     C_R   0.347358 0.637615 0.435532 0.709710
O6    O     O_R   0.509610 0.582580 0.585010 -0.544493
O7    O     O_3   0.337420 0.436370 0.488020 -0.366843
V1    V     V_3+5 0.064680 0.511800 0.502220 1.444602
O8    O     O_R   0.671710 0.405400 0.413220 -0.550705
C3    C     C_R   0.840843 0.385886 0.385900 0.768296
O9    O     O_R   0.674440 0.388710 0.548030 -0.544519
C4    C     C_R   0.842732 0.362996 0.565510 0.686230
V2    V     V_3+5 0.564010 0.488200 0.497780 1.425786
O10   O     O_3   0.841140 0.563630 0.511980 -0.378018
C5    C     C_R   0.933452 0.118184 0.614085 -0.163964
H1    H     H_    0.927436 0.167935 0.521570 0.103521
H2    H     H_    0.965669 0.994719 0.696743 0.123428
H3    H     H_    0.968323 0.042151 0.589407 0.112440
C6    C     C_R   0.853987 0.286227 0.605516 -0.029851
C7    C     C_R   0.842770 0.314114 0.929873 -0.239172
C8    C     C_R   0.854331 0.391909 0.896239 -0.087570
C9    C     C_R   0.878348 0.373727 0.826833 0.205382
C10   C     C_R   0.877166 0.272784 0.788434 0.022617
C11   C     C_R   0.883986 0.193932 0.824644 0.042884
C12   C     C_R   0.877285 0.245823 0.716501 0.076617
C13   C     C_R   0.916946 0.145197 0.684028 0.149501
C14   C     C_R   0.937376 0.071656 0.721236 -0.211922
C15   C     C_R   0.915511 0.094957 0.790082 -0.186915
C16   C     C_R   0.831776 0.313159 0.675120 -0.234413
C17   C     C_R   0.907646 0.189067 0.575275 -0.169737
C18   C     C_R   0.863873 0.215582 0.895246 -0.071328
H4    H     H_    0.775777 0.386353 0.695103 0.109710
H5    H     H_    0.827533 0.331257 0.983842 0.116156
H6    H     H_    0.853087 0.468114 0.925015 0.137156
H7    H     H_    0.928172 0.034556 0.816305 0.109451
C19   C     C_2   0.002220 0.309360 0.276501 0.232023
C20   C     C_2   0.847141 0.319333 0.318286 -0.290827
H8    H     H_    0.715123 0.279046 0.302714 0.085349
C21   C     C_2   0.005045 0.241313 0.208586 -0.201472
C22   C     C_2   0.855402 0.186751 0.178979 -0.359690
H9    H     H_    0.140308 0.237490 0.181345 0.138908
H10   H     H_    0.715029 0.192924 0.202657 0.134165
C23   C     C_2   0.216192 0.773707 0.787777 -0.207666
C24   C     C_2   0.375682 0.808662 0.822461 0.156115
H11   H     H_    0.077594 0.797284 0.809689 0.119571
C25   C     C_2   0.213816 0.699831 0.722616 -0.124525
C26   C     C_2   0.355049 0.690636 0.676005 -0.327574
H12   H     H_    0.085967 0.653165 0.712132 0.140080
H13   H     H_    0.478455 0.739719 0.682422 0.161109
C27   C     C_R   0.473906 0.878756 0.388688 -0.142561
H14   H     H_    0.467833 0.826403 0.480087 0.102473
H15   H     H_    0.540978 0.998794 0.307437 0.127984
H16   H     H_    0.530687 0.951264 0.412925 0.111438
C28   C     C_R   0.363129 0.714990 0.397034 -0.037931
C29   C     C_R   0.288380 0.694790 0.076959 -0.181924
C30   C     C_R   0.256351 0.621292 0.113069 -0.113397
C31   C     C_R   0.283144 0.641795 0.181786 -0.138190
C32   C     C_R   0.344950 0.737448 0.216716 0.032795
C33   C     C_R   0.384068 0.812975 0.179303 0.026044
C34   C     C_R   0.369730 0.759930 0.287646 0.065473
C35   C     C_R   0.442153 0.855108 0.319540 0.101588
C36   C     C_R   0.484439 0.926426 0.282606 -0.257299
C37   C     C_R   0.452887 0.908019 0.214050 0.226990
C38   C     C_R   0.327341 0.690930 0.328416 -0.201093
C39   C     C_R   0.436859 0.808468 0.427084 -0.175690
C40   C     C_R   0.351919 0.790017 0.108683 -0.081690
H17   H     H_    0.271459 0.617057 0.308651 0.102923
H18   H     H_    0.262332 0.677398 0.023592 0.108475
H19   H     H_    0.255208 0.580363 0.205829 0.101207
H20   H     H_    0.208304 0.547707 0.087609 0.117646
O11   O     O_R   0.203230 0.917310 0.915020 -0.558984
O12   O     O_R   0.535500 0.888690 0.048040 -0.530194
O13   O     O_R   0.711080 0.082610 0.085000 -0.535901
C41   C     C_R   0.366050 0.864519 0.066724 0.777054
O14   O     O_R   0.532630 0.905370 0.913230 -0.527071
O15   O     O_R   0.708190 0.099410 0.949230 -0.540377
C42   C     C_R   0.366259 0.882826 0.886975 0.701622
O16   O     O_R   0.206120 0.900510 0.050790 -0.544347
O17   O     O_3   0.375360 0.063570 0.011990 -0.373144
V3    V     V_3+5 0.648170 0.988200 0.997780 1.444799
O18   O     O_R   0.038240 0.111390 0.951940 -0.542796
C43   C     C_R   0.870249 0.137083 0.934462 0.692365
O19   O     O_R   0.041120 0.094710 0.086750 -0.546228
C44   C     C_R   0.871341 0.117737 0.112707 0.747308
V4    V     V_3+5 0.148810 0.011930 0.002180 1.408716
O20   O     O_3   0.871750 0.936430 0.988010 -0.372197
N1    N     N_2   0.561623 0.768915 0.801853 -0.506141
H21   H     H_    0.571462 0.693985 0.779886 0.266713
C45   C     C_3   0.694642 0.835943 0.777990 -0.546355
H22   H     H_    0.791782 0.792620 0.739231 0.173990
H23   H     H_    0.782756 0.876311 0.820101 0.211463
H24   H     H_    0.617024 0.891486 0.755582 0.188925
N2    N     N_2   0.496885 0.986411 0.180943 -0.511247
H25   H     H_    0.635351 0.012663 0.190296 0.250358
C46   C     C_3   0.358118 0.066434 0.192993 -0.513298
H26   H     H_    0.387485 0.117107 0.158358 0.204004
H27   H     H_    0.368564 0.110209 0.245191 0.162853
H28   H     H_    0.209994 0.035755 0.184198 0.207527
N3    N     N_3   0.934973 0.458735 0.800382 -0.693890
H29   H     H_    0.036428 0.439542 0.761878 0.237208
H30   H     H_    0.813624 0.493628 0.786306 0.221566
N4    N     N_3   0.174038 0.366052 0.296991 -0.641918
H31   H     H_    0.287278 0.315798 0.295765 0.214868
H32   H     H_    0.204528 0.409598 0.261880 0.205760

loop_
_geom_bond_atom_site_label_1
_geom_bond_atom_site_label_2
_ccdc_geom_bond_type
O18   V4    S    
V4    O20   S    
N3    H29   S    
C21   C22   D    
N2    H25   S    
C1    O6    A    
N4    H32   S    
O17   V3    S    
C24   N1    S    
O19   C44   A    
C7    H5    S    
C6    C16   A    
C34   C35   A    
O12   C41   A    
C4    C6    S    
C13   C14   A    
O16   V4    S    
O5    C3    A    
C19   C20   D    
V3    O20   S    
C38   H17   S    
V2    O10   S    
C5    H3    S    
C32   C34   A    
C9    N3    S    
O11   V4    S    
C19   N4    S    
O13   C44   A    
O8    V2    S    
C26   H13   S    
C8    C9    A    
C22   C44   S    
C29   H18   S    
N1    C45   S    
O7    V1    S    
C27   H16   S    
C25   H12   S    
C31   C32   A    
N3    H30   S    
O9    C4    A    
C21   H9    S    
C22   H10   S    
C2    C28   S    
O12   V3    S    
N4    H31   S    
C46   H27   S    
C46   H26   S    
C23   H11   S    
C6    C17   A    
C34   C38   A    
O19   V4    S    
C12   C16   A    
O14   C42   A    
C9    C10   A    
C19   C21   S    
C20   H8    S    
O4    C2    A    
C30   C31   A    
C23   C24   D    
C15   H7    S    
C32   C33   A    
O2    C1    A    
C14   C15   A    
O15   C43   A    
C45   H23   S    
O15   V3    S    
C11   C18   A    
O18   C43   A    
O11   C42   A    
C16   H4    S    
O3    C4    A    
O17   V4    S    
C27   C39   A    
O1    V2    S    
C25   C26   D    
C11   C15   A    
O6    V2    S    
O9    V2    S    
C10   C12   A    
H1    C17   S    
C29   C40   A    
O2    V1    S    
C45   H22   S    
C46   H28   S    
C23   C25   S    
C7    C18   A    
O1    C2    A    
C5    C13   A    
C41   O16   A    
C27   C35   A    
O5    V1    S    
O8    C3    A    
N2    C46   S    
O13   V3    S    
C40   C41   S    
C28   C39   A    
C1    C26   S    
C36   C37   A    
C3    C20   S    
C10   C11   A    
O4    V1    S    
O3    V1    S    
V1    O10   S    
C45   H24   S    
C33   C40   A    
C30   H20   S    
C29   C30   A    
C24   C42   S    
H15   C36   S    
O14   V3    S    
C28   C38   A    
O7    V2    S    
H14   C39   S    
C18   C43   S    
C35   C36   A    
C33   C37   A    
C37   N2    S    
C8    H6    S    
C12   C13   A    
C5    C17   A    
C7    C8    A    
N1    H21   S    
C31   H19   S    
H2    C14   S    
