data_str_m9_o1_o16_f0_sra.sym.32
_audit_creation_date              2012-12-11T15:47:03-0500
_audit_creation_method            fapswitch 2.2
_symmetry_space_group_name_H-M    P1
_symmetry_Int_Tables_number       1
_space_group_crystal_system       triclinic
_cell_length_a                    20.245616
_cell_length_b                    7.257025
_cell_length_c                    13.533887
_cell_angle_alpha                 90.001749
_cell_angle_beta                  103.245214
_cell_angle_gamma                 89.99809
_cell_volume                      1935.54284146

loop_
_atom_site_label
_atom_site_type_symbol
_atom_type_description
_atom_site_fract_x
_atom_site_fract_y
_atom_site_fract_z
_atom_type_partial_charge
O1    O     O_R   0.449560 0.506810 0.599700 -0.533247
O2    O     O_R   0.550440 0.006810 0.400300 -0.533102
O3    O     O_R   0.587960 0.180060 0.595760 -0.544366
O4    O     O_R   0.412040 0.680060 0.404240 -0.544514
C1    C     C_R   0.614969 0.344157 0.617390 0.687359
C2    C     C_R   0.385033 0.844158 0.382605 0.687362
O5    O     O_R   0.452380 0.177430 0.611700 -0.539092
O6    O     O_R   0.547620 0.677430 0.388300 -0.539238
O7    O     O_R   0.413900 0.001890 0.416350 -0.532247
O8    O     O_R   0.586100 0.501890 0.583650 -0.532448
C3    C     C_R   0.436031 0.345695 0.637043 0.738772
C4    C     C_R   0.563959 0.845686 0.362950 0.738617
O9    O     O_3   0.487530 0.337490 0.435890 -0.381205
O10   O     O_3   0.512470 0.837490 0.564110 -0.381206
V1    V     V_3+5 0.502310 0.064660 0.511890 1.473806
V2    V     V_3+5 0.497690 0.564660 0.488110 1.473327
C5    C     C_R   0.612793 0.903868 0.114910 -0.151623
C6    C     C_R   0.387201 0.404947 0.885028 -0.151624
H1    H     H_    0.521020 0.925997 0.166871 0.109845
H2    H     H_    0.478944 0.427078 0.832983 0.109865
H3    H     H_    0.693524 0.895169 0.986563 0.120076
H4    H     H_    0.306477 0.396796 0.013410 0.120104
H5    H     H_    0.586925 0.930090 0.036764 0.115129
H6    H     H_    0.413060 0.431686 0.963120 0.115133
C7    C     C_R   0.606166 0.854964 0.288675 -0.094477
C8    C     C_R   0.393837 0.355040 0.711339 -0.094614
C9    C     C_R   0.933295 0.875300 0.317742 -0.168140
C10   C     C_R   0.066720 0.374677 0.682253 -0.168147
C11   C     C_R   0.898387 0.892020 0.394397 -0.118292
C12   C     C_R   0.101627 0.391124 0.605580 -0.118274
C13   C     C_R   0.827734 0.889275 0.371321 -0.110222
C14   C     C_R   0.172283 0.388622 0.628672 -0.110067
C15   C     C_R   0.789887 0.860508 0.270722 0.092002
C16   C     C_R   0.210132 0.360415 0.729319 0.092225
C17   C     C_R   0.825904 0.858592 0.191777 0.069974
C18   C     C_R   0.174114 0.358847 0.808260 0.069925
C19   C     C_R   0.717241 0.851170 0.245014 0.018534
C20   C     C_R   0.282780 0.351291 0.755044 0.018664
C21   C     C_R   0.683179 0.878480 0.141745 0.135779
C22   C     C_R   0.316829 0.379260 0.858257 0.135763
C23   C     C_R   0.719530 0.880745 0.065658 -0.191631
C24   C     C_R   0.280478 0.381883 0.934342 -0.191625
C25   C     C_R   0.789590 0.863524 0.089880 -0.186631
C26   C     C_R   0.210424 0.364387 0.910150 -0.186620
C27   C     C_R   0.676699 0.818461 0.316926 -0.067200
C28   C     C_R   0.323327 0.318152 0.683187 -0.067593
C29   C     C_R   0.575160 0.900413 0.188645 -0.194765
C30   C     C_R   0.424824 0.401181 0.811280 -0.194641
C31   C     C_R   0.897749 0.861848 0.216557 -0.069396
C32   C     C_R   0.102267 0.361791 0.783463 -0.069369
H7    H     H_    0.988255 0.880793 0.336911 0.107356
H8    H     H_    0.011757 0.379917 0.663068 0.107355
H9    H     H_    0.803896 0.919900 0.432887 0.125430
H10   H     H_    0.196125 0.418940 0.567069 0.125153
H11   H     H_    0.926218 0.912093 0.472068 0.123902
H12   H     H_    0.073790 0.410756 0.527875 0.123869
H13   H     H_    0.815241 0.863633 0.027919 0.114661
H14   H     H_    0.184770 0.364779 0.972108 0.114641
C33   C     C_R   0.218544 0.023384 0.220185 -0.155961
C34   C     C_R   0.781476 0.523384 0.779745 -0.155967
H15   H     H_    0.195664 0.156507 0.198331 0.122853
H16   H     H_    0.804370 0.656506 0.801554 0.122921
C35   C     C_R   0.283720 0.018870 0.283563 -0.141372
C36   C     C_R   0.716301 0.518868 0.716366 -0.142140
H17   H     H_    0.308771 0.148151 0.308401 0.152298
H18   H     H_    0.691265 0.648149 0.691478 0.152413
C37   C     C_R   0.316002 0.850034 0.314126 -0.049191
C38   C     C_R   0.684002 0.350034 0.685863 -0.049236
C39   C     C_R   0.281275 0.685747 0.279190 -0.145824
C40   C     C_R   0.718714 0.185749 0.720848 -0.145294
H19   H     H_    0.304265 0.552732 0.301040 0.139045
H20   H     H_    0.695711 0.052735 0.699041 0.139196
C41   C     C_R   0.216150 0.690209 0.215631 -0.157514
C42   C     C_R   0.783838 0.190212 0.784407 -0.157445
H21   H     H_    0.191305 0.560804 0.190398 0.121558
H22   H     H_    0.808671 0.060809 0.809682 0.121549
C43   C     C_R   0.183728 0.859094 0.185337 -0.039983
C44   C     C_R   0.816275 0.359096 0.814651 -0.039983
O11   O     O_R   0.913920 0.203370 0.916260 -0.539729
O12   O     O_R   0.086080 0.703370 0.083740 -0.539748
O13   O     O_R   0.047620 0.535540 0.888290 -0.537047
O14   O     O_R   0.952380 0.035540 0.111710 -0.537041
C45   C     C_R   0.063399 0.368357 0.862105 0.680940
C46   C     C_R   0.936605 0.868365 0.137900 0.680932
O15   O     O_R   0.912040 0.532780 0.904220 -0.546025
O16   O     O_R   0.087960 0.032780 0.095780 -0.546015
O17   O     O_R   0.949550 0.708160 0.099720 -0.535516
O18   O     O_R   0.050450 0.208160 0.900280 -0.535491
C47   C     C_R   0.885433 0.364937 0.882977 0.676249
C48   C     C_R   0.114568 0.864935 0.117019 0.676253
O19   O     O_3   0.012480 0.375300 0.064060 -0.378366
O20   O     O_3   0.987520 0.875300 0.935940 -0.378354
V3    V     V_3+5 0.997690 0.648180 0.988110 1.416164
V4    V     V_3+5 0.002310 0.148180 0.011890 1.416204
C49   C     C_2   0.704493 0.721653 0.414631 0.707392
O21   O     O_2   0.692102 0.778064 0.493622 -0.579932
O22   O     O_R   0.745404 0.566032 0.415831 -0.656025
H23   H     H_    0.761404 0.512180 0.486412 0.296293
C50   C     C_2   0.295566 0.220481 0.585736 0.707573
O23   O     O_2   0.308047 0.275899 0.506620 -0.579859
O24   O     O_R   0.254574 0.065149 0.584927 -0.656043
H24   H     H_    0.238616 0.010613 0.514503 0.296256

loop_
_geom_bond_atom_site_label_1
_geom_bond_atom_site_label_2
_ccdc_geom_bond_type
C20   C22   A    
C28   C50   S    
C35   H17   S    
O24   H24   S    
O14   V4    S    
C9    C11   A    
C23   C25   A    
O15   V3    S    
C49   O21   D    
O1    C3    A    
C46   O17   A    
O2    C4    A    
C33   C43   A    
C2    O7    A    
O22   H23   S    
C18   C32   A    
C21   C23   A    
O5    C3    A    
C34   C44   A    
C5    H5    S    
C42   H22   S    
C6    H6    S    
C36   C38   A    
C31   C46   S    
H1    C29   S    
C34   H16   S    
C5    C21   A    
C39   H19   S    
C6    C22   A    
O16   V4    S    
C10   C32   A    
C26   H14   S    
C40   C42   A    
C13   C15   A    
C39   C41   A    
C17   C25   A    
C7    C29   A    
C8    C30   A    
O5    V1    S    
C45   O18   A    
O6    V2    S    
C41   H21   S    
C24   C26   A    
C1    C38   S    
C14   H10   S    
O13   C45   A    
C9    H7    S    
C32   C45   S    
O18   V4    S    
C44   C47   S    
C19   C21   A    
C35   C37   A    
C43   C48   S    
C33   H15   S    
O11   C47   A    
O11   V4    S    
O4    C2    A    
O16   C48   A    
O15   C47   A    
C11   H11   S    
C3    C8    S    
C12   H12   S    
C15   C19   A    
C37   C39   A    
C14   C16   A    
O4    V2    S    
C17   C31   A    
O13   V3    S    
C50   O23   D    
O6    C4    A    
O1    V2    S    
C13   H9    S    
O2    V1    S    
H2    C30   S    
H3    C23   S    
C2    C37   S    
C50   O24   S    
O14   C46   A    
C18   C26   A    
C19   C27   A    
C27   C49   S    
C7    C27   A    
O3    V1    S    
C16   C20   A    
C5    C29   A    
O3    C1    A    
C6    C30   A    
C49   O22   S    
C33   C35   A    
C4    C7    S    
C34   C36   A    
C10   C12   A    
O7    V1    S    
C1    O8    A    
C11   C13   A    
O8    V2    S    
O19   V4    S    
C12   C14   A    
C10   H8    S    
H4    C24   S    
O17   V3    S    
C22   C24   A    
O20   V3    S    
C15   C17   A    
C16   C18   A    
O12   C48   A    
C20   C28   A    
C25   H13   S    
C38   C40   A    
C42   C44   A    
O9    V2    S    
C41   C43   A    
O10   V1    S    
C40   H20   S    
O12   V3    S    
C8    C28   A    
C9    C31   A    
C36   H18   S    
