data_str_m2_o10_o18_f0_pcu.sym.11
_audit_creation_date              2012-10-26T19:59:05-0400
_audit_creation_method            fapswitch 2.2
_symmetry_space_group_name_H-M    P1
_symmetry_Int_Tables_number       1
_space_group_crystal_system       triclinic
_cell_length_a                    7.42343
_cell_length_b                    8.6877
_cell_length_c                    15.825221
_cell_angle_alpha                 94.32276
_cell_angle_beta                  74.778221
_cell_angle_gamma                 103.199692
_cell_volume                      958.654788736

loop_
_atom_site_label
_atom_site_type_symbol
_atom_type_description
_atom_site_fract_x
_atom_site_fract_y
_atom_site_fract_z
_atom_type_partial_charge
C1    C     C_R   0.545373 0.800221 0.502304 0.540305
C2    C     C_R   0.616907 0.512149 0.333482 0.551719
C3    C     C_R   0.310372 0.462061 0.761699 0.003386
C4    C     C_R   0.689268 0.527491 0.237623 -0.007068
C5    C     C_R   0.073791 0.340530 0.888757 -0.130675
C6    C     C_R   0.935915 0.620158 0.106913 -0.120879
C7    C     C_R   0.122465 0.380113 0.799609 0.250556
C8    C     C_R   0.881788 0.593737 0.197203 0.245610
C9    C     C_R   0.442122 0.507330 0.812948 -0.188206
C10   C     C_R   0.556584 0.484225 0.186604 -0.188047
C11   C     C_R   0.397547 0.464295 0.900996 0.008737
C12   C     C_R   0.454611 0.199779 0.497719 0.544677
C13   C     C_R   0.609127 0.507027 0.095691 0.012582
C14   C     C_R   0.209749 0.379229 0.938383 0.000689
C15   C     C_R   0.800865 0.581598 0.056883 -0.001179
C16   C     C_R   0.533825 0.503016 0.952720 0.032673
C17   C     C_R   0.475729 0.461637 0.042866 0.038830
C18   C     C_3   0.074080 0.789943 0.257014 -0.005927
C19   C     C_3   0.209755 0.822862 0.316646 -0.338027
C20   C     C_3   0.863538 0.201828 0.765336 -0.017234
C21   C     C_3   0.776776 0.154559 0.687651 -0.344963
C22   C     C_R   0.287444 0.373677 0.076718 -0.121028
C23   C     C_R   0.726712 0.579657 0.917229 -0.129647
C24   C     C_R   0.157956 0.333617 0.025355 -0.133287
C25   C     C_R   0.856852 0.617245 0.968381 -0.135304
C26   C     C_2   0.571537 0.968116 0.502587 -0.166118
C27   C     C_2   0.428401 0.031887 0.497499 -0.162611
C28   C     C_R   0.382955 0.486678 0.666458 0.558809
Cu1   Cu    Cu3+1 0.322120 0.483240 0.490330 0.954115
Cu2   Cu    Cu3+1 0.677880 0.516760 0.509670 0.946390
H1    H     H_    0.015037 0.266848 0.054371 0.112645
H2    H     H_    0.290014 0.960451 0.493427 0.120528
H3    H     H_    0.003698 0.614770 0.569023 0.244363
H4    H     H_    0.996337 0.385299 0.430942 0.246486
H5    H     H_    0.947828 0.841817 0.288576 0.126970
H6    H     H_    0.150407 0.848943 0.193534 0.115055
H7    H     H_    0.337647 0.772764 0.287087 0.164774
H8    H     H_    0.256475 0.952443 0.326066 0.083833
H9    H     H_    0.136316 0.768557 0.381420 0.188970
H10   H     H_    0.744813 0.208190 0.824442 0.133645
H11   H     H_    0.939101 0.108725 0.773290 0.118455
H12   H     H_    0.003436 0.674527 0.938072 0.115077
H13   H     H_    0.677769 0.036820 0.698804 0.085948
H14   H     H_    0.695775 0.242634 0.679106 0.187496
H15   H     H_    0.891720 0.148519 0.627034 0.170412
H16   H     H_    0.410513 0.437015 0.220262 0.145669
H17   H     H_    0.580202 0.576341 0.781539 0.131521
H18   H     H_    0.929169 0.281376 0.920385 0.103918
H19   H     H_    0.084284 0.670810 0.075809 0.121230
H20   H     H_    0.235266 0.330114 0.142501 0.115050
H21   H     H_    0.784954 0.609772 0.849349 0.128830
H22   H     H_    0.709886 0.039575 0.506696 0.122072
N1    N     N_2   0.945180 0.542040 0.524240 -0.259842
N2    N     N_2   0.054820 0.457960 0.475760 -0.255999
O1    O     O_R   0.384450 0.714270 0.493720 -0.515609
O2    O     O_3   0.989045 0.351569 0.749535 -0.544481
O3    O     O_R   0.615550 0.285730 0.506280 -0.513104
O4    O     O_R   0.684880 0.742590 0.510050 -0.507225
O5    O     O_R   0.315120 0.257410 0.489950 -0.502491
O6    O     O_R   0.265540 0.477900 0.617090 -0.445211
O7    O     O_R   0.734460 0.522100 0.382910 -0.454371
O8    O     O_R   0.565970 0.506210 0.633420 -0.519842
O9    O     O_R   0.434030 0.493790 0.366580 -0.516808
O10   O     O_3   0.018328 0.624916 0.244854 -0.546842

loop_
_geom_bond_atom_site_label_1
_geom_bond_atom_site_label_2
_ccdc_geom_bond_type
C25   H12   S    
C10   H16   S    
C2    C4    S    
C2    O7    A    
C9    H17   S    
Cu1   Cu2   S    
C3    C9    A    
C19   H8    S    
C26   H22   S    
C21   H14   S    
C19   H7    S    
C18   H5    S    
C3    C7    A    
C17   C22   A    
Cu1   O6    S    
C13   C17   A    
C20   O2    S    
C28   O6    A    
C20   H11   S    
C26   C27   D    
C24   H1    S    
C21   H13   S    
N1    N2    D    
C2    O9    A    
C9    C11   A    
C18   O10   S    
C5    C14   A    
C19   H9    S    
C7    O2    S    
C8    O10   S    
C12   O3    A    
Cu2   O4    S    
Cu1   O9    S    
Cu2   N1    S    
H4    N2    S    
C16   C23   A    
C21   H15   S    
C13   C15   A    
C6    H19   S    
H3    N1    S    
C1    C26   S    
C20   H10   S    
C5    H18   S    
C22   C24   A    
C1    O1    A    
C15   C25   A    
Cu1   N2    S    
C27   H2    S    
Cu2   O8    S    
C4    C10   A    
Cu2   O3    S    
C22   H20   S    
C23   C25   A    
C20   C21   S    
C18   C19   S    
C11   C16   A    
Cu2   O7    S    
C14   C24   A    
C11   C14   A    
C5    C7    A    
C12   C27   S    
C3    C28   S    
C6    C8    A    
Cu1   O1    S    
C4    C8    A    
C6    C15   A    
C1    O4    A    
C12   O5    A    
C18   H6    S    
C23   H21   S    
Cu1   O5    S    
C16   C17   A    
C10   C13   A    
C28   O8    A    
