data_str_m9_o16_o17_f0_sra.sym.165
_audit_creation_date              2013-03-05T15:47:46-0500
_audit_creation_method            fapswitch 2.2
_symmetry_space_group_name_H-M    P1
_symmetry_Int_Tables_number       1
_space_group_crystal_system       triclinic
_cell_length_a                    21.377659
_cell_length_b                    7.205332
_cell_length_c                    18.940414
_cell_angle_alpha                 89.997327
_cell_angle_beta                  95.96764
_cell_angle_gamma                 89.998101
_cell_volume                      2901.6409257

loop_
_atom_site_label
_atom_site_type_symbol
_atom_site_description
_atom_site_fract_x
_atom_site_fract_y
_atom_site_fract_z
_atom_type_partial_charge
O1    O     O_R   0.449650 0.506500 0.414480 -0.576625
O2    O     O_R   0.550350 0.006500 0.585520 -0.576627
O3    O     O_R   0.432010 0.173150 0.560250 -0.587446
O4    O     O_R   0.567990 0.673150 0.439750 -0.587477
C1    C     C_R   0.415390 0.344320 0.580099 0.913640
C2    C     C_R   0.584611 0.844318 0.419903 0.913710
O5    O     O_R   0.442320 0.176650 0.413480 -0.593545
O6    O     O_R   0.557680 0.676650 0.586520 -0.593547
O7    O     O_R   0.560730 0.008380 0.437700 -0.582198
O8    O     O_R   0.439270 0.508380 0.562300 -0.582163
C3    C     C_R   0.429205 0.345926 0.386794 0.897575
C4    C     C_R   0.570798 0.845915 0.613204 0.897578
O9    O     O_3   0.538840 0.339860 0.508120 -0.284131
O10   O     O_3   0.461160 0.839860 0.491880 -0.284049
V1    V     V_3+5 0.492800 0.064220 0.498490 1.149291
V2    V     V_3+5 0.507200 0.564220 0.501510 1.149279
C5    C     C_R   0.872593 0.742834 0.711836 0.383047
C6    C     C_R   0.127412 0.242488 0.288103 0.382904
H1    H     H_    0.961511 0.794539 0.771208 0.150790
H2    H     H_    0.038504 0.294099 0.228689 0.151006
H3    H     H_    0.785201 0.590914 0.615889 0.182366
H4    H     H_    0.214828 0.090880 0.384132 0.182444
C7    C     C_R   0.886823 0.923057 0.820977 -0.135548
C8    C     C_R   0.113175 0.422989 0.179015 -0.135512
C9    C     C_R   0.581743 0.968445 0.735176 -0.141595
C10   C     C_R   0.418246 0.468531 0.264830 -0.141578
C11   C     C_R   0.617713 0.032997 0.795544 -0.107926
C12   C     C_R   0.382271 0.533108 0.204468 -0.107929
C13   C     C_R   0.682435 0.003601 0.804756 -0.186743
C14   C     C_R   0.317551 0.503688 0.195261 -0.186708
C15   C     C_R   0.712781 0.900413 0.754765 0.127585
C16   C     C_R   0.287211 0.400459 0.245247 0.127576
C17   C     C_R   0.674383 0.821947 0.695600 0.120658
C18   C     C_R   0.325617 0.321977 0.304408 0.120680
C19   C     C_R   0.779904 0.874820 0.760920 0.069724
C20   C     C_R   0.220091 0.374809 0.239085 0.069737
C21   C     C_R   0.806542 0.765527 0.708749 0.005510
C22   C     C_R   0.193463 0.265383 0.291234 0.005584
C23   C     C_R   0.766796 0.679104 0.654927 -0.171030
C24   C     C_R   0.233219 0.179043 0.345074 -0.170875
C25   C     C_R   0.702146 0.703918 0.649554 -0.284789
C26   C     C_R   0.297865 0.203925 0.350455 -0.284864
C27   C     C_R   0.821514 0.951647 0.817342 -0.230954
C28   C     C_R   0.178477 0.451697 0.182678 -0.230869
C29   C     C_R   0.911413 0.822541 0.767274 -0.280862
C30   C     C_R   0.088594 0.322252 0.232672 -0.280863
C31   C     C_R   0.609059 0.865472 0.683593 -0.188284
C32   C     C_R   0.390939 0.365516 0.316410 -0.188282
H5    H     H_    0.804578 0.025171 0.861084 0.109271
H6    H     H_    0.195407 0.525372 0.138967 0.109281
H7    H     H_    0.532282 0.004561 0.727429 0.115393
H8    H     H_    0.467709 0.504660 0.272575 0.115386
H9    H     H_    0.707309 0.063884 0.851558 0.112199
H10   H     H_    0.292676 0.563970 0.148456 0.112185
H11   H     H_    0.595523 0.113094 0.834399 0.115400
H12   H     H_    0.404454 0.613234 0.165613 0.115397
H13   H     H_    0.673598 0.625854 0.609831 0.164486
H14   H     H_    0.326416 0.125886 0.390184 0.164473
C33   C     C_R   0.625678 0.929507 0.307554 -0.290193
C34   C     C_R   0.374336 0.429386 0.692469 -0.290161
C35   C     C_R   0.638325 0.854312 0.375100 -0.166742
C36   C     C_R   0.361676 0.354331 0.624905 -0.166742
C37   C     C_R   0.700479 0.791024 0.398826 0.159934
C38   C     C_R   0.299510 0.291194 0.601163 0.159943
C39   C     C_R   0.751479 0.816849 0.354104 -0.008600
C40   C     C_R   0.248511 0.317096 0.645879 -0.008579
C41   C     C_R   0.734959 0.889146 0.283817 -0.011196
C42   C     C_R   0.265044 0.389200 0.716188 -0.011217
C43   C     C_R   0.672070 0.941218 0.261312 0.187425
C44   C     C_R   0.327945 0.441082 0.738715 0.187447
C45   C     C_R   0.817796 0.778581 0.374395 0.177458
C46   C     C_R   0.182183 0.279074 0.625563 0.177651
C47   C     C_R   0.861590 0.818789 0.325777 -0.211822
C48   C     C_R   0.138396 0.319225 0.674196 -0.211847
C49   C     C_R   0.844766 0.874325 0.255802 0.050210
C50   C     C_R   0.155228 0.374578 0.744186 0.050151
C51   C     C_R   0.780905 0.910114 0.234725 0.011704
C52   C     C_R   0.219099 0.410157 0.765282 0.011701
C53   C     C_R   0.762904 0.971529 0.164473 0.185347
C54   C     C_R   0.237113 0.471345 0.835557 0.185380
C55   C     C_R   0.700243 0.018336 0.143871 -0.207710
C56   C     C_R   0.299785 0.517959 0.856182 -0.207710
C57   C     C_R   0.655567 0.005925 0.192021 -0.211444
C58   C     C_R   0.344460 0.505581 0.808029 -0.211454
C59   C     C_R   0.890816 0.896400 0.206589 0.130228
C60   C     C_R   0.109178 0.396685 0.793397 0.130208
C61   C     C_R   0.870877 0.944417 0.135202 -0.162751
C62   C     C_R   0.129128 0.444435 0.864806 -0.162702
C63   C     C_R   0.807555 0.985382 0.115385 -0.294130
C64   C     C_R   0.192462 0.485166 0.884647 -0.294156
H15   H     H_    0.578128 0.974475 0.289990 0.128364
H16   H     H_    0.421896 0.474230 0.710048 0.128334
H17   H     H_    0.910589 0.805778 0.342941 0.179359
H18   H     H_    0.089394 0.306326 0.657034 0.179355
H19   H     H_    0.792980 0.027189 0.061133 0.121745
H20   H     H_    0.207044 0.526783 0.938918 0.121709
H21   H     H_    0.685784 0.066510 0.090448 0.129307
H22   H     H_    0.314253 0.565962 0.909623 0.129306
H23   H     H_    0.607485 0.045320 0.174628 0.129256
H24   H     H_    0.392552 0.544829 0.825439 0.129255
O11   O     O_R   0.060820 0.290050 0.937800 -0.581398
O12   O     O_R   0.939180 0.790050 0.062200 -0.581390
O13   O     O_R   0.057690 0.616620 0.086540 -0.586197
O14   O     O_R   0.942310 0.116620 0.913460 -0.586227
C65   C     C_R   0.071953 0.447087 0.111911 0.923728
C66   C     C_R   0.928053 0.947100 0.888081 0.923735
O15   O     O_R   0.068010 0.619890 0.939770 -0.593120
O16   O     O_R   0.931990 0.119890 0.060230 -0.593094
O17   O     O_R   0.949640 0.787940 0.914460 -0.586881
O18   O     O_R   0.050360 0.287940 0.085540 -0.586919
C67   C     C_R   0.084063 0.451784 0.919204 0.924541
C68   C     C_R   0.915938 0.951781 0.080799 0.924506
O19   O     O_3   0.961210 0.453080 0.991940 -0.282311
O20   O     O_3   0.038790 0.953080 0.008060 -0.282318
V3    V     V_3+5 0.007200 0.728820 0.001500 1.158257
V4    V     V_3+5 0.992800 0.228820 0.998500 1.158251
C69   C     C_3   0.707908 0.692738 0.470079 -0.387240
C70   C     C_3   0.704414 0.481106 0.461390 -0.826879
H25   H     H_    0.655281 0.436389 0.445960 0.281095
H26   H     H_    0.733058 0.431798 0.419484 0.243967
H27   H     H_    0.721260 0.412920 0.512402 0.239277
H28   H     H_    0.748507 0.740888 0.505089 0.170424
H29   H     H_    0.670859 0.734830 0.502910 0.170564
C71   C     C_3   0.292078 0.192836 0.529927 -0.387380
C72   C     C_3   0.295493 0.981212 0.538667 -0.826794
H30   H     H_    0.344597 0.936404 0.554233 0.280977
H31   H     H_    0.266742 0.932054 0.580497 0.243987
H32   H     H_    0.278730 0.913002 0.487639 0.239340
H33   H     H_    0.251516 0.241074 0.494877 0.170421
H34   H     H_    0.329162 0.234724 0.497114 0.170643
C73   C     C_3   0.845449 0.705247 0.447320 -0.403466
C74   C     C_3   0.914464 0.641568 0.455923 -0.770836
H35   H     H_    0.923740 0.542816 0.413154 0.249275
H36   H     H_    0.946871 0.762296 0.456745 0.265394
H37   H     H_    0.924549 0.567331 0.507159 0.299541
H38   H     H_    0.841390 0.815221 0.487650 0.212108
H39   H     H_    0.820422 0.578230 0.459859 0.231120
C75   C     C_3   0.154522 0.206092 0.552593 -0.403693
C76   C     C_3   0.085453 0.142940 0.543898 -0.771201
H40   H     H_    0.076069 0.044051 0.586582 0.249447
H41   H     H_    0.053149 0.263902 0.543135 0.265291
H42   H     H_    0.075338 0.068995 0.492613 0.299764
H43   H     H_    0.158700 0.316136 0.512315 0.211945
H44   H     H_    0.179462 0.078923 0.540034 0.231167
C77   C     C_3   0.961018 0.875283 0.229775 -0.358574
C78   C     C_3   0.980472 0.671742 0.236107 -0.796850
H45   H     H_    0.954985 0.596079 0.275249 0.245373
H46   H     H_    0.970801 0.601555 0.184013 0.251528
H47   H     H_    0.031562 0.664282 0.253561 0.274863
H48   H     H_    0.990299 0.943318 0.192209 0.187020
H49   H     H_    0.974116 0.949537 0.280436 0.232031
C79   C     C_3   0.038966 0.375909 0.770191 -0.358852
C80   C     C_3   0.019407 0.172466 0.763828 -0.796272
H50   H     H_    0.044801 0.096787 0.724604 0.245345
H51   H     H_    0.029116 0.102118 0.815891 0.251393
H52   H     H_    0.968293 0.165229 0.746465 0.274897
H53   H     H_    0.009719 0.444038 0.807768 0.186976
H54   H     H_    0.025907 0.450285 0.719543 0.231810
N1    N     N_R   0.901507 0.633461 0.660833 0.210138
O21   O     O_R   0.951619 0.696065 0.635250 -0.447475
O22   O     O_R   0.887665 0.458205 0.653333 -0.439971
N2    N     N_R   0.098499 0.132718 0.339002 0.210204
O23   O     O_R   0.048208 0.194654 0.364377 -0.447953
O24   O     O_R   0.112582 0.957650 0.346588 -0.439807

loop_
_geom_bond_atom_site_label_1
_geom_bond_atom_site_label_2
_geom_bond_distance
_ccdc_geom_bond_type
C40   C42   1.438889 A    
C65   O18   1.315163 A    
C37   C39   1.460406 A    
O4    V2    1.997314 S    
C7    C29   1.395250 A    
C50   C60   1.433194 A    
C11   C13   1.392634 A    
C47   C49   1.395285 A    
C48   H18   1.068111 S    
O12   C68   1.328663 A    
O1    C3    1.325545 A    
C54   C64   1.403597 A    
C47   H17   1.068130 S    
O2    C4    1.325545 A    
C26   H14   1.076741 S    
C2    O7    1.344414 A    
O14   C66   1.336228 A    
O20   V3    1.750761 S    
C12   H12   1.082758 S    
O3    V1    1.997323 S    
C23   C25   1.386782 A    
O5    C3    1.338719 A    
C14   H10   1.076686 S    
C48   C50   1.395257 A    
C43   C57   1.402810 A    
C16   C20   1.439375 A    
C2    C35   1.498825 S    
C19   C21   1.427555 A    
C59   C77   1.526842 S    
C78   H45   1.108018 S    
C10   H8    1.084048 S    
C75   H43   1.110292 S    
C37   C69   1.517707 S    
C76   H42   1.109299 S    
C60   C62   1.417628 A    
C7    C27   1.405837 A    
C34   C36   1.389750 A    
C35   C37   1.432176 A    
C70   H25   1.108463 S    
C36   C38   1.432176 A    
O12   V3    1.994609 S    
O5    V1    2.012917 S    
O14   V4    2.012858 S    
C62   C67   1.482853 S    
C49   C59   1.433187 A    
C40   C46   1.456110 A    
C74   H35   1.111421 S    
C39   C41   1.438912 A    
C18   C26   1.394168 A    
C1    C36   1.498842 S    
C72   H32   1.110013 S    
N1    O22   1.301409 A    
C80   H51   1.108957 S    
C19   C27   1.429028 A    
C9    C31   1.401672 A    
C78   H46   1.108905 S    
C77   H48   1.109500 S    
C10   C32   1.401674 A    
O19   V4    1.750709 S    
C46   C75   1.538340 S    
C69   H29   1.099256 S    
O6    V2    2.013007 S    
C22   C24   1.403176 A    
C57   H23   1.084064 S    
C13   C15   1.413477 A    
C56   H22   1.083868 S    
C3    C32   1.496500 S    
C4    C31   1.496529 S    
C6    C30   1.392821 A    
C55   C57   1.390307 A    
C77   C78   1.525697 S    
N2    O24   1.301320 A    
C51   C53   1.416982 A    
C42   C52   1.429009 A    
C5    C29   1.392818 A    
C79   H54   1.108882 S    
C33   C35   1.389733 A    
C59   C61   1.417634 A    
C58   H24   1.084067 S    
C54   C56   1.397015 A    
C73   H38   1.110303 S    
C53   C55   1.397022 A    
C27   H5    1.077282 S    
C33   H15   1.085636 S    
C61   C68   1.482873 S    
C39   C45   1.456126 A    
C7    C66   1.479639 S    
C45   C73   1.538374 S    
O16   C68   1.328344 A    
C41   C43   1.417996 A    
C70   H27   1.110041 S    
C16   C18   1.434594 A    
C63   H19   1.084943 S    
O13   V3    2.012769 S    
C69   H28   1.092570 S    
C9    H7    1.083972 S    
C73   H39   1.098477 S    
C60   C79   1.526872 S    
C41   C51   1.429012 A    
C78   H47   1.109047 S    
N1    O21   1.301466 A    
H3    C23   1.079727 S    
C34   C44   1.392291 A    
O6    C4    1.338707 A    
H4    C24   1.079718 S    
C15   C17   1.434598 A    
C71   H34   1.099215 S    
O13   C65   1.336226 A    
O1    V2    1.995532 S    
C5    C21   1.416601 A    
C80   H52   1.109121 S    
O2    V1    1.995483 S    
C49   C51   1.405808 A    
O15   V3    1.997258 S    
C77   H49   1.108847 S    
C33   C43   1.392276 A    
C46   C48   1.409858 A    
C62   C64   1.398127 A    
C56   C58   1.390318 A    
C61   C63   1.398132 A    
C72   H30   1.108474 S    
C17   C31   1.426216 A    
C15   C19   1.439385 A    
C20   C28   1.429004 A    
O4    C2    1.347741 A    
C18   C32   1.426221 A    
C73   C74   1.537468 S    
O18   V4    1.997919 S    
C44   C58   1.402809 A    
C45   C47   1.409828 A    
N2    O23   1.301304 A    
C28   H6    1.077270 S    
O11   V4    1.994607 S    
C79   H53   1.109504 S    
O15   C67   1.328336 A    
C50   C52   1.405823 A    
O3    C1    1.347774 A    
C76   H40   1.111407 S    
H1    C29   1.084747 S    
C64   H20   1.084938 S    
C9    C11   1.390045 A    
C11   H11   1.082731 S    
C10   C12   1.390014 A    
C17   C25   1.394194 A    
O16   V4    1.997250 S    
C12   C14   1.392645 A    
C6    C22   1.416721 A    
C8    C30   1.395276 A    
C1    O8    1.344405 A    
C21   C23   1.403182 A    
C38   C71   1.517712 S    
C69   C70   1.534726 S    
C20   C22   1.427652 A    
C14   C16   1.413482 A    
C76   H41   1.111156 S    
C13   H9    1.076684 S    
C75   H44   1.098539 S    
C74   H37   1.109396 S    
C8    C28   1.405811 A    
O11   C67   1.328674 A    
C24   C26   1.386782 A    
C55   H21   1.083873 S    
C71   H33   1.092553 S    
C52   C54   1.416975 A    
O7    V1    1.985974 S    
C5    N1    1.435446 S    
C70   H26   1.110064 S    
C53   C63   1.403592 A    
C6    N2    1.435580 S    
C75   C76   1.537472 S    
O17   V3    1.997869 S    
C25   H13   1.076787 S    
C79   C80   1.525692 S    
C74   H36   1.111157 S    
O9    V2    1.751809 S    
C72   H31   1.110027 S    
C42   C44   1.417988 A    
O10   V1    1.751861 S    
O8    V2    1.985973 S    
C8    C65   1.479590 S    
C80   H50   1.108083 S    
C34   H16   1.085644 S    
H2    C30   1.084766 S    
C38   C40   1.460401 A    
C71   C72   1.534692 S    
C66   O17   1.315191 A    
