data_str_m9_o2_o16_f0_sra.sym.186
_audit_creation_date              2013-03-05T16:01:51-0500
_audit_creation_method            fapswitch 2.2
_symmetry_space_group_name_H-M    P1
_symmetry_Int_Tables_number       1
_space_group_crystal_system       triclinic
_cell_length_a                    20.272565
_cell_length_b                    7.269829
_cell_length_c                    13.413559
_cell_angle_alpha                 89.998892
_cell_angle_beta                  103.257186
_cell_angle_gamma                 89.999199
_cell_volume                      1924.18213975

loop_
_atom_site_label
_atom_site_type_symbol
_atom_site_description
_atom_site_fract_x
_atom_site_fract_y
_atom_site_fract_z
_atom_type_partial_charge
O1    O     O_R   0.449520 0.506760 0.599710 -0.577126
O2    O     O_R   0.550480 0.006760 0.400290 -0.577128
O3    O     O_R   0.587930 0.180200 0.595790 -0.589329
O4    O     O_R   0.412070 0.680200 0.404210 -0.589326
C1    C     C_R   0.614251 0.344206 0.618224 0.930316
C2    C     C_R   0.385750 0.844209 0.381775 0.930318
O5    O     O_R   0.452350 0.177380 0.611700 -0.588974
O6    O     O_R   0.547650 0.677380 0.388300 -0.588985
O7    O     O_R   0.413930 0.001760 0.416320 -0.589391
O8    O     O_R   0.586070 0.501760 0.583680 -0.589386
C3    C     C_R   0.435239 0.344997 0.636459 0.905568
C4    C     C_R   0.564761 0.844999 0.363542 0.905559
O9    O     O_3   0.487550 0.337460 0.435880 -0.280209
O10   O     O_3   0.512450 0.837460 0.564120 -0.280201
V1    V     V_3+5 0.502310 0.064670 0.511900 1.194375
V2    V     V_3+5 0.497690 0.564670 0.488100 1.194367
C5    C     C_R   0.613156 0.778479 0.113519 0.002311
C6    C     C_R   0.386855 0.278637 0.886508 0.002332
H1    H     H_    0.519794 0.798326 0.161838 0.147013
H2    H     H_    0.480214 0.298388 0.838174 0.146971
H3    H     H_    0.696554 0.737577 0.989578 0.150810
H4    H     H_    0.303471 0.238053 0.010495 0.150817
H5    H     H_    0.587898 0.743015 0.035662 0.173523
H6    H     H_    0.412117 0.243252 0.964375 0.173544
C7    C     C_R   0.605186 0.847709 0.286276 -0.126618
C8    C     C_R   0.394816 0.347704 0.713727 -0.126591
C9    C     C_R   0.930900 0.904449 0.318204 -0.169851
C10   C     C_R   0.069087 0.404124 0.681768 -0.169892
C11   C     C_R   0.895430 0.918734 0.394925 -0.097487
C12   C     C_R   0.104551 0.418243 0.605032 -0.097469
C13   C     C_R   0.825358 0.897284 0.372240 -0.192381
C14   C     C_R   0.174630 0.396926 0.627733 -0.192431
C15   C     C_R   0.788798 0.857465 0.271262 0.087960
C16   C     C_R   0.211203 0.357390 0.728742 0.087999
C17   C     C_R   0.825915 0.836784 0.193419 0.095071
C18   C     C_R   0.174093 0.336868 0.806603 0.095064
C19   C     C_R   0.716681 0.840082 0.244681 0.082774
C20   C     C_R   0.283322 0.340090 0.755330 0.082783
C21   C     C_R   0.683831 0.796014 0.141943 0.107260
C22   C     C_R   0.316180 0.296174 0.858087 0.107278
C23   C     C_R   0.721449 0.771258 0.067930 -0.207230
C24   C     C_R   0.278570 0.271580 0.932123 -0.207250
C25   C     C_R   0.791243 0.793238 0.092798 -0.221433
C26   C     C_R   0.208774 0.293543 0.907252 -0.221413
C27   C     C_R   0.675717 0.864298 0.316298 -0.239349
C28   C     C_R   0.324282 0.364244 0.683703 -0.239377
C29   C     C_R   0.574227 0.807875 0.184898 -0.031982
C30   C     C_R   0.425781 0.307940 0.815114 -0.032004
C31   C     C_R   0.897046 0.863774 0.217611 -0.156604
C32   C     C_R   0.102955 0.363743 0.782394 -0.156539
H7    H     H_    0.696760 0.892169 0.396147 0.114176
H8    H     H_    0.303235 0.392062 0.603847 0.114179
H9    H     H_    0.985060 0.926747 0.337428 0.098651
H10   H     H_    0.014918 0.426278 0.662525 0.098629
H11   H     H_    0.801543 0.912599 0.435707 0.126720
H12   H     H_    0.198439 0.412060 0.564247 0.126723
H13   H     H_    0.922375 0.949591 0.472580 0.119999
H14   H     H_    0.077595 0.448838 0.527347 0.119990
H15   H     H_    0.817774 0.775796 0.032016 0.146826
H16   H     H_    0.182248 0.276244 0.968051 0.146787
H17   H     H_    0.105909 0.027447 0.469488 0.119196
H18   H     H_    0.894085 0.527540 0.530517 0.119216
C33   C     C_R   0.231096 0.782315 0.037248 -0.224469
C34   C     C_R   0.768905 0.282261 0.962748 -0.224495
C35   C     C_R   0.285964 0.737323 0.995998 -0.228837
C36   C     C_R   0.714039 0.237236 0.003995 -0.228849
C37   C     C_R   0.350574 0.718719 0.059304 0.404831
C38   C     C_R   0.649430 0.218643 0.940688 0.404837
C39   C     C_R   0.360462 0.753481 0.164523 -0.302319
C40   C     C_R   0.639541 0.253433 0.835471 -0.302324
C41   C     C_R   0.305874 0.805493 0.208026 0.079721
C42   C     C_R   0.694127 0.305466 0.791971 0.079727
C43   C     C_R   0.239566 0.814760 0.143384 0.121461
C44   C     C_R   0.760434 0.314738 0.856614 0.121460
C45   C     C_R   0.316476 0.850541 0.313683 -0.273765
C46   C     C_R   0.683524 0.350532 0.686315 -0.273765
C47   C     C_R   0.260287 0.899303 0.354732 0.106771
C48   C     C_R   0.739712 0.399320 0.645268 0.106772
C49   C     C_R   0.193796 0.903716 0.290348 0.118489
C50   C     C_R   0.806202 0.403745 0.709653 0.118496
C51   C     C_R   0.183327 0.859696 0.184857 -0.290197
C52   C     C_R   0.816672 0.359706 0.815143 -0.290195
C53   C     C_R   0.268745 0.940312 0.460161 -0.176790
C54   C     C_R   0.731253 0.440347 0.539839 -0.176804
C55   C     C_R   0.213450 0.985888 0.500671 -0.113907
C56   C     C_R   0.786545 0.485956 0.499332 -0.113883
C57   C     C_R   0.148701 0.991753 0.437644 -0.119940
C58   C     C_R   0.851294 0.491828 0.562360 -0.119946
C59   C     C_R   0.138749 0.950864 0.333736 -0.162269
C60   C     C_R   0.861248 0.450922 0.666266 -0.162304
H19   H     H_    0.182042 0.792298 0.984607 0.146194
H20   H     H_    0.817959 0.292246 0.015390 0.146203
H21   H     H_    0.277616 0.712014 0.914478 0.170496
H22   H     H_    0.722388 0.211904 0.085514 0.170488
H23   H     H_    0.411380 0.742239 0.211314 0.137184
H24   H     H_    0.588622 0.242196 0.788680 0.137190
H25   H     H_    0.317945 0.936307 0.512713 0.130406
H26   H     H_    0.682053 0.436332 0.487286 0.130405
H27   H     H_    0.220915 0.016264 0.581501 0.132915
H28   H     H_    0.779079 0.516348 0.418503 0.132904
H29   H     H_    0.087521 0.956172 0.287812 0.095667
H30   H     H_    0.912476 0.456242 0.712191 0.095699
O11   O     O_R   0.913760 0.203480 0.916370 -0.581296
O12   O     O_R   0.086240 0.703480 0.083630 -0.581306
O13   O     O_R   0.047590 0.535230 0.888250 -0.591162
O14   O     O_R   0.952410 0.035230 0.111750 -0.591156
C61   C     C_R   0.063849 0.368623 0.862026 0.901490
C62   C     C_R   0.936149 0.868625 0.137972 0.901513
O15   O     O_R   0.912020 0.532880 0.904260 -0.590865
O16   O     O_R   0.087980 0.032880 0.095740 -0.590855
O17   O     O_R   0.949590 0.708460 0.099750 -0.590241
O18   O     O_R   0.050410 0.208460 0.900250 -0.590215
C63   C     C_R   0.885976 0.365194 0.882851 0.916655
C64   C     C_R   0.114023 0.865191 0.117149 0.916674
O19   O     O_3   0.012370 0.375360 0.064120 -0.286715
O20   O     O_3   0.987630 0.875360 0.935880 -0.286707
V3    V     V_3+5 0.997700 0.648160 0.988110 1.160750
V4    V     V_3+5 0.002300 0.148160 0.011890 1.160756
N1    N     N_R   0.406146 0.662925 0.016806 0.215553
O21   O     O_R   0.408063 0.709981 0.923897 -0.403656
O22   O     O_R   0.451780 0.550664 0.067245 -0.436801
N2    N     N_R   0.593858 0.162835 0.983183 0.215555
O23   O     O_R   0.591933 0.209912 0.076086 -0.403683
O24   O     O_R   0.548228 0.050573 0.932745 -0.436694

loop_
_geom_bond_atom_site_label_1
_geom_bond_atom_site_label_2
_geom_bond_distance
_ccdc_geom_bond_type
C36   C38   1.394567 A    
C33   C35   1.390203 A    
C9    C11   1.387902 A    
C61   O18   1.325474 A    
O1    C3    1.332364 A    
C42   C46   1.422079 A    
O2    C4    1.332359 A    
O16   V4    2.021950 S    
C2    O7    1.315892 A    
O15   V3    2.021991 S    
C2    C45   1.490047 S    
C21   C23   1.395281 A    
O5    C3    1.329783 A    
O13   C61   1.323845 A    
C5    H5    1.083542 S    
C27   H7    1.077346 S    
C6    H6    1.083533 S    
O11   C63   1.336161 A    
C46   C48   1.419177 A    
C56   C58   1.389449 A    
C47   C53   1.416688 A    
C28   H8    1.077348 S    
O20   V3    1.787451 S    
C5    C21   1.401377 A    
C39   C41   1.415720 A    
C6    C22   1.401379 A    
C60   H30   1.079853 S    
H17   C57   1.082745 S    
C10   C32   1.397992 A    
C35   C37   1.394567 A    
C51   C64   1.488335 S    
C17   C31   1.417257 A    
C13   C15   1.416793 A    
C12   C14   1.391629 A    
C17   C25   1.407417 A    
O16   C64   1.333332 A    
C16   C18   1.428053 A    
O15   C63   1.333334 A    
C36   H22   1.083201 S    
N1    O22   1.300968 A    
O6    V2    2.027575 S    
C20   C22   1.422798 A    
O14   V4    2.027921 S    
C23   C25   1.386483 A    
O13   V3    2.027930 S    
C24   C26   1.386486 A    
C44   C52   1.416673 A    
C43   C51   1.416669 A    
C31   C62   1.469410 S    
C47   C49   1.424741 A    
C49   C59   1.414005 A    
C55   C57   1.389452 A    
C8    C30   1.391236 A    
C42   C44   1.424340 A    
C38   N2    1.432918 S    
C49   C51   1.418443 A    
C10   H10   1.080950 S    
O5    V1    2.027584 S    
C33   C43   1.414151 A    
C3    C8    1.461400 S    
O3    C1    1.312720 A    
H18   C58   1.082744 S    
C15   C19   1.428790 A    
C37   C39   1.402225 A    
C14   C16   1.416794 A    
O4    V2    2.022007 S    
C40   H24   1.081203 S    
C55   H27   1.082575 S    
O18   V4    2.013882 S    
O6    C4    1.329790 A    
O19   V4    1.787481 S    
H1    C29   1.077785 S    
O1    V2    2.010624 S    
O2    V1    2.010632 S    
C45   C47   1.419174 A    
H2    C30   1.077802 S    
O12   C64   1.336167 A    
C50   C52   1.418449 A    
C53   C55   1.393180 A    
C58   C60   1.393804 A    
C57   C59   1.393804 A    
C32   C61   1.469391 S    
H3    C23   1.084413 S    
C18   C26   1.407415 A    
O4    C2    1.312716 A    
C34   H20   1.081996 S    
C19   C27   1.417509 A    
C7    C27   1.398969 A    
N2    O24   1.300959 A    
C18   C32   1.417250 A    
C41   C43   1.424339 A    
O12   V3    1.992590 S    
C7    C29   1.391223 A    
C59   H29   1.079849 S    
C16   C20   1.428792 A    
C5    C29   1.389887 A    
C52   C63   1.488339 S    
C11   H13   1.082940 S    
C39   H23   1.081201 S    
C6    C30   1.389885 A    
N1    O21   1.301479 A    
C9    H9    1.080948 S    
C25   H15   1.082221 S    
C62   O17   1.325502 A    
C4    C7    1.461404 S    
O17   V3    2.013891 S    
C54   H26   1.081713 S    
C1    C46   1.490047 S    
C10   C12   1.387911 A    
O7    V1    2.002380 S    
C1    O8    1.315884 A    
C19   C21   1.422802 A    
O8    V2    2.002357 S    
C41   C45   1.422081 A    
C56   H28   1.082574 S    
H4    C24   1.084419 S    
O14   C62   1.323831 A    
C26   H16   1.082225 S    
C12   H14   1.082939 S    
C22   C24   1.395277 A    
C35   H21   1.083198 S    
C15   C17   1.428068 A    
C48   C50   1.424744 A    
C50   C60   1.414012 A    
C20   C28   1.417503 A    
C8    C28   1.398977 A    
O11   V4    1.992572 S    
C48   C54   1.416691 A    
C11   C13   1.391620 A    
C53   H25   1.081714 S    
O9    V2    1.787535 S    
C33   H19   1.081998 S    
C38   C40   1.402222 A    
C34   C44   1.414155 A    
O10   V1    1.787505 S    
C54   C56   1.393185 A    
O3    V1    2.022046 S    
C40   C42   1.415723 A    
C13   H11   1.076456 S    
N2    O23   1.301490 A    
C37   N1    1.432914 S    
C14   H12   1.076456 S    
C9    C31   1.398004 A    
C34   C36   1.390207 A    
