data_str_m2_o10_o28_f0_pcu.sym.252
_audit_creation_date              2012-12-10T16:50:17-0500
_audit_creation_method            fapswitch 2.2
_symmetry_space_group_name_H-M    P1
_symmetry_Int_Tables_number       1
_space_group_crystal_system       triclinic
_cell_length_a                    23.485834
_cell_length_b                    8.67489
_cell_length_c                    7.45755
_cell_angle_alpha                 103.235323
_cell_angle_beta                  94.64657
_cell_angle_gamma                 92.755266
_cell_volume                      1470.68132458

loop_
_atom_site_label
_atom_site_type_symbol
_atom_type_description
_atom_site_fract_x
_atom_site_fract_y
_atom_site_fract_z
_atom_type_partial_charge
C1    C     C_R   0.498234 0.199568 0.452970 0.854179
C2    C     C_R   0.501763 0.800432 0.547029 0.854512
C3    C     C_R   0.235126 0.563629 0.381412 -0.123859
C4    C     C_R   0.765044 0.438337 0.619350 -0.124013
C5    C     C_R   0.294224 0.564178 0.373333 0.355447
C6    C     C_R   0.705952 0.437625 0.627633 0.356077
C7    C     C_R   0.328655 0.508416 0.506783 -0.133156
C8    C     C_R   0.671374 0.491848 0.493219 -0.133782
C9    C     C_R   0.302669 0.456305 0.647847 -0.188988
C10   C     C_R   0.697239 0.542629 0.351108 -0.188552
C11   C     C_R   0.243535 0.456110 0.654184 -0.051206
C12   C     C_R   0.756367 0.542939 0.344561 -0.050972
C13   C     C_R   0.209719 0.509160 0.520487 0.251823
C14   C     C_R   0.790308 0.491407 0.479154 0.251927
C15   C     C_2   0.497397 0.031419 0.426707 -0.297127
C16   C     C_2   0.502597 0.968580 0.573292 -0.297433
C17   C     C_R   0.391073 0.503271 0.502041 0.820475
C18   C     C_R   0.608937 0.496780 0.497969 0.820270
C19   C     C_R   0.882687 0.635397 0.536839 0.605995
C20   C     C_R   0.117320 0.365223 0.462349 0.605918
C21   C     C_R   0.876296 0.354072 0.420412 0.601433
C22   C     C_R   0.123712 0.646536 0.578879 0.601316
C23   C     C_R   0.936578 0.351740 0.427316 -0.101953
C24   C     C_R   0.063429 0.648889 0.571806 -0.101862
C25   C     C_R   0.969744 0.498053 0.493321 -0.067718
C26   C     C_R   0.030262 0.502583 0.505765 -0.067719
C27   C     C_R   0.942507 0.640275 0.547388 -0.062349
C28   C     C_R   0.057499 0.360362 0.451703 -0.062259
C29   C     C_R   0.965109 0.210193 0.372767 0.396774
C30   C     C_R   0.034897 0.790448 0.626278 0.396807
C31   C     C_R   0.024711 0.216333 0.385733 -0.126124
C32   C     C_R   0.975294 0.784312 0.613295 -0.126129
Cu1   Cu    Cu3+1 0.506340 0.517380 0.684380 1.169566
Cu2   Cu    Cu3+1 0.493660 0.482620 0.315620 1.169517
H1    H     H_    0.045413 0.106618 0.342921 0.232339
H2    H     H_    0.954591 0.894031 0.656074 0.232339
H3    H     H_    0.208608 0.605714 0.279244 0.181065
H4    H     H_    0.791672 0.397444 0.722240 0.180609
H5    H     H_    0.328034 0.413353 0.751824 0.231129
H6    H     H_    0.671783 0.584404 0.246378 0.232202
H7    H     H_    0.223932 0.414295 0.762413 0.180857
H8    H     H_    0.775864 0.583660 0.235466 0.180898
H9    H     H_    0.492505 0.959074 0.285779 0.208062
H10   H     H_    0.507487 0.040925 0.714220 0.207939
N1    N     N_R   0.851188 0.494014 0.475703 -0.478337
N2    N     N_R   0.148825 0.506589 0.523624 -0.478230
N3    N     N_2   0.484110 0.456420 0.038520 0.245696
N4    N     N_2   0.515890 0.543580 0.961480 0.245781
O1    O     O_R   0.504120 0.286130 0.619770 -0.544899
O2    O     O_R   0.495880 0.713870 0.380230 -0.544682
O3    O     O_R   0.493410 0.256770 0.308360 -0.574806
O4    O     O_R   0.506590 0.743230 0.691640 -0.574834
O5    O     O_R   0.423230 0.514630 0.655730 -0.553800
O6    O     O_R   0.576770 0.485370 0.344270 -0.554036
O7    O     O_R   0.412530 0.485280 0.344320 -0.524390
O8    O     O_R   0.587470 0.514720 0.655680 -0.524142
O9    O     O_2   0.856027 0.770648 0.589704 -0.468084
O10   O     O_2   0.143976 0.229966 0.409441 -0.468317
O11   O     O_2   0.842582 0.218910 0.360077 -0.423350
O12   O     O_2   0.157424 0.781676 0.639419 -0.423589
Cl1   Cl    Cl    0.929993 0.019894 0.285488 -0.508404
Cl2   Cl    Cl    0.070011 0.980765 0.713458 -0.508541
Cl3   Cl    Cl    0.322594 0.642484 0.198304 -0.559844
Cl4   Cl    Cl    0.677811 0.361061 0.804237 -0.560910
F1    F     F_    0.444278 0.357908 0.925387 -0.546340
F2    F     F_    0.555722 0.642093 0.074613 -0.546213

loop_
_geom_bond_atom_site_label_1
_geom_bond_atom_site_label_2
_ccdc_geom_bond_type
C7    C17   S    
C30   C32   A    
C19   N1    A    
C21   O11   S    
C1    C15   S    
C17   O5    A    
C25   C27   A    
Cu1   O5    S    
C19   C27   A    
C17   O7    A    
C26   C28   A    
N3    N4    D    
C3    C13   A    
C18   O8    A    
Cu2   N3    S    
Cu1   O8    S    
C23   C25   A    
Cu1   Cu2   S    
C27   C32   A    
C15   H9    S    
Cu2   O7    S    
C29   C31   A    
C29   Cl1   S    
C19   O9    S    
Cu1   O4    S    
C22   O12   S    
C9    C11   A    
C3    H3    S    
Cu2   O3    S    
C12   H8    S    
C2    O4    A    
C21   N1    A    
C32   H2    S    
C31   H1    S    
C10   H6    S    
C22   N2    A    
C12   C14   A    
Cu2   O6    S    
C14   N1    S    
C10   C12   A    
C30   Cl2   S    
C21   C23   A    
C4    C14   A    
C13   N2    S    
C22   C24   A    
Cu2   O2    S    
C24   C30   A    
C28   C31   A    
C18   O6    A    
C20   O10   S    
C15   C16   D    
C20   C28   A    
C23   C29   A    
C11   C13   A    
C2    C16   S    
C5    Cl3   S    
C8    C10   A    
C4    C6    A    
C11   H7    S    
C6    Cl4   S    
C7    C9    A    
Cu1   N4    S    
C16   H10   S    
C5    C7    A    
C6    C8    A    
C1    O3    A    
C2    O2    A    
N4    F2    S    
C25   C26   A    
Cu1   O1    S    
N3    F1    S    
C9    H5    S    
C8    C18   S    
C24   C26   A    
C4    H4    S    
C3    C5    A    
C20   N2    A    
C1    O1    A    
