data_str_m9_o13_o18_f0_sra.sym.78
_audit_creation_date              2012-12-11T14:45:33-0500
_audit_creation_method            fapswitch 2.2
_symmetry_space_group_name_H-M    P1
_symmetry_Int_Tables_number       1
_space_group_crystal_system       triclinic
_cell_length_a                    24.962601
_cell_length_b                    7.182666
_cell_length_c                    14.360946
_cell_angle_alpha                 89.997985
_cell_angle_beta                  103.213026
_cell_angle_gamma                 90.043233
_cell_volume                      2506.7233843

loop_
_atom_site_label
_atom_site_type_symbol
_atom_type_description
_atom_site_fract_x
_atom_site_fract_y
_atom_site_fract_z
_atom_type_partial_charge
O1    O     O_R   0.319150 0.364170 0.330530 -0.534359
O2    O     O_R   0.680850 0.635830 0.669470 -0.529045
O3    O     O_R   0.180850 0.864170 0.169470 -0.530360
O4    O     O_R   0.819150 0.135830 0.830530 -0.529111
O5    O     O_R   0.210330 0.696850 0.354180 -0.534616
O6    O     O_R   0.789670 0.303150 0.645820 -0.533087
O7    O     O_R   0.289670 0.196850 0.145820 -0.536962
O8    O     O_R   0.710330 0.803150 0.854180 -0.513726
C1    C     C_R   0.197834 0.525180 0.378646 0.755239
C2    C     C_R   0.802235 0.475120 0.621439 0.755026
C3    C     C_R   0.302764 0.025151 0.121952 0.753175
C4    C     C_R   0.697000 0.974784 0.878016 0.733793
O9    O     O_R   0.320550 0.694110 0.341970 -0.527727
O10   O     O_R   0.679450 0.305890 0.658030 -0.542161
O11   O     O_R   0.179450 0.194110 0.158030 -0.529347
O12   O     O_R   0.820550 0.805890 0.841970 -0.529110
O13   O     O_R   0.291860 0.861000 0.157170 -0.527462
O14   O     O_R   0.708140 0.139000 0.842830 -0.542601
O15   O     O_R   0.208140 0.361000 0.342830 -0.531128
O16   O     O_R   0.791860 0.639000 0.657170 -0.533239
C5    C     C_R   0.342024 0.525624 0.361513 0.704226
C6    C     C_R   0.658077 0.474461 0.638165 0.712484
C7    C     C_R   0.158056 0.025384 0.138194 0.704272
C8    C     C_R   0.841943 0.974618 0.861780 0.708287
O17   O     O_3   0.240460 0.529330 0.189380 -0.374864
O18   O     O_3   0.759540 0.470670 0.810620 -0.368781
O19   O     O_3   0.259540 0.029330 0.310620 -0.376829
O20   O     O_3   0.740460 0.970670 0.689380 -0.383067
V1    V     V_3+5 0.251770 0.805510 0.261240 1.548121
V2    V     V_3+5 0.748230 0.194490 0.738760 1.522235
V3    V     V_3+5 0.248230 0.305510 0.238760 1.542450
V4    V     V_3+5 0.751770 0.694490 0.761240 1.560950
C9    C     C_R   0.102938 0.014261 0.073573 -0.079281
C10   C     C_R   0.897053 0.985788 0.926371 -0.080243
C11   C     C_R   0.397199 0.515726 0.425932 -0.078694
C12   C     C_R   0.602996 0.484849 0.573477 -0.085677
C13   C     C_R   0.954634 0.063698 0.082316 0.201299
C14   C     C_R   0.045347 0.936906 0.917526 0.201606
C15   C     C_R   0.545706 0.547040 0.415319 0.197563
C16   C     C_R   0.454579 0.461153 0.584768 0.189195
C17   C     C_R   0.902602 0.043384 0.021040 -0.170221
C18   C     C_R   0.097385 0.957074 0.978827 -0.171195
C19   C     C_R   0.597678 0.529128 0.477069 -0.182599
C20   C     C_R   0.402582 0.477598 0.523007 -0.177806
C21   C     C_R   0.944236 0.949240 0.892031 -0.127955
C22   C     C_R   0.055749 0.050779 0.107912 -0.128536
C23   C     C_R   0.555676 0.460332 0.609127 -0.153769
C24   C     C_R   0.444502 0.538614 0.389946 -0.132418
C25   C     C_R   0.997328 0.971107 0.951682 0.067411
C26   C     C_R   0.002658 0.029163 0.048222 0.066940
C27   C     C_R   0.502681 0.480576 0.549016 0.061555
C28   C     C_R   0.497543 0.522346 0.450437 0.065687
H1    H     H_    0.061104 0.092954 0.181746 0.174683
H2    H     H_    0.938869 0.906801 0.818231 0.173951
H3    H     H_    0.439276 0.566643 0.314448 0.177951
H4    H     H_    0.560874 0.427233 0.684084 0.179672
H5    H     H_    0.133833 0.928069 0.952354 0.143031
H6    H     H_    0.866152 0.072663 0.047461 0.143838
H7    H     H_    0.366052 0.460759 0.550944 0.143184
H8    H     H_    0.634244 0.550382 0.449728 0.143158
C29   C     C_R   0.665797 0.989351 0.952861 -0.106887
C30   C     C_R   0.336896 0.015312 0.051717 -0.116071
C31   C     C_R   0.836064 0.488009 0.551222 -0.116314
C32   C     C_R   0.164069 0.515044 0.448967 -0.116953
C33   C     C_R   0.658418 0.131966 0.102142 0.215710
C34   C     C_R   0.342397 0.970584 0.887255 0.220637
C35   C     C_R   0.842791 0.601878 0.395944 0.215146
C36   C     C_R   0.158026 0.432039 0.609288 0.218797
C37   C     C_R   0.689111 0.089181 0.035519 -0.187570
C38   C     C_R   0.311335 0.997071 0.955222 -0.209588
C39   C     C_R   0.811079 0.544686 0.458665 -0.210675
C40   C     C_R   0.189464 0.477922 0.544127 -0.213176
C41   C     C_R   0.610907 0.928354 0.936885 0.191757
C42   C     C_R   0.394588 0.010264 0.081896 0.186721
C43   C     C_R   0.893692 0.476360 0.580867 0.183312
C44   C     C_R   0.106438 0.524258 0.419213 0.184538
C45   C     C_R   0.576120 0.001483 0.994195 0.018569
C46   C     C_R   0.427357 0.009354 0.012398 0.010605
C47   C     C_R   0.926478 0.505289 0.512748 0.012126
C48   C     C_R   0.073938 0.503059 0.488168 0.008623
C49   C     C_R   0.601377 0.095067 0.080579 0.039651
C50   C     C_R   0.400433 0.977552 0.914906 0.033562
C51   C     C_R   0.900627 0.587477 0.423345 0.030348
C52   C     C_R   0.100158 0.432768 0.579858 0.029322
C53   C     C_R   0.517320 0.990537 0.967918 0.088200
C54   C     C_R   0.485717 0.036470 0.035669 0.090347
C55   C     C_R   0.984270 0.468078 0.531529 0.087016
C56   C     C_R   0.016210 0.539263 0.469014 0.088709
C57   C     C_R   0.512427 0.130884 0.119092 -0.083052
C58   C     C_R   0.488928 0.961716 0.872589 -0.083785
C59   C     C_R   0.990083 0.653543 0.392900 -0.094120
C60   C     C_R   0.010992 0.355530 0.608191 -0.094992
C61   C     C_R   0.568879 0.157621 0.141567 -0.095648
C62   C     C_R   0.431948 0.956224 0.846627 -0.092353
C63   C     C_R   0.933291 0.665894 0.366410 -0.099654
C64   C     C_R   0.067938 0.352419 0.636971 -0.095019
H9    H     H_    0.586411 0.233143 0.206369 0.180816
H10   H     H_    0.413069 0.937689 0.771641 0.177372
H11   H     H_    0.915594 0.745694 0.303113 0.182574
H12   H     H_    0.086320 0.276599 0.701379 0.181220
H13   H     H_    0.266810 0.994696 0.933251 0.156948
H14   H     H_    0.731811 0.132262 0.048730 0.153449
H15   H     H_    0.233963 0.473332 0.566312 0.155547
H16   H     H_    0.766716 0.558940 0.437833 0.155256
H17   H     H_    0.489659 0.200826 0.164095 0.183025
H18   H     H_    0.509972 0.960257 0.814881 0.179537
H19   H     H_    0.013156 0.737605 0.353602 0.183861
H20   H     H_    0.988488 0.267933 0.646800 0.185501
I1    I     I_    0.955928 0.147398 0.224937 -0.362216
I2    I     I_    0.043983 0.854615 0.774644 -0.364107
I3    I     I_    0.544785 0.617023 0.271082 -0.357315
I4    I     I_    0.455785 0.411826 0.731189 -0.380440
Br1   Br    Br    0.424376 0.961423 0.216852 -0.560851
Br2   Br    Br    0.589959 0.717667 0.852218 -0.549979
Br3   Br    Br    0.075472 0.513360 0.282132 -0.552332
Br4   Br    Br    0.924061 0.478776 0.718391 -0.553419
I5    I     I_    0.701467 0.262605 0.230537 -0.320091
I6    I     I_    0.297655 0.916025 0.744805 -0.329636
I7    I     I_    0.799627 0.717541 0.263307 -0.312640
I8    I     I_    0.201155 0.368172 0.751261 -0.324923

loop_
_geom_bond_atom_site_label_1
_geom_bond_atom_site_label_2
_ccdc_geom_bond_type
O17   V3    S    
C24   H3    S    
C55   C56   A    
O1    C5    A    
C50   C62   A    
O19   V1    S    
C1    C32   S    
O13   V1    S    
O3    C7    A    
C2    C31   S    
C60   C64   A    
C48   C52   A    
C3    C30   S    
O15   V3    S    
C47   C55   A    
C38   H13   S    
C16   I4    S    
C14   C25   A    
C37   H14   S    
O7    C3    A    
C9    C18   A    
O9    V1    S    
C17   H6    S    
C14   C18   A    
O4    C8    A    
C63   H11   S    
C62   H10   S    
C20   H7    S    
O1    V3    S    
C44   Br3   S    
C30   C38   A    
C12   C23   A    
O2    V4    S    
C52   C64   A    
O3    V1    S    
C60   H20   S    
C2    O16   A    
C7    C9    S    
C39   H16   S    
O2    C6    A    
O14   V2    S    
C45   C49   A    
C14   I2    S    
C16   C20   A    
C13   I1    S    
C36   C40   A    
O11   C7    A    
C46   C54   A    
C15   I3    S    
C15   C28   A    
C45   C53   A    
O12   C8    A    
C55   C60   A    
C57   C61   A    
C9    C22   A    
C10   C17   A    
O10   V2    S    
C11   C24   A    
C18   H5    S    
C1    O15   A    
C58   C62   A    
O5    V1    S    
O7    V3    S    
C27   C28   A    
C36   C52   A    
C59   H19   S    
C58   H18   S    
O18   V4    S    
C15   C19   A    
C29   C41   A    
C53   C54   A    
C42   Br1   S    
C8    C10   S    
C41   Br2   S    
O8    V4    S    
C35   I7    S    
O5    C1    A    
C34   C50   A    
C49   C61   A    
C46   C50   A    
C33   C49   A    
C56   C59   A    
C21   C25   A    
O8    C4    A    
C51   C63   A    
C32   C44   A    
O9    C5    A    
C10   C21   A    
C35   C51   A    
C11   C20   A    
C19   H8    S    
O6    V2    S    
C31   C39   A    
C21   H2    S    
C34   I6    S    
C57   H17   S    
C61   H9    S    
O16   V4    S    
C29   C37   A    
C3    O13   A    
C33   I5    S    
C44   C48   A    
C54   C57   A    
O6    C2    A    
C23   C27   A    
C53   C58   A    
O11   V3    S    
C5    C11   S    
C40   H15   S    
O12   V4    S    
C16   C27   A    
C6    C12   S    
C22   C26   A    
O10   C6    A    
O20   V2    S    
C48   C56   A    
C36   I8    S    
C47   C51   A    
C4    C29   S    
C34   C38   A    
C31   C43   A    
C33   C37   A    
C64   H12   S    
C22   H1    S    
C13   C26   A    
C35   C39   A    
C32   C40   A    
C13   C17   A    
C59   C63   A    
C24   C28   A    
C25   C26   A    
C42   C46   A    
C4    O14   A    
C41   C45   A    
C30   C42   A    
C12   C19   A    
C43   Br4   S    
C43   C47   A    
O4    V2    S    
C23   H4    S    
