data_str_m4_o17_o17_f0_acs.sym.133
_audit_creation_date              2012-12-11T14:30:02-0500
_audit_creation_method            fapswitch 2.2
_symmetry_space_group_name_H-M    P1
_symmetry_Int_Tables_number       1
_space_group_crystal_system       triclinic
_cell_length_a                    12.740618
_cell_length_b                    12.740345
_cell_length_c                    26.861871
_cell_angle_alpha                 89.999401
_cell_angle_beta                  90.000231
_cell_angle_gamma                 119.944267
_cell_volume                      3778.1761396

loop_
_atom_site_label
_atom_site_type_symbol
_atom_type_description
_atom_site_fract_x
_atom_site_fract_y
_atom_site_fract_z
_atom_type_partial_charge
C1    C     C_R   0.556202 0.457352 0.821532 0.542303
C2    C     C_R   0.900871 0.443636 0.678369 0.535520
C3    C     C_R   0.542872 0.098991 0.821523 0.541107
C4    C     C_R   0.556191 0.457350 0.678470 0.542242
C5    C     C_R   0.900861 0.443622 0.821635 0.535492
C6    C     C_R   0.542879 0.098993 0.678476 0.541059
C7    C     C_R   0.457355 0.556207 0.321533 0.542456
C8    C     C_R   0.443619 0.900858 0.178364 0.535510
C9    C     C_R   0.099000 0.542866 0.321527 0.541190
C10   C     C_R   0.457353 0.556198 0.178469 0.542441
C11   C     C_R   0.443617 0.900866 0.321634 0.535565
C12   C     C_R   0.098990 0.542870 0.178477 0.541161
C13   C     C_R   0.995853 0.500204 0.974014 -0.031958
C14   C     C_R   0.503317 0.001552 0.526659 -0.034465
C15   C     C_R   0.499062 0.496423 0.973662 -0.035425
C16   C     C_R   0.995793 0.500190 0.525994 -0.031933
C17   C     C_R   0.503244 0.001474 0.973332 -0.034512
C18   C     C_R   0.499051 0.496380 0.526341 -0.035406
C19   C     C_R   0.500244 0.995950 0.474005 -0.032029
C20   C     C_R   0.001460 0.503243 0.026667 -0.034515
C21   C     C_R   0.496436 0.499052 0.473663 -0.035477
C22   C     C_R   0.500200 0.995868 0.025986 -0.031953
C23   C     C_R   0.001401 0.503177 0.473340 -0.034548
C24   C     C_R   0.496416 0.499064 0.026341 -0.035438
C25   C     C_R   0.993098 0.689277 0.974630 -0.056110
C26   C     C_R   0.695807 0.005765 0.525701 -0.056325
C27   C     C_R   0.310457 0.304443 0.974424 -0.055822
C28   C     C_R   0.992532 0.689008 0.525327 -0.056095
C29   C     C_R   0.695504 0.005220 0.974251 -0.056294
C30   C     C_R   0.310694 0.304154 0.525541 -0.055826
C31   C     C_R   0.689550 0.993655 0.474582 -0.056162
C32   C     C_R   0.005209 0.695510 0.025749 -0.056257
C33   C     C_R   0.304684 0.310206 0.474388 -0.055785
C34   C     C_R   0.689267 0.993104 0.025369 -0.056089
C35   C     C_R   0.004646 0.695207 0.474209 -0.056176
C36   C     C_R   0.304425 0.310475 0.025576 -0.055906
C37   C     C_R   0.967249 0.582727 0.896272 0.195078
C38   C     C_R   0.615157 0.030782 0.604218 0.230632
C39   C     C_R   0.416224 0.385536 0.895905 0.226067
C40   C     C_R   0.967057 0.582674 0.603717 0.194875
C41   C     C_R   0.615019 0.030588 0.895763 0.230771
C42   C     C_R   0.416264 0.385417 0.604086 0.226021
C43   C     C_R   0.582813 0.967482 0.396248 0.195363
C44   C     C_R   0.030573 0.615012 0.104238 0.230816
C45   C     C_R   0.385625 0.416171 0.395893 0.226165
C46   C     C_R   0.582713 0.967242 0.103726 0.195098
C47   C     C_R   0.030409 0.614876 0.395755 0.230957
C48   C     C_R   0.385536 0.416214 0.104099 0.226019
C49   C     C_R   0.033943 0.520597 0.130264 -0.022087
C50   C     C_R   0.485279 0.964859 0.370185 -0.043865
C51   C     C_R   0.480089 0.513870 0.130151 -0.024784
C52   C     C_R   0.033971 0.520548 0.369747 -0.021798
C53   C     C_R   0.485294 0.964813 0.129807 -0.044167
C54   C     C_R   0.480116 0.513915 0.369856 -0.024800
C55   C     C_R   0.520656 0.033960 0.630262 -0.022239
C56   C     C_R   0.964819 0.485301 0.870191 -0.044252
C57   C     C_R   0.513826 0.480050 0.630154 -0.024890
C58   C     C_R   0.520602 0.033947 0.869735 -0.022066
C59   C     C_R   0.964843 0.485373 0.629821 -0.044579
C60   C     C_R   0.513884 0.480088 0.869853 -0.024817
C61   C     C_R   0.987300 0.592284 0.947964 0.030745
C62   C     C_R   0.604422 0.010713 0.552528 0.029305
C63   C     C_R   0.406985 0.395807 0.947661 0.028463
C64   C     C_R   0.987028 0.592177 0.552020 0.030814
C65   C     C_R   0.604248 0.010442 0.947446 0.029243
C66   C     C_R   0.407067 0.395656 0.552325 0.028588
C67   C     C_R   0.592414 0.987596 0.447937 0.030613
C68   C     C_R   0.010428 0.604247 0.052554 0.029279
C69   C     C_R   0.395922 0.406885 0.447646 0.028414
C70   C     C_R   0.592274 0.987304 0.052035 0.030786
C71   C     C_R   0.010168 0.604074 0.447431 0.029288
C72   C     C_R   0.395798 0.406987 0.052341 0.028357
C73   C     C_R   0.004541 0.413113 0.894701 0.047895
C74   C     C_R   0.408588 0.993323 0.606143 0.041427
C75   C     C_R   0.585817 0.591948 0.894273 0.044915
C76   C     C_R   0.004762 0.413336 0.605329 0.048061
C77   C     C_R   0.408566 0.993459 0.893863 0.041330
C78   C     C_R   0.585639 0.591949 0.605745 0.045025
C79   C     C_R   0.412981 0.004431 0.394709 0.047801
C80   C     C_R   0.993453 0.408560 0.106136 0.041345
C81   C     C_R   0.591939 0.585941 0.394290 0.044845
C82   C     C_R   0.413105 0.004537 0.105301 0.047846
C83   C     C_R   0.993659 0.408543 0.393888 0.041174
C84   C     C_R   0.591947 0.585795 0.105730 0.044915
C85   C     C_R   0.002569 0.407991 0.947459 -0.036134
C86   C     C_R   0.404530 0.994436 0.553454 -0.039880
C87   C     C_R   0.591011 0.595212 0.947011 -0.039466
C88   C     C_R   0.002740 0.408139 0.552574 -0.035953
C89   C     C_R   0.404530 0.994563 0.946552 -0.040070
C90   C     C_R   0.590871 0.595241 0.553008 -0.039353
C91   C     C_R   0.407899 0.002463 0.447468 -0.036299
C92   C     C_R   0.994548 0.404523 0.053446 -0.040042
C93   C     C_R   0.595159 0.591117 0.447027 -0.039538
C94   C     C_R   0.407988 0.002587 0.052541 -0.036201
C95   C     C_R   0.994713 0.404521 0.446584 -0.040345
C96   C     C_R   0.595206 0.591002 0.052993 -0.039464
C97   C     C_R   0.994068 0.308228 0.026785 0.228601
C98   C     C_R   0.312239 0.002803 0.474492 0.231925
C99   C     C_R   0.691243 0.686731 0.026155 0.232845
C100  C     C_R   0.994398 0.308338 0.473281 0.228353
C101  C     C_R   0.312408 0.003124 0.025532 0.231989
C102  C     C_R   0.691091 0.686914 0.473882 0.232742
C103  C     C_R   0.308125 0.993776 0.526814 0.228744
C104  C     C_R   0.003091 0.312399 0.974463 0.232015
C105  C     C_R   0.686532 0.691383 0.526183 0.232915
C106  C     C_R   0.308241 0.994094 0.973210 0.228612
C107  C     C_R   0.003426 0.312598 0.525603 0.232187
C108  C     C_R   0.686736 0.691247 0.973853 0.232819
Cr1   Cr    Cr6+3 0.487630 0.241180 0.750000 1.200402
Cr2   Cr    Cr6+3 0.753550 0.512370 0.750000 1.194345
Cr3   Cr    Cr6+3 0.758820 0.246450 0.750000 1.185583
Cr4   Cr    Cr6+3 0.241180 0.487630 0.250000 1.200339
Cr5   Cr    Cr6+3 0.512370 0.753550 0.250000 1.194184
Cr6   Cr    Cr6+3 0.246450 0.758820 0.250000 1.185360
H1    H     H_    0.009471 0.772699 0.043864 0.272594
H2    H     H_    0.762907 0.990401 0.456350 0.273258
H3    H     H_    0.227319 0.237575 0.043737 0.271703
H4    H     H_    0.008677 0.772267 0.456070 0.272620
H5    H     H_    0.762539 0.989647 0.043581 0.273206
H6    H     H_    0.227715 0.237189 0.456207 0.271756
H7    H     H_    0.773111 0.010236 0.543797 0.272557
H8    H     H_    0.989645 0.762549 0.956416 0.273202
H9    H     H_    0.237886 0.226925 0.543682 0.271672
H10   H     H_    0.772690 0.009482 0.956136 0.272592
H11   H     H_    0.988851 0.762187 0.543515 0.273160
H12   H     H_    0.237548 0.227347 0.956261 0.271713
O1    O     O_R   0.460870 0.120930 0.805240 -0.451541
O2    O     O_R   0.660060 0.539130 0.694760 -0.446473
O3    O     O_R   0.879070 0.339940 0.805240 -0.448514
O4    O     O_R   0.460870 0.120930 0.694760 -0.451313
O5    O     O_R   0.660060 0.539130 0.805240 -0.446712
O6    O     O_R   0.879070 0.339940 0.694760 -0.448120
O7    O     O_R   0.120930 0.460870 0.305240 -0.451954
O8    O     O_R   0.539130 0.660060 0.194760 -0.446665
O9    O     O_R   0.339940 0.879070 0.305240 -0.448760
O10   O     O_R   0.120930 0.460870 0.194760 -0.451608
O11   O     O_R   0.539130 0.660060 0.305240 -0.446809
O12   O     O_R   0.339940 0.879070 0.194760 -0.448699
O13   O     O_R   0.498910 0.350470 0.801870 -0.447625
O14   O     O_R   0.851560 0.501090 0.698130 -0.445170
O15   O     O_R   0.649530 0.148440 0.801870 -0.445681
O16   O     O_R   0.498910 0.350470 0.698130 -0.447700
O17   O     O_R   0.851560 0.501090 0.801870 -0.445107
O18   O     O_R   0.649530 0.148440 0.698130 -0.445752
O19   O     O_R   0.350470 0.498910 0.301870 -0.447534
O20   O     O_R   0.501090 0.851560 0.198130 -0.445101
O21   O     O_R   0.148440 0.649530 0.301870 -0.445569
O22   O     O_R   0.350470 0.498910 0.198130 -0.447575
O23   O     O_R   0.501090 0.851560 0.301870 -0.445098
O24   O     O_R   0.148440 0.649530 0.198130 -0.445635
O25   O     O_3   0.666667 0.333333 0.750000 -0.324827
O26   O     O_3   0.333333 0.666667 0.250000 -0.324782
Cl1   Cl    Cl    0.047701 0.744917 0.136069 -0.443365
Cl2   Cl    Cl    0.695054 0.948859 0.364576 -0.432249
Cl3   Cl    Cl    0.255741 0.303424 0.135964 -0.444427
Cl4   Cl    Cl    0.047464 0.744737 0.363907 -0.443437
Cl5   Cl    Cl    0.694916 0.948520 0.135380 -0.431957
Cl6   Cl    Cl    0.255845 0.303378 0.364022 -0.444347
Cl7   Cl    Cl    0.745136 0.048036 0.636032 -0.443303
Cl8   Cl    Cl    0.948555 0.694948 0.864614 -0.431802
Cl9   Cl    Cl    0.303524 0.255549 0.635934 -0.444449
Cl10  Cl    Cl    0.744942 0.047744 0.863936 -0.443346
Cl11  Cl    Cl    0.948264 0.694855 0.635357 -0.431609
Cl12  Cl    Cl    0.303446 0.255726 0.864043 -0.444455
C109  C     C_2   0.914597 0.298189 0.135395 0.666931
O27   O     O_2   0.957454 0.247441 0.159707 -0.344139
O28   O     O_R   0.790169 0.255801 0.136458 -0.659721
H13   H     H_    0.745773 0.186940 0.160914 0.363959
C110  C     C_2   0.374528 0.078774 0.365861 0.663954
O29   O     O_2   0.436676 0.189112 0.367536 -0.470653
O30   O     O_R   0.268381 0.024435 0.337473 -0.548192
H14   H     H_    0.253903 0.085691 0.319230 0.385161
C111  C     C_2   0.704451 0.623138 0.134598 0.667821
O31   O     O_2   0.752834 0.561139 0.132282 -0.465133
O32   O     O_R   0.755852 0.728155 0.163682 -0.545145
H15   H     H_    0.831321 0.741840 0.181896 0.384308
C112  C     C_2   0.915152 0.298139 0.364588 0.666797
O33   O     O_2   0.958279 0.247176 0.340589 -0.343343
O34   O     O_R   0.790812 0.256115 0.363034 -0.659953
H16   H     H_    0.746740 0.187178 0.338587 0.364218
C113  C     C_2   0.374758 0.078925 0.134176 0.663903
O35   O     O_2   0.437042 0.189262 0.132556 -0.470568
O36   O     O_R   0.268577 0.024631 0.162541 -0.548147
H17   H     H_    0.254192 0.085913 0.180815 0.385108
C114  C     C_2   0.704485 0.623428 0.365434 0.667757
O37   O     O_2   0.752879 0.561435 0.367693 -0.465178
O38   O     O_R   0.755889 0.728551 0.336412 -0.544962
H18   H     H_    0.831378 0.742324 0.318191 0.384397
C115  C     C_2   0.298258 0.914305 0.635389 0.667112
O39   O     O_2   0.247611 0.957024 0.659842 -0.344321
O40   O     O_R   0.255711 0.789843 0.636229 -0.659639
H19   H     H_    0.186836 0.745283 0.660658 0.363799
C116  C     C_2   0.079045 0.374864 0.865850 0.663858
O41   O     O_2   0.189377 0.437036 0.867618 -0.470663
O42   O     O_R   0.024868 0.268856 0.837368 -0.548281
H20   H     H_    0.086226 0.254516 0.819134 0.385069
C117  C     C_2   0.622853 0.704420 0.634620 0.667794
O43   O     O_2   0.560889 0.752837 0.632223 -0.465087
O44   O     O_R   0.727752 0.755801 0.663775 -0.545328
H21   H     H_    0.741378 0.831276 0.681966 0.384251
C118  C     C_2   0.298206 0.914608 0.864604 0.666942
O45   O     O_2   0.247426 0.957462 0.840314 -0.343885
O46   O     O_R   0.255875 0.790185 0.863510 -0.659799
H22   H     H_    0.186991 0.745787 0.839071 0.363983
C119  C     C_2   0.079566 0.375439 0.634165 0.663946
O47   O     O_2   0.189857 0.437461 0.632136 -0.470676
O48   O     O_R   0.025720 0.269866 0.662891 -0.548852
H23   H     H_    0.087275 0.255731 0.681068 0.384917
C120  C     C_2   0.623221 0.704455 0.865397 0.667706
O49   O     O_2   0.561178 0.752806 0.867654 -0.465160
O50   O     O_R   0.728335 0.755889 0.836367 -0.544976
H24   H     H_    0.742055 0.831359 0.818141 0.384348
Cl13  Cl    Cl    0.994586 0.185837 0.057757 -0.411997
Cl14  Cl    Cl    0.189125 0.003403 0.444190 -0.421237
Cl15  Cl    Cl    0.814217 0.809765 0.056767 -0.416541
Cl16  Cl    Cl    0.995117 0.185978 0.442380 -0.412332
Cl17  Cl    Cl    0.189445 0.003982 0.055853 -0.421005
Cl18  Cl    Cl    0.813982 0.810076 0.443292 -0.416815
Cl19  Cl    Cl    0.185648 0.994057 0.557820 -0.411729
Cl20  Cl    Cl    0.003911 0.189424 0.944128 -0.420930
Cl21  Cl    Cl    0.809443 0.814452 0.556814 -0.416351
Cl22  Cl    Cl    0.185864 0.994618 0.942233 -0.411946
Cl23  Cl    Cl    0.004454 0.189781 0.556000 -0.420489
Cl24  Cl    Cl    0.809775 0.814231 0.943249 -0.416581

loop_
_geom_bond_atom_site_label_1
_geom_bond_atom_site_label_2
_ccdc_geom_bond_type
C44   C49   A    
O46   H22   S    
C29   H10   S    
C109  O27   D    
C82   C94   A    
C73   C116  S    
C18   C21   A    
C22   C94   A    
C110  O29   D    
C80   C109  S    
C5    C56   S    
C3    O15   A    
Cr6   O26   S    
Cr4   O7    S    
C6    O4    A    
C103  Cl19  S    
C50   C79   A    
C12   C49   S    
C42   Cl9   S    
C119  O47   D    
C78   C90   A    
C31   C67   A    
C99   C108  A    
C20   C92   A    
C82   C113  S    
C77   C89   A    
C99   Cl15  S    
C101  Cl17  S    
C44   Cl1   S    
C37   Cl8   S    
Cr1   O25   S    
C48   C72   A    
C41   C58   A    
C24   C96   A    
C4    O16   A    
C108  Cl24  S    
C27   H12   S    
C3    O1    A    
C114  O38   S    
C47   Cl4   S    
C86   C103  A    
C98   C103  A    
C14   C62   A    
C96   C99   A    
Cr5   O23   S    
C101  C106  A    
Cr4   O19   S    
C87   C108  A    
C102  C105  A    
C8    O12   A    
C84   C96   A    
C102  Cl18  S    
C117  O44   S    
C104  Cl20  S    
C58   C77   A    
C55   C74   A    
C28   H11   S    
Cr1   O1    S    
C48   C51   A    
C100  Cl16  S    
C38   C55   A    
O32   H15   S    
C28   C35   A    
C116  O42   S    
C89   C106  A    
C2    O6    A    
Cr6   O9    S    
Cr4   O26   S    
C19   C67   A    
Cr1   O16   S    
C78   C117  S    
C38   C62   A    
C43   Cl2   S    
C25   H8    S    
C76   C88   A    
C79   C91   A    
C30   C33   A    
C33   C69   A    
C32   C68   A    
C25   C32   A    
C111  O32   S    
C98   Cl14  S    
C35   C71   A    
C26   C31   A    
C109  O28   S    
C40   C59   A    
C97   Cl13  S    
C41   Cl10  S    
C118  O46   S    
Cr5   O26   S    
C115  O39   D    
C9    C52   S    
Cr4   O10   S    
C6    C55   S    
C10   C51   S    
C14   C19   A    
C42   C57   A    
C81   C114  S    
C11   O23   A    
C92   C97   A    
C107  Cl23  S    
C119  O48   S    
C83   C112  S    
C45   C69   A    
O48   H23   S    
C18   C90   A    
C12   O24   A    
C42   C66   A    
C17   C89   A    
C14   C86   A    
C40   Cl11  S    
Cr2   O25   S    
C113  O36   S    
O28   H13   S    
C7    O11   A    
C88   C107  A    
C4    O2    A    
C2    C59   S    
C41   C65   A    
C112  O34   S    
C113  O35   D    
C46   Cl5   S    
C29   C34   A    
C9    O21   A    
O40   H19   S    
C21   C69   A    
C53   C82   A    
Cr5   O20   S    
C80   C92   A    
C52   C83   A    
O36   H17   S    
C11   O9    A    
C74   C115  S    
C81   C93   A    
O50   H24   S    
C38   Cl7   S    
C83   C95   A    
C77   C118  S    
C120  O49   D    
Cr2   O5    S    
C25   C61   A    
C74   C86   A    
C36   H3    S    
O30   H14   S    
C47   C71   A    
C30   C66   A    
C85   C104  A    
C27   C63   A    
C37   C56   A    
C33   H6    S    
C29   C65   A    
Cr3   O18   S    
C75   C87   A    
C15   C24   A    
C26   H7    S    
C48   Cl3   S    
C45   C54   A    
C112  O33   D    
Cr3   O3    S    
Cr5   O8    S    
Cr2   O2    S    
C91   C98   A    
Cr5   O11   S    
C1    C60   S    
C18   C66   A    
Cr6   O24   S    
C6    O18   A    
C84   C111  S    
C28   C64   A    
C31   H2    S    
C76   C119  S    
C24   C72   A    
C15   C87   A    
C1    O13   A    
C110  O30   S    
C34   H5    S    
C34   C70   A    
C75   C120  S    
C100  C107  A    
C56   C73   A    
C94   C101  A    
C13   C20   A    
C95   C100  A    
C93   C102  A    
C57   C78   A    
C20   C68   A    
C19   C91   A    
C8    O20   A    
C45   Cl6   S    
C10   O8    A    
C90   C105  A    
C1    O5    A    
Cr3   O25   S    
C8    C53   S    
Cr6   O21   S    
C37   C61   A    
C49   C80   A    
C43   C50   A    
C47   C52   A    
C27   C36   A    
C16   C23   A    
C39   C63   A    
C60   C75   A    
C17   C65   A    
C17   C22   A    
C40   C64   A    
C118  O45   D    
Cr1   O13   S    
C2    O14   A    
C79   C110  S    
Cr2   O14   S    
C26   C62   A    
C5    O17   A    
C73   C85   A    
C11   C50   S    
Cr2   O17   S    
C114  O37   D    
C106  Cl22  S    
C21   C93   A    
C105  Cl21  S    
C39   C60   A    
C59   C76   A    
C46   C53   A    
C5    O3    A    
C120  O50   S    
C23   C95   A    
O44   H21   S    
Cr6   O12   S    
C32   H1    S    
C117  O43   D    
C46   C70   A    
C97   C104  A    
C44   C68   A    
Cr3   O15   S    
C111  O31   D    
O42   H20   S    
C3    C58   S    
Cr4   O22   S    
Cr3   O6    S    
O38   H18   S    
C13   C61   A    
C30   H9    S    
C23   C71   A    
C43   C67   A    
C116  O41   D    
C12   O10   A    
C13   C85   A    
Cr1   O4    S    
C16   C88   A    
O34   H16   S    
C15   C63   A    
C35   H4    S    
C16   C64   A    
C7    C54   S    
C115  O40   S    
C39   Cl12  S    
C51   C84   A    
C22   C70   A    
C54   C81   A    
C36   C72   A    
C4    C57   S    
C10   O22   A    
C7    O19   A    
C9    O7    A    
