data_str_m3_o10_o29_f0_pcu.sym.158
_audit_creation_date              2012-12-10T16:59:15-0500
_audit_creation_method            fapswitch 2.2
_symmetry_space_group_name_H-M    P1
_symmetry_Int_Tables_number       1
_space_group_crystal_system       triclinic
_cell_length_a                    7.777804
_cell_length_b                    8.544586
_cell_length_c                    27.718833
_cell_angle_alpha                 91.680312
_cell_angle_beta                  85.409883
_cell_angle_gamma                 93.489624
_cell_volume                      1832.2748393

loop_
_atom_site_label
_atom_site_type_symbol
_atom_type_description
_atom_site_fract_x
_atom_site_fract_y
_atom_site_fract_z
_atom_type_partial_charge
C1    C     C_R   0.545602 0.794655 0.498775 0.960652
C2    C     C_R   0.526027 0.641357 0.128324 -0.022014
C3    C     C_R   0.505837 0.500092 0.646437 -0.037205
C4    C     C_R   0.494153 0.499858 0.353561 -0.037212
C5    C     C_R   0.537183 0.642753 0.026108 0.047763
C6    C     C_R   0.462811 0.357053 0.973892 0.047764
C7    C     C_R   0.456299 0.357879 0.025163 0.048020
C8    C     C_R   0.543685 0.641929 0.974837 0.048024
C9    C     C_R   0.493951 0.500645 0.050906 0.072043
C10   C     C_R   0.506038 0.499162 0.949095 0.072040
C11   C     C_R   0.572340 0.781432 0.053756 -0.227182
C12   C     C_R   0.454398 0.205345 0.501225 0.960654
C13   C     C_R   0.427670 0.218372 0.946244 -0.227187
C14   C     C_R   0.566897 0.780299 0.103788 -0.138946
C15   C     C_R   0.433116 0.219505 0.896212 -0.138945
C16   C     C_R   0.501731 0.500199 0.593887 0.859494
C17   C     C_R   0.498268 0.499795 0.406112 0.859504
C18   C     C_R   0.587120 0.779475 0.948104 -0.226188
C19   C     C_R   0.412849 0.220336 0.051897 -0.226183
C20   C     C_2   0.569804 0.958043 0.498020 -0.364902
C21   C     C_2   0.430195 0.041957 0.501979 -0.364905
C22   C     C_R   0.555412 0.635359 0.822100 0.506440
C23   C     C_R   0.511344 0.498554 0.897844 -0.049474
C24   C     C_R   0.444549 0.364457 0.177902 0.506457
C25   C     C_R   0.477515 0.360914 0.821206 0.507708
C26   C     C_R   0.522489 0.638893 0.178794 0.507738
C27   C     C_R   0.355067 0.498707 0.726156 -0.097670
C28   C     C_R   0.331776 0.500389 0.282689 -0.101807
C29   C     C_R   0.350974 0.499504 0.676197 -0.206465
C30   C     C_R   0.335371 0.500194 0.332697 -0.195925
C31   C     C_R   0.664658 0.500453 0.667307 -0.196016
C32   C     C_R   0.648968 0.499685 0.323793 -0.206390
C33   C     C_R   0.668248 0.500200 0.717314 -0.101720
C34   C     C_R   0.488643 0.501254 0.102157 -0.049469
C35   C     C_R   0.644867 0.500412 0.273833 -0.097755
C36   C     C_R   0.513515 0.499056 0.746597 0.323656
C37   C     C_R   0.486464 0.500764 0.253400 0.323819
C38   C     C_R   0.553456 0.638147 0.872594 -0.021929
C39   C     C_R   0.446515 0.361663 0.127407 -0.021951
C40   C     C_R   0.591530 0.777248 0.898059 -0.142422
C41   C     C_R   0.408432 0.222564 0.101943 -0.142425
C42   C     C_R   0.473972 0.358451 0.871676 -0.021997
H1    H     H_    0.785814 0.501342 0.645109 0.178452
H2    H     H_    0.764383 0.500532 0.250914 0.136984
H3    H     H_    0.625056 0.885843 0.879373 0.192454
H4    H     H_    0.374895 0.113972 0.120630 0.192452
H5    H     H_    0.214245 0.499914 0.354899 0.178390
H6    H     H_    0.226958 0.499047 0.660967 0.164964
H7    H     H_    0.209334 0.500647 0.266637 0.136339
H8    H     H_    0.235517 0.498007 0.749069 0.137054
H9    H     H_    0.605133 0.894118 0.038197 0.141538
H10   H     H_    0.394889 0.105684 0.961803 0.141534
H11   H     H_    0.619091 0.892079 0.964408 0.141020
H12   H     H_    0.772959 0.499585 0.339013 0.164963
H13   H     H_    0.380868 0.107734 0.035593 0.141025
H14   H     H_    0.595712 0.889494 0.123193 0.195691
H15   H     H_    0.404311 0.110309 0.876807 0.195699
H16   H     H_    0.701811 0.008710 0.494200 0.191189
H17   H     H_    0.298189 0.991290 0.505799 0.191188
H18   H     H_    0.936683 0.302323 0.439057 0.333203
H19   H     H_    0.063317 0.697679 0.560942 0.333207
H20   H     H_    0.790719 0.500493 0.733374 0.136418
N1    N     N_R   0.516836 0.498220 0.797786 -0.361583
N2    N     N_R   0.483143 0.501593 0.202214 -0.361609
N3    N     N_2   0.950320 0.457960 0.486880 0.176050
N4    N     N_2   0.049680 0.542040 0.513120 0.176052
O1    O     O_R   0.389250 0.738570 0.503220 -0.633699
O2    O     O_2   0.406057 0.231337 0.202589 -0.531641
O3    O     O_2   0.558165 0.772201 0.204382 -0.529941
O4    O     O_2   0.441882 0.227596 0.795619 -0.529966
O5    O     O_3   0.030595 0.357423 0.456160 -0.665167
O6    O     O_3   0.969405 0.642579 0.543839 -0.665228
O7    O     O_R   0.610750 0.261430 0.496780 -0.633696
O8    O     O_R   0.678390 0.711630 0.494810 -0.577022
O9    O     O_R   0.321610 0.288370 0.505190 -0.577026
O10   O     O_R   0.355440 0.513440 0.575450 -0.643625
O11   O     O_R   0.644560 0.486560 0.424550 -0.643636
O12   O     O_R   0.644590 0.486500 0.567040 -0.580524
O13   O     O_R   0.355410 0.513500 0.432960 -0.580536
O14   O     O_2   0.593860 0.768490 0.797416 -0.531672
Zn1   Zn    Zn3+2 0.306940 0.517990 0.505620 1.041607
Zn2   Zn    Zn3+2 0.693060 0.482010 0.494380 1.041610

loop_
_geom_bond_atom_site_label_1
_geom_bond_atom_site_label_2
_ccdc_geom_bond_type
C14   H14   S    
C27   C29   A    
C33   C36   A    
C39   C41   A    
C23   C42   A    
C31   H1    S    
C1    O8    A    
O11   Zn2   S    
C35   C37   A    
C21   H17   S    
C11   C14   A    
C22   C38   A    
C17   O13   A    
C24   C39   A    
C25   N1    A    
C3    C29   A    
C26   N2    A    
C18   C40   A    
C18   H11   S    
C22   N1    A    
N4    O6    S    
C33   H20   S    
C41   H4    S    
C31   C33   A    
C36   N1    S    
C27   H8    S    
C2    C34   A    
C24   N2    A    
C12   O7    A    
C15   H15   S    
O8    Zn2   S    
C32   H12   S    
C40   H3    S    
C29   H6    S    
C34   C39   A    
C32   C35   A    
C30   H5    S    
O13   Zn1   S    
O9    Zn1   S    
H18   O5    S    
N3    O5    S    
C12   C21   S    
C8    C18   A    
C25   C42   A    
C5    C9    A    
C13   H10   S    
C28   H7    S    
O12   Zn2   S    
C17   O11   A    
C2    C26   A    
C3    C31   A    
C35   H2    S    
C4    C32   A    
C4    C17   S    
H19   O6    S    
O1    Zn1   S    
C7    C19   A    
C13   C15   A    
C9    C34   A    
C27   C36   A    
C20   H16   S    
O7    Zn2   S    
C37   N2    S    
C19   H13   S    
C7    C9    A    
C1    C20   S    
C16   O10   A    
C15   C42   A    
O10   Zn1   S    
C6    C10   A    
C5    C8    A    
C5    C11   A    
C6    C7    A    
C10   C23   A    
C23   C38   A    
C28   C30   A    
C22   O14   S    
N4    Zn1   S    
C38   C40   A    
N3    Zn2   S    
C28   C37   A    
C1    O1    A    
C16   O12   A    
C2    C14   A    
C11   H9    S    
C24   O2    S    
C20   C21   D    
C8    C10   A    
N3    N4    D    
C12   O9    A    
C26   O3    S    
C25   O4    S    
C4    C30   A    
C3    C16   S    
C19   C41   A    
C6    C13   A    
