data_str_m12_o9_o22_f0_bcu.sym.30
_audit_creation_date              2012-12-11T17:45:26-0500
_audit_creation_method            fapswitch 2.2
_symmetry_space_group_name_H-M    P1
_symmetry_Int_Tables_number       1
_space_group_crystal_system       triclinic
_cell_length_a                    15.044101
_cell_length_b                    14.931319
_cell_length_c                    15.035181
_cell_angle_alpha                 109.478519
_cell_angle_beta                  109.739878
_cell_angle_gamma                 108.93108
_cell_volume                      2608.20796247

loop_
_atom_site_label
_atom_site_type_symbol
_atom_type_description
_atom_site_fract_x
_atom_site_fract_y
_atom_site_fract_z
_atom_type_partial_charge
Br1   Br    Br    0.448917 0.007981 0.867767 -0.632518
Br2   Br    Br    0.731202 0.012012 0.402575 -0.650949
Br3   Br    Br    0.543011 0.292196 0.074483 -0.664439
C1    C     C_R   0.977503 0.253744 0.067570 -0.110821
C2    C     C_R   0.694033 0.203789 0.780297 -0.169121
C3    C     C_R   0.777339 0.592218 0.022268 -0.142673
C4    C     C_R   0.313467 0.751163 0.226113 -0.079758
C5    C     C_R   0.940215 0.410650 0.685403 -0.134963
C6    C     C_R   0.675405 0.501275 0.946727 -0.019606
C7    C     C_R   0.952468 0.503434 0.675866 0.030786
C8    C     C_R   0.690977 0.152230 0.682345 0.059416
C9    C     C_R   0.067908 0.871453 0.077244 0.043487
C10   C     C_R   0.617072 0.107082 0.161856 0.008549
C11   C     C_R   0.667780 0.217469 0.238995 -0.072799
C12   C     C_R   0.320346 0.775603 0.326867 0.039243
C13   C     C_R   0.780809 0.283162 0.291099 0.100173
C14   C     C_R   0.843154 0.234562 0.272426 -0.182708
C15   C     C_R   0.792049 0.125351 0.192908 -0.100693
C16   C     C_R   0.208926 0.411777 0.901248 -0.135695
C17   C     C_R   0.679174 0.061345 0.137586 -0.008649
C18   C     C_R   0.838954 0.407563 0.476275 -0.232896
C19   C     C_R   0.912048 0.506614 0.573172 0.064002
C20   C     C_R   0.957174 0.601955 0.566777 0.028895
C21   C     C_R   0.934778 0.594093 0.466809 -0.230292
C22   C     C_R   0.890437 0.492764 0.376052 0.081651
C23   C     C_R   0.299874 0.503826 0.928686 -0.101980
C24   C     C_R   0.834313 0.396896 0.378911 0.040453
C25   C     C_R   0.028358 0.785877 0.716839 -0.202229
C26   C     C_R   0.110408 0.871566 0.820510 -0.197351
C27   C     C_R   0.213522 0.881343 0.865290 -0.074732
C28   C     C_R   0.990280 0.587711 0.296423 -0.134836
C29   C     C_R   0.233443 0.802748 0.807246 0.009468
C30   C     C_R   0.151715 0.716482 0.703858 -0.176235
C31   C     C_R   0.047899 0.705771 0.660729 0.111132
C32   C     C_R   0.198044 0.936593 0.576823 -0.184916
C33   C     C_R   0.247032 0.935049 0.512609 -0.174953
C34   C     C_R   0.924829 0.494916 0.294959 0.073823
C35   C     C_R   0.346035 0.934947 0.547517 0.070848
C36   C     C_R   0.398295 0.943929 0.649553 -0.202598
C37   C     C_R   0.355840 0.958562 0.718304 0.383088
C38   C     C_R   0.253038 0.949558 0.679866 -0.178207
C39   C     C_R   0.501899 0.050287 0.555010 -0.227964
C40   C     C_R   0.297549 0.593087 0.993460 -0.011322
C41   C     C_R   0.601510 0.054591 0.586114 0.064789
C42   C     C_R   0.610254 0.962807 0.533159 0.089306
C43   C     C_R   0.516021 0.867454 0.447963 -0.209587
C44   C     C_R   0.415928 0.860235 0.429230 0.061736
C45   C     C_R   0.686635 0.409350 0.932322 -0.065645
C46   C     C_R   0.410251 0.949385 0.493406 0.045968
C47   C     C_R   0.775483 0.979840 0.518415 0.314409
C48   C     C_R   0.873007 0.977597 0.554774 -0.185438
C49   C     C_R   0.907122 0.953436 0.638032 -0.172215
C50   C     C_R   0.845736 0.935009 0.688409 -0.096339
C51   C     C_R   0.749532 0.939714 0.654643 -0.164756
C52   C     C_R   0.898145 0.407165 0.202296 -0.141759
C53   C     C_R   0.713604 0.961542 0.569240 0.011465
C54   C     C_3   0.472649 0.388919 0.846844 -0.408880
C55   C     C_3   0.368486 0.392354 0.834194 -0.393203
C56   C     C_R   0.020416 0.592055 0.780508 -0.088226
C57   C     C_3   0.581807 0.540395 0.044459 -0.369453
C58   C     C_3   0.556615 0.582883 0.891473 -0.400834
C59   C     C_3   0.573588 0.503260 0.931097 0.346664
C60   C     C_3   0.397095 0.504786 0.922081 0.258678
C61   C     C_3   0.474145 0.526666 0.035305 -0.379518
C62   C     C_3   0.459641 0.594301 0.899375 -0.175213
C63   C     C_R   0.214398 0.130154 0.843770 -0.214585
C64   C     C_R   0.217818 0.742361 0.312170 -0.150451
C65   C     C_R   0.163049 0.119141 0.903880 -0.183546
C66   C     C_R   0.223986 0.163595 0.016958 0.069679
C67   C     C_R   0.787909 0.208585 0.691909 -0.109210
C68   C     C_R   0.337786 0.217072 0.068506 -0.245950
C69   C     C_R   0.388992 0.223819 0.006862 0.416659
C70   C     C_R   0.326842 0.177578 0.894342 -0.146523
C71   C     C_R   0.172736 0.045637 0.089415 -0.250808
C72   C     C_R   0.102274 0.989146 0.116698 0.062998
C73   C     C_R   0.054394 0.042202 0.164698 0.032845
C74   C     C_R   0.061775 0.137083 0.163667 -0.238741
C75   C     C_R   0.103767 0.172983 0.104125 0.065344
C76   C     C_R   0.076673 0.264534 0.985803 -0.147671
C77   C     C_R   0.169421 0.132621 0.075487 0.051088
C78   C     C_R   0.004651 0.803351 0.100287 -0.146957
C79   C     C_R   0.876593 0.930423 0.143574 -0.217573
C80   C     C_R   0.816633 0.881766 0.184087 -0.102479
C81   C     C_R   0.869456 0.899202 0.289517 -0.030845
C82   C     C_R   0.981756 0.968260 0.355820 -0.128802
C83   C     C_R   0.041734 0.018884 0.316646 -0.158717
C84   C     C_R   0.989640 0.998647 0.209694 0.114629
C85   C     C_R   0.059486 0.233220 0.058612 0.050356
C86   C     C_2   0.386649 0.593258 0.800694 0.508463
C87   C     C_2   0.358856 0.707706 0.023355 0.415778
C88   C     C_R   0.097356 0.808157 0.013514 -0.116385
H1    H     H_    0.943443 0.242577 0.118168 0.095944
H2    H     H_    0.529778 0.057165 0.120969 0.142487
H3    H     H_    0.619202 0.251687 0.258903 0.140976
H4    H     H_    0.380813 0.771223 0.211698 0.113039
H5    H     H_    0.930917 0.282355 0.316501 0.122541
H6    H     H_    0.840344 0.091084 0.174163 0.124890
H7    H     H_    0.796948 0.334548 0.478088 0.146757
H8    H     H_    0.970876 0.669327 0.466553 0.126858
H9    H     H_    0.947550 0.776049 0.685288 0.132568
H10   H     H_    0.091083 0.925376 0.868099 0.145527
H11   H     H_    0.277291 0.948045 0.945770 0.149273
H12   H     H_    0.039174 0.674806 0.808957 0.139106
H13   H     H_    0.311386 0.807138 0.843050 0.192870
H14   H     H_    0.166598 0.653688 0.661100 0.137826
H15   H     H_    0.217139 0.956470 0.730558 0.171884
H16   H     H_    0.178292 0.327864 0.843481 0.110433
H17   H     H_    0.119780 0.932389 0.549274 0.118648
H18   H     H_    0.208097 0.933241 0.436369 0.124538
H19   H     H_    0.477896 0.950539 0.679904 0.151665
H20   H     H_    0.497121 0.120584 0.600933 0.133877
H21   H     H_    0.520133 0.798201 0.399251 0.136731
H22   H     H_    0.922700 0.995018 0.518902 0.135888
H23   H     H_    0.815929 0.184348 0.635666 0.130062
H24   H     H_    0.981310 0.949266 0.663516 0.123430
H25   H     H_    0.872700 0.917137 0.753578 0.111731
H26   H     H_    0.014328 0.671485 0.347580 0.093655
H27   H     H_    0.702456 0.925440 0.694277 0.133918
H28   H     H_    0.478469 0.331290 0.876037 0.187385
H29   H     H_    0.468843 0.358396 0.766525 0.151752
H30   H     H_    0.318939 0.376591 0.751024 0.147552
H31   H     H_    0.320369 0.324990 0.841963 0.171186
H32   H     H_    0.607090 0.493980 0.081971 0.217523
H33   H     H_    0.436580 0.457483 0.047702 0.195664
H34   H     H_    0.985716 0.824993 0.164095 0.129783
H35   H     H_    0.630959 0.664469 0.941870 0.145568
H36   H     H_    0.541170 0.551473 0.806347 0.172625
H37   H     H_    0.497838 0.676036 0.969735 0.112888
H38   H     H_    0.644848 0.627919 0.101138 0.145276
H39   H     H_    0.489828 0.601789 0.102170 0.142609
H40   H     H_    0.364906 0.176717 0.845082 0.151372
H41   H     H_    0.166892 0.097391 0.756983 0.131338
H42   H     H_    0.075378 0.075673 0.862716 0.130067
H43   H     H_    0.385997 0.248685 0.155069 0.149924
H44   H     H_    0.221001 0.014196 0.065498 0.127679
H45   H     H_    0.162071 0.838785 0.998022 0.139725
H46   H     H_    0.023271 0.174820 0.199630 0.120340
H47   H     H_    0.830871 0.326013 0.160082 0.146508
H48   H     H_    0.835658 0.913605 0.060497 0.128319
H49   H     H_    0.729668 0.828956 0.133139 0.111050
H50   H     H_    0.823313 0.858874 0.319553 0.123727
H51   H     H_    0.023070 0.981716 0.437096 0.094743
H52   H     H_    0.128919 0.070448 0.367976 0.116198
H53   H     H_    0.193285 0.744543 0.371877 0.128690
H54   H     H_    0.143694 0.277931 0.972116 0.135048
H55   H     H_    0.624010 0.324997 0.883186 0.113008
H56   H     H_    0.634580 0.171819 0.802492 0.137684
H57   H     H_    0.302525 0.529177 0.747202 0.007912
H58   H     H_    0.446504 0.752145 0.069916 0.016011
H59   H     H_    0.797372 0.676764 0.056577 0.109128
H60   H     H_    0.894836 0.327205 0.620503 0.121093
H61   H     H_    0.640065 0.976287 0.076827 0.124100
N1    N     N_R   0.947080 0.293830 0.002870 -0.040602
N2    N     N_R   0.153670 0.443180 0.946090 -0.052270
N3    N     N_R   0.002360 0.556820 0.208890 -0.044777
N4    N     N_R   0.210070 0.556820 0.002870 -0.042029
N5    N     N_R   0.945960 0.443180 0.152110 -0.045064
N6    N     N_R   0.151710 0.706170 0.208890 -0.049212
N7    N     N_R   0.004320 0.293830 0.946090 -0.043149
N8    N     N_R   0.789930 0.443180 0.997130 -0.033307
N9    N     N_R   0.054040 0.556820 0.847890 -0.029867
N10   N     N_R   0.848290 0.293830 0.791110 -0.046536
N11   N     N_R   0.995680 0.706170 0.053910 -0.047656
N12   N     N_R   0.052920 0.706170 0.997130 -0.040268
N13   N     N_R   0.791050 0.293830 0.847890 -0.040891
N14   N     N_R   0.846330 0.556820 0.053910 -0.039033
N15   N     N_R   0.997640 0.443180 0.791110 -0.047145
N16   N     N_R   0.208950 0.706170 0.152110 -0.030591
Ni1   Ni    Ni4+2 0.869690 0.369690 0.000000 0.240590
Ni2   Ni    Ni4+2 0.130310 0.630310 0.000000 0.277094
Ni3   Ni    Ni4+2 0.000970 0.369690 0.869780 0.214889
Ni4   Ni    Ni4+2 0.999030 0.630310 0.130220 0.205390
O1    O     O_2   0.421776 0.665230 0.780235 -0.577054
O2    O     O_2   0.310855 0.756594 0.003225 -0.608764

loop_
_geom_bond_atom_site_label_1
_geom_bond_atom_site_label_2
_ccdc_geom_bond_type
C86   H57   S    
C63   C65   A    
C4    N16   A    
C3    N14   A    
C72   C73   A    
N14   Ni4   S    
C2    H56   S    
C43   H21   S    
N3    N5    A    
C21   H8    S    
C9    C88   A    
N12   Ni2   S    
N11   N12   A    
C12   C44   S    
C39   H20   S    
C68   H43   S    
C60   C62   S    
C8    C67   A    
N6    N16   A    
C54   C59   S    
C44   C46   A    
C35   C46   S    
C74   C75   A    
C7    C19   S    
C62   C86   S    
C45   N8    A    
C48   H22   S    
C52   H47   S    
N7    Ni3   S    
C25   C26   A    
C74   H46   S    
C2    C8    A    
C76   N7    A    
C35   C36   A    
C75   C77   A    
C79   C84   A    
C57   C59   S    
N4    Ni2   S    
C66   C68   A    
C16   C23   A    
C28   H26   S    
N2    Ni3   S    
C32   H17   S    
Br2   C47   S    
Br1   C37   S    
C22   C34   S    
N3    Ni4   S    
C36   H19   S    
C88   H45   S    
C32   C33   A    
C42   C53   S    
C13   C14   A    
C45   H55   S    
C14   C15   A    
C23   C40   A    
N8    Ni1   S    
C29   H13   S    
C21   C22   A    
C58   H35   S    
C15   H6    S    
N8    N14   A    
C64   N6    A    
N2    N4    A    
C50   H25   S    
C54   H28   S    
N5    Ni1   S    
C25   H9    S    
C13   C24   S    
N16   Ni2   S    
C1    N1    A    
C18   C24   A    
C25   C31   A    
C71   C77   A    
C18   C19   A    
C78   N11   A    
C39   C41   A    
C3    C6    A    
C87   H58   S    
C64   H53   S    
C67   N10   A    
C80   H49   S    
C83   H52   S    
C47   C48   A    
C63   H41   S    
N13   Ni1   S    
C51   C53   A    
C70   H40   S    
C55   H31   S    
C40   C87   S    
C71   C72   A    
N10   Ni3   S    
C48   C49   A    
C62   H37   S    
C5    H60   S    
C30   H14   S    
C73   C74   A    
C76   H54   S    
C38   H15   S    
C36   C37   A    
C83   C84   A    
C65   C66   A    
N15   Ni3   S    
C82   C83   A    
C63   C70   A    
C47   C53   A    
C17   H61   S    
C10   H2    S    
C34   C52   A    
N1    N7    A    
C57   H32   S    
C23   C60   S    
C26   C27   A    
C56   N9    A    
C5    N15   A    
C58   C62   S    
N10   N13   A    
C80   C81   A    
C86   O1    D    
C20   C21   A    
C20   C31   S    
C12   C64   A    
C71   H44   S    
C27   H11   S    
C79   H48   S    
C30   C31   A    
C26   H10   S    
C8    C41   S    
C58   H36   S    
C14   H5    S    
C81   C82   A    
N11   Ni4   S    
C73   C84   S    
N9    N15   A    
C76   C85   A    
C54   H29   S    
N9    Ni2   S    
C37   C38   A    
C61   H39   S    
C2    N13   A    
C51   H27   S    
C11   C13   A    
C88   N12   A    
C42   C43   A    
C40   N4    A    
C49   C50   A    
C49   H24   S    
C75   C85   S    
C55   C60   S    
C43   C44   A    
C65   H42   S    
C55   H30   S    
C10   C17   A    
C78   H34   S    
C41   C42   A    
C69   C70   A    
C57   H38   S    
C28   N3    A    
C50   C51   A    
C1    C85   A    
C22   C24   A    
C4    H4    S    
C87   O2    D    
C67   H23   S    
C6    C59   S    
C57   C61   S    
C56   H12   S    
C29   C30   A    
C33   C35   A    
C7    C56   A    
C68   C69   A    
C61   H33   S    
C27   C29   A    
C18   H7    S    
N6    Ni4   S    
C54   C55   S    
C81   H50   S    
C4    C12   A    
C9    C78   A    
Br3   C69   S    
C82   H51   S    
C15   C17   A    
C58   C59   S    
C32   C38   A    
C39   C46   A    
C60   C61   S    
C3    H59   S    
C28   C34   A    
C52   N5    A    
C6    C45   A    
C5    C7    A    
C79   C80   A    
C9    C72   S    
N1    Ni1   S    
C33   H18   S    
C16   N2    A    
C19   C20   A    
C66   C77   S    
C10   C11   A    
C11   H3    S    
C1    H1    S    
C16   H16   S    
