data_str_m9_o18_o23_f0_sra.sym.22
_audit_creation_date              2012-12-11T15:30:32-0500
_audit_creation_method            fapswitch 2.2
_symmetry_space_group_name_H-M    P1
_symmetry_Int_Tables_number       1
_space_group_crystal_system       triclinic
_cell_length_a                    6.946358
_cell_length_b                    20.440633
_cell_length_c                    24.429049
_cell_angle_alpha                 89.751617
_cell_angle_beta                  90.777662
_cell_angle_gamma                 89.77628
_cell_volume                      3468.25137139

loop_
_atom_site_label
_atom_site_type_symbol
_atom_type_description
_atom_site_fract_x
_atom_site_fract_y
_atom_site_fract_z
_atom_type_partial_charge
O1    O     O_R   0.507310 0.423620 0.460450 -0.536077
O2    O     O_R   0.170760 0.556060 0.437190 -0.537577
O3    O     O_R   0.004040 0.576380 0.539550 -0.534902
C1    C     C_R   0.338750 0.576218 0.421220 0.726838
O4    O     O_R   0.177350 0.422870 0.454070 -0.538075
O5    O     O_R   0.010680 0.442240 0.556560 -0.534740
C2    C     C_R   0.345569 0.398822 0.443462 0.693759
O6    O     O_R   0.500670 0.557760 0.443440 -0.534747
O7    O     O_3   0.340380 0.506510 0.533610 -0.366142
V1    V     V_3+5 0.064130 0.498790 0.493770 1.419683
O8    O     O_R   0.681170 0.443940 0.562810 -0.538989
C3    C     C_R   0.850905 0.423754 0.578585 0.727077
O9    O     O_R   0.674570 0.577130 0.545930 -0.537930
C4    C     C_R   0.843982 0.601097 0.556672 0.693249
V2    V     V_3+5 0.564560 0.501210 0.506230 1.417365
O10   O     O_3   0.838170 0.493490 0.466390 -0.366451
C5    C     C_R   0.970507 0.838009 0.911464 -0.044494
C6    C     C_R   0.858009 0.662044 0.588685 -0.041319
C7    C     C_R   0.957582 0.720007 0.909486 -0.166652
C8    C     C_R   0.972022 0.778015 0.938874 -0.171053
C9    C     C_R   0.959236 0.839482 0.853991 -0.221777
C10   C     C_R   0.962221 0.780855 0.822756 0.077453
C11   C     C_R   0.949104 0.720985 0.852014 0.146224
C12   C     C_R   0.968400 0.779447 0.763768 -0.000239
C13   C     C_R   0.924427 0.719328 0.735802 0.046505
C14   C     C_R   0.903784 0.661817 0.767396 -0.180476
C15   C     C_R   0.922781 0.662490 0.823987 -0.206670
C16   C     C_R   0.023013 0.834621 0.731530 -0.012942
C17   C     C_R   0.994718 0.833670 0.674780 -0.232068
C18   C     C_R   0.936544 0.777098 0.647603 0.120196
C19   C     C_R   0.907762 0.718208 0.677129 0.086099
C20   C     C_R   0.920028 0.778291 0.590229 -0.154168
C21   C     C_R   0.882248 0.721275 0.561117 -0.169262
C22   C     C_R   0.867567 0.660539 0.646261 -0.209580
H1    H     H_    0.910131 0.616726 0.846240 0.117529
H2    H     H_    0.848419 0.613409 0.665232 0.089344
H3    H     H_    0.877124 0.723026 0.516782 0.101247
H4    H     H_    0.032281 0.876542 0.650885 0.126999
H5    H     H_    0.951628 0.674138 0.931815 0.108758
H6    H     H_    0.979680 0.776189 0.983185 0.102122
H7    H     H_    0.941237 0.886749 0.834904 0.116191
H8    H     H_    0.876345 0.614660 0.749597 0.119375
H9    H     H_    0.942561 0.823272 0.567584 0.110057
C23   C     C_3   0.808566 0.175252 0.742390 -0.319128
C24   C     C_3   0.825633 0.269407 0.808681 -0.339973
C25   C     C_3   0.810159 0.319994 0.760823 -0.409148
H10   H     H_    0.621382 0.240709 0.697607 0.068336
H11   H     H_    0.666207 0.159059 0.757793 0.108129
H12   H     H_    0.906872 0.291501 0.843503 0.149800
H13   H     H_    0.678806 0.257779 0.823496 0.139639
H14   H     H_    0.656703 0.334240 0.754255 0.137556
H15   H     H_    0.889009 0.365330 0.772281 0.157471
C26   C     C_1   0.863471 0.377885 0.624006 -0.199837
C27   C     C_3   0.927722 0.205497 0.790125 0.240217
C28   C     C_3   0.776573 0.226715 0.695647 0.209408
C29   C     C_3   0.893996 0.290812 0.707477 0.251598
C30   C     C_3   0.109346 0.275088 0.720785 -0.319314
C31   C     C_3   0.128393 0.223934 0.767844 -0.341436
C32   C     C_1   0.876314 0.338953 0.661639 -0.087649
C33   C     C_1   0.946632 0.158482 0.836664 -0.092221
C34   C     C_1   0.960264 0.120546 0.874964 -0.194995
H16   H     H_    0.203102 0.179490 0.752613 0.130482
H17   H     H_    0.219657 0.244345 0.801403 0.141808
H18   H     H_    0.188043 0.258109 0.684425 0.141407
H19   H     H_    0.881216 0.130488 0.727301 0.151139
H20   H     H_    0.183760 0.320789 0.733588 0.135013
C35   C     C_3   0.591970 0.700626 0.265908 -0.326588
C36   C     C_3   0.237167 0.696153 0.245050 -0.330094
C37   C     C_3   0.264389 0.745535 0.197020 -0.326222
H21   H     H_    0.652630 0.722896 0.179843 0.137038
H22   H     H_    0.612434 0.649907 0.250605 0.136949
H23   H     H_    0.089575 0.701600 0.261663 0.137096
H24   H     H_    0.250210 0.645304 0.229405 0.137386
H25   H     H_    0.290452 0.718151 0.158535 0.136612
H26   H     H_    0.129537 0.774353 0.190752 0.135867
C38   C     C_1   0.475641 0.878264 0.124734 -0.194950
C39   C     C_3   0.388911 0.707695 0.291164 0.290595
C40   C     C_3   0.619150 0.750088 0.217936 -0.331921
C41   C     C_3   0.435345 0.792390 0.208894 0.291743
C42   C     C_3   0.393490 0.828687 0.263151 -0.327822
C43   C     C_3   0.366441 0.779259 0.311166 -0.327526
C44   C     C_1   0.460112 0.839809 0.162700 -0.101237
C45   C     C_1   0.364136 0.660268 0.337353 -0.101233
C46   C     C_1   0.348610 0.621799 0.375308 -0.194976
H27   H     H_    0.474434 0.789411 0.344078 0.137347
H28   H     H_    0.221377 0.786267 0.329072 0.135664
H29   H     H_    0.514266 0.862351 0.273241 0.136962
H30   H     H_    0.704587 0.709154 0.297901 0.135630
H31   H     H_    0.744427 0.782178 0.227176 0.134991
H32   H     H_    0.261227 0.859166 0.258223 0.136628
C47   C     C_R   0.474851 0.161845 0.089008 -0.042539
C48   C     C_R   0.349648 0.338067 0.411178 -0.042958
C49   C     C_R   0.548265 0.277042 0.095546 -0.165312
C50   C     C_R   0.535910 0.220017 0.064855 -0.169671
C51   C     C_R   0.426714 0.160953 0.144767 -0.216377
C52   C     C_R   0.441985 0.218392 0.177503 0.086157
C53   C     C_R   0.503547 0.276709 0.151400 0.142201
C54   C     C_R   0.401484 0.219978 0.235065 0.058524
C55   C     C_R   0.423284 0.279854 0.265176 0.058761
C56   C     C_R   0.484204 0.336122 0.236689 -0.189455
C57   C     C_R   0.522875 0.334404 0.181134 -0.205207
C58   C     C_R   0.340656 0.163706 0.263563 -0.189314
C59   C     C_R   0.301999 0.165432 0.319127 -0.204333
C60   C     C_R   0.321223 0.223143 0.348852 0.141324
C61   C     C_R   0.382721 0.281454 0.322730 0.086132
C62   C     C_R   0.276470 0.222840 0.404710 -0.163252
C63   C     C_R   0.288689 0.279898 0.435373 -0.169065
C64   C     C_R   0.397844 0.338916 0.355432 -0.216183
H33   H     H_    0.569963 0.378955 0.161214 0.119083
H34   H     H_    0.441028 0.385407 0.338824 0.093522
H35   H     H_    0.248953 0.278820 0.478113 0.103151
H36   H     H_    0.254986 0.120878 0.339058 0.119886
H37   H     H_    0.596106 0.321503 0.075672 0.109477
H38   H     H_    0.575613 0.221120 0.022116 0.103752
H39   H     H_    0.383418 0.114464 0.161358 0.093605
H40   H     H_    0.504354 0.382750 0.256183 0.120966
H41   H     H_    0.320617 0.117070 0.244068 0.121114
H42   H     H_    0.228694 0.178385 0.424606 0.110930
O11   O     O_R   0.323590 0.942280 0.056590 -0.535207
O12   O     O_R   0.647030 0.077140 0.045940 -0.537915
O13   O     O_R   0.813570 0.057750 0.943430 -0.537131
C65   C     C_R   0.478830 0.101141 0.056649 0.694149
O14   O     O_R   0.653510 0.943950 0.062820 -0.537402
O15   O     O_R   0.820100 0.923600 0.960440 -0.538945
C66   C     C_R   0.485510 0.923818 0.078806 0.726357
O16   O     O_R   0.317060 0.076430 0.039590 -0.536289
O17   O     O_3   0.483830 0.993520 0.966410 -0.367004
V3    V     V_3+5 0.760140 0.001200 0.006230 1.414257
O18   O     O_R   0.149560 0.922820 0.954030 -0.534394
C67   C     C_R   0.980367 0.898932 0.943344 0.698647
O19   O     O_R   0.143080 0.056020 0.937150 -0.536694
C68   C     C_R   0.973234 0.075769 0.921095 0.731427
V4    V     V_3+5 0.259690 0.998730 0.993720 1.422682
O20   O     O_3   0.986120 0.006480 0.033580 -0.366697
N1    N     N_2   0.801546 0.199073 0.641086 -0.517936
H43   H     H_    0.722583 0.222399 0.610653 0.250501
C69   C     C_3   0.988135 0.176668 0.623045 -0.535810
H44   H     H_    0.967158 0.139481 0.590564 0.194930
H45   H     H_    0.072921 0.153602 0.656725 0.195923
H46   H     H_    0.069053 0.218037 0.605015 0.182515
C70   C     C_R   0.141585 0.889307 0.753266 0.096543
C71   C     C_R   0.082965 0.954658 0.745371 -0.163502
C72   C     C_R   0.194884 0.005787 0.766238 -0.129393
C73   C     C_R   0.366622 0.992244 0.794615 -0.086735
C74   C     C_R   0.427389 0.927509 0.801993 -0.109552
C75   C     C_R   0.315985 0.876189 0.781266 -0.111016
H47   H     H_    0.949473 0.965870 0.723835 0.115168
H48   H     H_    0.148416 0.055923 0.760466 0.105927
H49   H     H_    0.452838 0.031924 0.810753 0.103372
H50   H     H_    0.560841 0.917084 0.823771 0.109926
H51   H     H_    0.365051 0.826257 0.787180 0.118396

loop_
_geom_bond_atom_site_label_1
_geom_bond_atom_site_label_2
_ccdc_geom_bond_type
C31   H16   S    
C28   C29   S    
C13   C19   A    
C49   C50   A    
H21   C40   S    
C4    C6    S    
O2    C1    A    
C51   C52   A    
C35   C39   S    
C30   H20   S    
C1    O6    A    
C60   C62   A    
C74   C75   A    
C26   C32   T    
N1    H43   S    
C27   C33   S    
C24   C25   S    
C69   H45   S    
C35   H30   S    
O11   V4    S    
C10   C12   A    
C16   C17   A    
C42   H29   S    
O5    C3    A    
C18   C19   A    
C8    H6    S    
O14   C66   A    
C62   C63   A    
C39   C45   S    
C57   H33   S    
C72   C73   A    
C25   H15   S    
C31   H17   S    
C5    C8    A    
C29   C30   S    
C29   C32   S    
C34   C68   S    
C74   H50   S    
O8    V2    S    
C48   C64   A    
C7    C8    A    
O16   V4    S    
C51   H39   S    
C36   C37   S    
C47   C65   S    
C52   C54   A    
C17   H4    S    
O1    V2    S    
C11   C15   A    
C17   C18   A    
O7    V1    S    
C22   H2    S    
C3    C26   S    
O15   V3    S    
O9    C4    A    
C62   H42   S    
C42   H32   S    
C38   C66   S    
C23   H19   S    
C35   C40   S    
C60   C61   A    
C61   C64   A    
O12   C65   A    
C10   C11   A    
C40   H31   S    
C50   H38   S    
C72   H48   S    
C55   C61   A    
C69   H46   S    
V2    O10   S    
O17   V4    S    
C12   C13   A    
O13   V3    S    
C38   C44   T    
O4    C2    A    
C40   C41   S    
C42   C43   S    
C15   H1    S    
C36   H24   S    
C54   C58   A    
C25   H14   S    
C21   H3    S    
C41   C42   S    
C59   H36   S    
C65   O16   A    
C7    C11   A    
C73   H49   S    
V3    O20   S    
C48   C63   A    
C45   C46   T    
C1    C46   S    
C24   H12   S    
C36   H23   S    
C52   C53   A    
C14   C15   A    
C19   C22   A    
O15   C67   A    
C37   H25   S    
C49   H37   S    
C6    C22   A    
C58   H41   S    
C7    H5    S    
C70   C75   A    
C9    H7    S    
O11   C66   A    
C24   C27   S    
C54   C55   A    
O6    V2    S    
O9    V2    S    
V4    O20   S    
O18   V4    S    
C37   C41   S    
O13   C68   A    
C25   C29   S    
O17   V3    S    
O2    V1    S    
C49   C53   A    
C14   H8    S    
C30   H18   S    
H10   C28   S    
O18   C67   A    
C27   C31   S    
C36   C39   S    
N1    C69   S    
C5    C67   S    
O1    C2    A    
C63   H35   S    
C71   H47   S    
C12   C16   A    
C73   C74   A    
O19   V4    S    
O19   C68   A    
O5    V1    S    
C41   C44   S    
O8    C3    A    
O12   V3    S    
O3    C4    A    
C69   H44   S    
C55   C56   A    
C43   H28   S    
C56   H40   S    
C13   C14   A    
O4    V1    S    
O3    V1    S    
V1    O10   S    
C70   C71   A    
C20   C21   A    
C47   C50   A    
C18   C20   A    
C23   C28   S    
C30   C31   S    
C24   H13   S    
C28   N1    S    
C2    C48   S    
C56   C57   A    
C20   H9    S    
C64   H34   S    
C37   H26   S    
C35   H22   S    
O7    V2    S    
C58   C59   A    
C6    C21   A    
C43   H27   S    
C47   C51   A    
C75   H51   S    
C23   C27   S    
C39   C43   S    
O14   V3    S    
C59   C60   A    
C71   C72   A    
C33   C34   T    
C16   C70   S    
C9    C10   A    
C53   C57   A    
C23   H11   S    
C5    C9    A    
