data_str_m2_o22_o22_f0_pcu.sym.2
_audit_creation_date              2012-10-26T19:09:54-0400
_audit_creation_method            fapswitch 2.2
_symmetry_space_group_name_H-M    P1
_symmetry_Int_Tables_number       1
_space_group_crystal_system       triclinic
_cell_length_a                    15.586264
_cell_length_b                    14.778513
_cell_length_c                    9.54016
_cell_angle_alpha                 89.999164
_cell_angle_beta                  90.002799
_cell_angle_gamma                 89.999561
_cell_volume                      2197.49767286

loop_
_atom_site_label
_atom_site_type_symbol
_atom_type_description
_atom_site_fract_x
_atom_site_fract_y
_atom_site_fract_z
_atom_type_partial_charge
C1    C     C_R   0.120765 0.381057 0.500039 0.545227
C2    C     C_R   0.881173 0.621230 0.499856 0.540193
C3    C     C_R   0.381177 0.878768 0.499857 0.540156
C4    C     C_R   0.381190 0.121246 0.500143 0.540068
C5    C     C_3   0.827609 0.238473 0.618826 -0.234195
C6    C     C_3   0.810117 0.257782 0.359172 -0.236391
C7    C     C_3   0.809972 0.742051 0.640986 -0.236336
C8    C     C_3   0.827701 0.761647 0.381398 -0.234193
C9    C     C_3   0.309836 0.758102 0.641111 -0.236429
C10   C     C_3   0.327835 0.738216 0.381648 -0.234144
C11   C     C_3   0.327545 0.261446 0.619010 -0.234259
C12   C     C_R   0.120740 0.618971 0.499969 0.545416
C13   C     C_3   0.310247 0.242357 0.359254 -0.236282
C14   C     C_3   0.237757 0.687749 0.642610 -0.233806
C15   C     C_3   0.257123 0.665365 0.383801 -0.232473
C16   C     C_3   0.256719 0.334166 0.617145 -0.232489
C17   C     C_3   0.238352 0.312938 0.357904 -0.233886
C18   C     C_3   0.756838 0.165694 0.616830 -0.232524
C19   C     C_3   0.738137 0.187308 0.357752 -0.233797
C20   C     C_3   0.737970 0.812499 0.642432 -0.233845
C21   C     C_3   0.756954 0.834453 0.383447 -0.232478
C22   C     C_3   0.724087 0.354588 0.525004 -0.237405
C23   C     C_R   0.620742 0.881033 0.499969 0.545377
C24   C     C_3   0.724095 0.645423 0.474654 -0.237447
C25   C     C_3   0.224132 0.854544 0.474275 -0.237451
C26   C     C_3   0.224082 0.145408 0.524720 -0.237403
C27   C     C_3   0.812345 0.309015 0.500813 0.051603
C28   C     C_3   0.812334 0.690975 0.499197 0.051528
C29   C     C_3   0.312342 0.809022 0.499199 0.051563
C30   C     C_3   0.312365 0.191004 0.500811 0.051574
C31   C     C_3   0.190382 0.687123 0.499699 0.053033
C32   C     C_3   0.190416 0.312917 0.500325 0.053163
C33   C     C_3   0.690392 0.187109 0.500323 0.053080
C34   C     C_R   0.620749 0.118960 0.500038 0.545317
C35   C     C_3   0.690380 0.812881 0.499698 0.053113
C36   C     C_3   0.152309 0.782442 0.472496 -0.232912
C37   C     C_3   0.152233 0.217482 0.526155 -0.232766
C38   C     C_3   0.652250 0.282500 0.526602 -0.232839
C39   C     C_3   0.652260 0.717515 0.473013 -0.232848
C40   C     C_3   0.960181 0.583350 0.086040 0.011301
C41   C     C_3   0.951732 0.578747 0.919463 0.037877
C42   C     C_3   0.951958 0.421106 0.080571 0.037725
C43   C     C_3   0.960363 0.416550 0.913988 0.011588
C44   C     C_3   0.451865 0.078836 0.080542 0.037828
C45   C     C_3   0.089640 0.494368 0.082340 -0.078014
C46   C     C_3   0.460313 0.083424 0.913965 0.011449
C47   C     C_3   0.460260 0.916608 0.086042 0.011328
C48   C     C_3   0.451791 0.921214 0.919469 0.037940
C49   C     C_2   0.002962 0.669101 0.142209 0.255010
C50   C     C_2   0.967554 0.671689 0.856745 0.305124
C51   C     C_2   0.968106 0.328251 0.143406 0.305161
C52   C     C_2   0.003205 0.330879 0.857748 0.256058
C53   C     C_2   0.467857 0.171732 0.143322 0.305077
C54   C     C_2   0.503174 0.169109 0.857773 0.255504
C55   C     C_2   0.503120 0.830906 0.142217 0.254984
C56   C     C_3   0.089618 0.505908 0.917652 -0.078007
C57   C     C_2   0.467656 0.828290 0.856721 0.305220
C58   C     C_3   0.589630 0.005740 0.082346 -0.078057
C59   C     C_3   0.589623 0.994165 0.917661 -0.078038
C60   C     C_R   0.881180 0.378764 0.500144 0.539978
Cu1   Cu    Cu3+1 0.000100 0.500000 0.642410 0.931654
Cu2   Cu    Cu3+1 0.000100 0.500000 0.357590 0.931137
Cu3   Cu    Cu3+1 0.500100 1.000000 0.642410 0.931525
Cu4   Cu    Cu3+1 0.500100 1.000000 0.357590 0.931266
H1    H     H_    0.264912 0.619579 0.665132 0.100148
H2    H     H_    0.225732 0.663043 0.279099 0.160873
H3    H     H_    0.224953 0.335837 0.721580 0.162257
H4    H     H_    0.193644 0.296710 0.270754 0.188807
H5    H     H_    0.725196 0.163782 0.721339 0.161781
H6    H     H_    0.693326 0.203777 0.270874 0.188830
H7    H     H_    0.693059 0.795893 0.729129 0.188864
H8    H     H_    0.725416 0.836532 0.278838 0.161325
H9    H     H_    0.724192 0.391974 0.626296 0.120218
H10   H     H_    0.711229 0.404730 0.440491 0.110157
H11   H     H_    0.711153 0.595203 0.559025 0.110094
H12   H     H_    0.286233 0.597693 0.402972 0.096112
H13   H     H_    0.724298 0.608130 0.373274 0.120261
H14   H     H_    0.211077 0.904813 0.558522 0.110100
H15   H     H_    0.224459 0.891774 0.372844 0.120292
H16   H     H_    0.224088 0.107998 0.625998 0.120229
H17   H     H_    0.211318 0.095283 0.440141 0.110139
H18   H     H_    0.893260 0.586717 0.126273 0.059284
H19   H     H_    0.882468 0.567066 0.896333 0.036487
H20   H     H_    0.882665 0.432574 0.103723 0.036526
H21   H     H_    0.893430 0.413063 0.873817 0.058987
H22   H     H_    0.382582 0.067272 0.103658 0.036531
H23   H     H_    0.285782 0.402005 0.599171 0.096093
H24   H     H_    0.393391 0.086896 0.873745 0.059128
H25   H     H_    0.393344 0.913167 0.126283 0.059264
H26   H     H_    0.382516 0.932855 0.896368 0.036423
H27   H     H_    0.826653 0.272455 0.722844 0.114071
H28   H     H_    0.798969 0.306169 0.271673 0.118937
H29   H     H_    0.798775 0.693566 0.728339 0.118872
H30   H     H_    0.826780 0.727774 0.277288 0.113945
H31   H     H_    0.298665 0.806676 0.728353 0.118876
H32   H     H_    0.326971 0.771961 0.277440 0.113927
H33   H     H_    0.326600 0.227368 0.722963 0.114064
H34   H     H_    0.265770 0.381163 0.336606 0.099866
H35   H     H_    0.299047 0.194040 0.271679 0.118949
H36   H     H_    0.891374 0.205739 0.605211 0.100041
H37   H     H_    0.872532 0.222906 0.342612 0.124657
H38   H     H_    0.872362 0.776932 0.657794 0.125244
H39   H     H_    0.891475 0.794337 0.395195 0.100095
H40   H     H_    0.372171 0.723148 0.658068 0.125147
H41   H     H_    0.391620 0.705589 0.395648 0.100049
H42   H     H_    0.391287 0.294252 0.605499 0.100055
H43   H     H_    0.372715 0.277144 0.342752 0.124936
H44   H     H_    0.103708 0.798937 0.554075 0.136894
H45   H     H_    0.785928 0.097926 0.598442 0.096117
H46   H     H_    0.119127 0.783817 0.369228 0.144814
H47   H     H_    0.118511 0.215706 0.628953 0.143801
H48   H     H_    0.104058 0.201282 0.443739 0.137729
H49   H     H_    0.618732 0.284144 0.629562 0.144085
H50   H     H_    0.603920 0.298787 0.444495 0.137473
H51   H     H_    0.603824 0.701129 0.554922 0.137277
H52   H     H_    0.618864 0.715990 0.369921 0.144287
H53   H     H_    0.970384 0.710468 0.218734 0.093670
H54   H     H_    0.917943 0.722269 0.869430 0.041033
H55   H     H_    0.918412 0.277659 0.131623 0.041019
H56   H     H_    0.765438 0.119101 0.336020 0.099976
H57   H     H_    0.970453 0.289295 0.781669 0.092917
H58   H     H_    0.418229 0.222331 0.131064 0.041074
H59   H     H_    0.470553 0.210590 0.781428 0.093328
H60   H     H_    0.470633 0.789577 0.218883 0.093808
H61   H     H_    0.418037 0.777708 0.869314 0.040987
H62   H     H_    0.133068 0.544572 0.131104 0.146926
H63   H     H_    0.120070 0.571445 0.891765 0.172750
H64   H     H_    0.120324 0.428958 0.108237 0.172708
H65   H     H_    0.133184 0.455850 0.868867 0.146884
H66   H     H_    0.620205 0.071215 0.108210 0.172783
H67   H     H_    0.765236 0.880692 0.664482 0.100038
H68   H     H_    0.633157 0.044251 0.868860 0.146855
H69   H     H_    0.633111 0.955598 0.131138 0.146818
H70   H     H_    0.620120 0.928643 0.891807 0.172760
H71   H     H_    0.786053 0.902189 0.402167 0.096112
H72   H     H_    0.192732 0.704600 0.729012 0.189062
N1    N     N_3   0.001260 0.500000 0.143650 -0.245124
N2    N     N_3   0.001260 0.500000 0.856350 -0.244927
N3    N     N_3   0.501260 0.000000 0.143650 -0.245072
N4    N     N_3   0.501260 1.000000 0.856350 -0.244977
O1    O     O_R   0.091250 0.408820 0.620260 -0.512630
O2    O     O_R   0.908940 0.408800 0.379740 -0.504958
O3    O     O_R   0.908940 0.591200 0.620260 -0.504302
O4    O     O_R   0.908940 0.591200 0.379740 -0.539081
O5    O     O_R   0.408940 0.908800 0.620260 -0.504385
O6    O     O_R   0.408940 0.908800 0.379740 -0.539134
O7    O     O_R   0.408940 0.091200 0.620260 -0.539027
O8    O     O_R   0.408940 0.091200 0.379740 -0.504604
O9    O     O_2   0.073833 0.693338 0.102617 -0.540821
O10   O     O_2   0.036268 0.695314 0.808865 -0.501530
O11   O     O_2   0.037163 0.304627 0.190071 -0.501829
O12   O     O_R   0.091250 0.408820 0.379740 -0.468809
O13   O     O_2   0.074267 0.306908 0.896842 -0.540310
O14   O     O_2   0.536725 0.195333 0.190670 -0.501653
O15   O     O_2   0.574138 0.193178 0.897166 -0.540612
O16   O     O_2   0.573971 0.806695 0.102530 -0.540788
O17   O     O_2   0.536411 0.804676 0.808965 -0.501456
O18   O     O_R   0.091250 0.591180 0.620260 -0.468558
O19   O     O_R   0.091250 0.591180 0.379740 -0.512886
O20   O     O_R   0.591250 0.908820 0.620260 -0.468542
O21   O     O_R   0.591250 0.908820 0.379740 -0.512989
O22   O     O_R   0.591250 0.091180 0.620260 -0.512804
O23   O     O_R   0.591250 0.091180 0.379740 -0.468611
O24   O     O_R   0.908940 0.408800 0.620260 -0.538934

loop_
_geom_bond_atom_site_label_1
_geom_bond_atom_site_label_2
_ccdc_geom_bond_type
C58   N3    S    
Cu3   O22   S    
C54   H59   S    
C36   H44   S    
Cu1   O24   S    
C2    O4    A    
Cu3   N4    S    
C18   H45   S    
C14   C31   S    
C13   H43   S    
C48   C57   S    
C6    C19   S    
Cu2   O12   S    
C43   N2    S    
C47   C55   S    
C27   C60   S    
C31   C36   S    
C57   H61   S    
C38   H50   S    
C43   C52   S    
C6    H37   S    
C45   H64   S    
C40   C49   S    
C41   H19   S    
C24   C39   S    
C1    O12   A    
C52   H57   S    
C56   H63   S    
C3    C29   S    
C37   H48   S    
C60   O2    A    
C5    C27   S    
C20   C35   S    
C44   C53   S    
Cu1   O3    S    
C49   H53   S    
C47   C48   S    
C11   C30   S    
C7    H38   S    
C16   H23   S    
C51   H55   S    
C20   H7    S    
C17   H34   S    
C9    H31   S    
C56   H65   S    
C9    C29   S    
C42   C51   S    
C18   H5    S    
C15   H12   S    
C51   O11   D    
C53   O14   D    
Cu2   N1    S    
C48   H26   S    
C40   N1    S    
C42   N1    S    
C53   H58   S    
C2    O3    A    
C47   H25   S    
Cu3   O20   S    
Cu2   O2    S    
Cu4   O23   S    
C44   H22   S    
Cu3   O7    S    
C8    H39   S    
C44   C46   S    
C8    C21   S    
C46   H24   S    
C58   H69   S    
C25   C29   S    
C55   O16   D    
C7    H29   S    
C59   H68   S    
C11   H33   S    
C48   N4    S    
C21   H8    S    
C25   H14   S    
C43   H21   S    
C40   H18   S    
C13   C30   S    
C8    H30   S    
C45   C56   S    
C34   O23   A    
C19   C33   S    
C54   O15   D    
C38   H49   S    
C5    C18   S    
C58   C59   S    
C4    O7    A    
C1    C32   S    
C26   H16   S    
C7    C28   S    
C4    O8    A    
C13   H35   S    
C35   C39   S    
C9    C14   S    
C56   N2    S    
C11   C16   S    
C50   O10   D    
C6    C27   S    
C5    H36   S    
C10   H32   S    
C45   H62   S    
C23   O20   A    
C46   C54   S    
C11   H42   S    
C45   N1    S    
C33   C34   S    
C42   H20   S    
C26   C37   S    
C16   H3    S    
C32   C37   S    
C41   N2    S    
C5    H27   S    
C26   C30   S    
Cu1   O1    S    
C40   C41   S    
C19   H56   S    
C3    O5    A    
C44   N3    S    
C39   H51   S    
C22   C27   S    
C12   C31   S    
C36   H46   S    
C8    C28   S    
C16   C32   S    
C42   C43   S    
C22   H10   S    
C20   H67   S    
C41   C50   S    
C46   N4    S    
C57   O17   D    
C55   H60   S    
C17   H4    S    
Cu4   O6    S    
C50   H54   S    
C24   C28   S    
Cu2   O4    S    
Cu4   O21   S    
C34   O22   A    
C25   H15   S    
C24   H11   S    
C15   C31   S    
C21   C35   S    
C49   O9    D    
C26   H17   S    
C59   H70   S    
C23   C35   S    
C33   C38   S    
C13   C17   S    
C10   C15   S    
C52   O13   D    
Cu1   O18   S    
C15   H2    S    
C10   C29   S    
C14   H72   S    
C59   N4    S    
C58   H66   S    
C9    H40   S    
C6    H28   S    
C60   O24   A    
C14   H1    S    
Cu3   O5    S    
C12   O19   A    
Cu1   Cu2   S    
Cu1   N2    S    
C18   C33   S    
C4    C30   S    
C37   H47   S    
C1    O1    A    
C25   C36   S    
Cu3   Cu4   S    
C24   H13   S    
C3    O6    A    
C7    C20   S    
C47   N3    S    
C39   H52   S    
C17   C32   S    
Cu2   O19   S    
C10   H41   S    
C2    C28   S    
C22   H9    S    
C12   O18   A    
C19   H6    S    
C21   H71   S    
Cu4   O8    S    
C23   O21   A    
Cu4   N3    S    
C22   C38   S    
