data_str_m9_o16_o23_f0_sra.sym.189
_audit_creation_date              2013-03-05T15:48:43-0500
_audit_creation_method            fapswitch 2.2
_symmetry_space_group_name_H-M    P1
_symmetry_Int_Tables_number       1
_space_group_crystal_system       triclinic
_cell_length_a                    22.286102
_cell_length_b                    7.115414
_cell_length_c                    19.373146
_cell_angle_alpha                 89.999914
_cell_angle_beta                  99.222122
_cell_angle_gamma                 89.999817
_cell_volume                      3032.38510442

loop_
_atom_site_label
_atom_site_type_symbol
_atom_site_description
_atom_site_fract_x
_atom_site_fract_y
_atom_site_fract_z
_atom_type_partial_charge
O1    O     O_R   0.448420 0.506120 0.415750 -0.586121
O2    O     O_R   0.551580 0.006120 0.584250 -0.586123
O3    O     O_R   0.436490 0.174470 0.555610 -0.568405
O4    O     O_R   0.563510 0.674470 0.444390 -0.568404
C1    C     C_R   0.421383 0.343716 0.575347 0.919373
C2    C     C_R   0.578617 0.843716 0.424653 0.919374
O5    O     O_R   0.441310 0.176330 0.414520 -0.587505
O6    O     O_R   0.558690 0.676330 0.585480 -0.587507
O7    O     O_R   0.556430 0.007110 0.442150 -0.563371
O8    O     O_R   0.443570 0.507110 0.557850 -0.563370
C3    C     C_R   0.427309 0.344929 0.388723 0.925441
C4    C     C_R   0.572691 0.844928 0.611277 0.925442
O9    O     O_3   0.537770 0.339560 0.509230 -0.266187
O10   O     O_3   0.462230 0.839560 0.490770 -0.266187
V1    V     V_3+5 0.492990 0.064280 0.498290 1.241869
V2    V     V_3+5 0.507010 0.564280 0.501710 1.241870
C5    C     C_R   0.870919 0.881478 0.696888 0.617068
C6    C     C_R   0.129081 0.381438 0.303109 0.617074
H1    H     H_    0.957012 0.882969 0.764127 0.176334
H2    H     H_    0.042989 0.382932 0.235870 0.176335
C7    C     C_R   0.884333 0.935245 0.822122 -0.341375
C8    C     C_R   0.115666 0.435240 0.177878 -0.341373
C9    C     C_R   0.589927 0.816579 0.739256 -0.163468
C10   C     C_R   0.410075 0.316615 0.260743 -0.163465
C11   C     C_R   0.627324 0.803984 0.803723 -0.091578
C12   C     C_R   0.372679 0.304037 0.196275 -0.091587
C13   C     C_R   0.689786 0.831335 0.809118 -0.057490
C14   C     C_R   0.310216 0.331375 0.190880 -0.057522
C15   C     C_R   0.716611 0.879860 0.750131 0.139897
C16   C     C_R   0.283389 0.379869 0.249868 0.139897
C17   C     C_R   0.678436 0.880676 0.683509 0.067689
C18   C     C_R   0.321563 0.380669 0.316491 0.067694
C19   C     C_R   0.780868 0.910045 0.754707 -0.154753
C20   C     C_R   0.219131 0.410040 0.245293 -0.154773
C21   C     C_R   0.806723 0.898462 0.691998 -0.165447
C22   C     C_R   0.193277 0.398433 0.308001 -0.165442
C23   C     C_R   0.768179 0.908172 0.626324 0.560352
C24   C     C_R   0.231820 0.408131 0.373675 0.560364
C25   C     C_R   0.704844 0.903309 0.623148 -0.348148
C26   C     C_R   0.295154 0.403278 0.376852 -0.348145
C27   C     C_R   0.820632 0.948365 0.819177 0.316325
C28   C     C_R   0.179367 0.448370 0.180825 0.316360
C29   C     C_R   0.908278 0.898440 0.761426 -0.285195
C30   C     C_R   0.091722 0.398413 0.238572 -0.285199
C31   C     C_R   0.614603 0.852162 0.678636 -0.150600
C32   C     C_R   0.385396 0.352168 0.321364 -0.150599
H3    H     H_    0.541568 0.792212 0.736265 0.142741
H4    H     H_    0.458434 0.292260 0.263734 0.142743
H5    H     H_    0.716557 0.803599 0.859500 0.167726
H6    H     H_    0.283446 0.303651 0.140498 0.167724
H7    H     H_    0.607925 0.768208 0.849798 0.142787
H8    H     H_    0.392079 0.268284 0.150199 0.142784
H9    H     H_    0.676280 0.910530 0.572429 0.122460
H10   H     H_    0.323719 0.410488 0.427571 0.122455
C33   C     C_3   0.812643 0.758332 0.260974 0.195017
C34   C     C_3   0.187358 0.258327 0.739027 0.195032
C35   C     C_3   0.790475 0.107414 0.256032 0.063879
C36   C     C_3   0.209522 0.607411 0.743966 0.063893
C37   C     C_3   0.735638 0.092760 0.302354 0.470699
C38   C     C_3   0.264359 0.592760 0.697643 0.470713
H11   H     H_    0.860839 0.776035 0.285432 0.127007
H12   H     H_    0.139162 0.276026 0.714569 0.127006
H13   H     H_    0.780884 0.221723 0.217410 0.202942
H14   H     H_    0.219113 0.721723 0.782586 0.202948
C39   C     C_1   0.625335 0.849444 0.380478 -0.165196
C40   C     C_1   0.374665 0.349445 0.619522 -0.165196
C41   C     C_3   0.794067 0.925672 0.210798 -0.163706
C42   C     C_3   0.205932 0.425671 0.789202 -0.163711
C43   C     C_3   0.771320 0.751385 0.320845 0.556328
C44   C     C_3   0.228680 0.251382 0.679155 0.556328
C45   C     C_3   0.713234 0.881404 0.298813 -0.235880
C46   C     C_3   0.286765 0.381405 0.701185 -0.235949
C47   C     C_3   0.685148 0.834302 0.221623 -0.649410
C48   C     C_3   0.314852 0.334308 0.778376 -0.649269
C49   C     C_3   0.728739 0.891321 0.169774 0.347994
C50   C     C_3   0.271261 0.391327 0.830225 0.347981
C51   C     C_1   0.664774 0.857730 0.343807 0.335419
C52   C     C_1   0.335225 0.357731 0.656192 0.335401
C53   C     C_1   0.839144 0.943087 0.161631 0.280108
C54   C     C_1   0.160856 0.443085 0.838369 0.280088
C55   C     C_1   0.876411 0.946699 0.122166 -0.212581
C56   C     C_1   0.123589 0.446698 0.877834 -0.212590
H15   H     H_    0.712245 0.025077 0.143377 0.132156
H16   H     H_    0.287753 0.525089 0.856619 0.132115
H17   H     H_    0.674833 0.681610 0.217271 0.268198
H18   H     H_    0.325169 0.181618 0.782729 0.268199
H19   H     H_    0.640913 0.907562 0.206311 0.222919
H20   H     H_    0.359087 0.407573 0.793687 0.222903
O11   O     O_R   0.056480 0.288780 0.942210 -0.582120
O12   O     O_R   0.943520 0.788780 0.057790 -0.582117
O13   O     O_R   0.058700 0.616820 0.085490 -0.581962
O14   O     O_R   0.941300 0.116820 0.914510 -0.581970
C57   C     C_R   0.072773 0.448186 0.111356 1.060511
C58   C     C_R   0.927227 0.948187 0.888644 1.060510
O15   O     O_R   0.063520 0.618570 0.944410 -0.580923
O16   O     O_R   0.936480 0.118570 0.055590 -0.580928
O17   O     O_R   0.948420 0.787670 0.915740 -0.593890
O18   O     O_R   0.051580 0.287670 0.084260 -0.593893
C59   C     C_R   0.078415 0.450915 0.924116 1.008629
C60   C     C_R   0.921585 0.950915 0.075884 1.008635
O19   O     O_3   0.962260 0.453430 0.990800 -0.277915
O20   O     O_3   0.037740 0.953430 0.009200 -0.277912
V3    V     V_3+5 0.007000 0.728750 0.001710 1.250771
V4    V     V_3+5 0.993000 0.228750 0.998290 1.250763
O21   O     O_3   0.847864 0.157802 0.293188 -0.619137
H21   H     H_    0.864948 0.053423 0.323536 0.361325
O22   O     O_3   0.152132 0.657794 0.706810 -0.619140
H22   H     H_    0.135050 0.553413 0.676464 0.361325
N1    N     N_R   0.752900 0.145924 0.378101 0.305744
O23   O     O_R   0.710798 0.171397 0.416676 -0.342158
O24   O     O_R   0.808841 0.153413 0.410323 -0.229371
N2    N     N_R   0.247095 0.645919 0.621895 0.305750
O25   O     O_R   0.289197 0.671390 0.583319 -0.342149
O26   O     O_R   0.191155 0.653416 0.589675 -0.229365
N3    N     N_R   0.683512 0.214536 0.271305 0.229675
O27   O     O_R   0.682911 0.305112 0.212851 -0.475969
O28   O     O_R   0.634727 0.224760 0.300203 -0.359300
N4    N     N_R   0.316484 0.714540 0.728690 0.229668
O29   O     O_R   0.317086 0.805111 0.787145 -0.475964
O30   O     O_R   0.365267 0.724775 0.699789 -0.359297
O31   O     O_3   0.728673 0.754229 0.117460 -0.684575
H23   H     H_    0.687753 0.757533 0.088274 0.339358
O32   O     O_3   0.271330 0.254233 0.882540 -0.684599
H24   H     H_    0.312229 0.257649 0.911760 0.339365
O33   O     O_3   0.812937 0.589696 0.222662 -0.646044
H25   H     H_    0.770617 0.545644 0.209513 0.381385
O34   O     O_3   0.187067 0.089694 0.777342 -0.646045
H26   H     H_    0.229388 0.045645 0.790488 0.381396
N5    N     N_R   0.756615 0.558107 0.333921 0.241839
O35   O     O_R   0.803816 0.450015 0.344957 -0.301895
O36   O     O_R   0.711409 0.519226 0.366289 -0.331222
N6    N     N_R   0.243388 0.058107 0.666078 0.241842
O37   O     O_R   0.196189 0.950007 0.655052 -0.301916
O38   O     O_R   0.288582 0.019236 0.633694 -0.331209
O39   O     O_3   0.792890 0.931868 0.565801 -0.668906
H27   H     H_    0.760024 0.931756 0.524718 0.367164
O40   O     O_3   0.207108 0.431804 0.434198 -0.668905
H28   H     H_    0.239974 0.431695 0.475281 0.367159
O41   O     O_3   0.898956 0.838233 0.640509 -0.661930
H29   H     H_    0.874849 0.737259 0.613864 0.358689
O42   O     O_3   0.101044 0.338175 0.359486 -0.661931
H30   H     H_    0.125152 0.237193 0.386127 0.358685
N7    N     N_R   0.797544 0.023957 0.878541 0.219672
O43   O     O_R   0.814377 0.954193 0.940716 -0.435705
O44   O     O_R   0.760574 0.166723 0.870674 -0.381500
N8    N     N_R   0.202453 0.523985 0.121466 0.219672
O45   O     O_R   0.185627 0.454226 0.059292 -0.435721
O46   O     O_R   0.239403 0.666790 0.129332 -0.381493
O47   O     O_3   0.804644 0.816579 0.384136 -0.719494
H31   H     H_    0.843291 0.745296 0.395204 0.362951
O48   O     O_3   0.195353 0.316574 0.615865 -0.719486
H32   H     H_    0.156708 0.245281 0.604799 0.362950

loop_
_geom_bond_atom_site_label_1
_geom_bond_atom_site_label_2
_geom_bond_distance
_ccdc_geom_bond_type
C42   C54   1.496174 S    
C35   O21   1.409760 S    
C9    C31   1.397427 A    
C13   C15   1.414741 A    
C56   C59   1.451797 S    
O1    C3    1.316067 A    
O2    C4    1.316067 A    
C50   H16   1.114529 S    
C2    O7    1.328456 A    
N2    O26   1.302805 A    
O39   H27   0.991513 S    
C25   H9    1.082997 S    
C12   C14   1.392807 A    
O5    C3    1.317693 A    
C48   C50   1.558878 S    
O11   C59   1.322007 A    
C21   C23   1.418139 A    
C10   C12   1.388817 A    
C27   N7    1.437496 S    
C6    C30   1.391883 A    
N1    O24   1.302812 A    
O15   C59   1.315179 A    
C35   C37   1.631328 S    
C7    C58   1.479282 S    
C38   C46   1.582627 S    
C36   C38   1.631333 S    
N3    O27   1.301197 A    
C15   C19   1.436684 A    
C36   O22   1.409760 S    
C34   O34   1.411481 S    
O12   C60   1.322006 A    
C43   C45   1.592693 S    
C37   N3    1.496052 S    
N4    O29   1.301188 A    
C47   H19   1.112586 S    
C46   C52   1.502095 S    
C37   N1    1.504531 S    
C7    C29   1.391826 A    
C14   H6    1.077453 S    
C2    C39   1.450407 S    
C8    C30   1.391804 A    
C33   O33   1.411485 S    
O15   V3    1.970200 S    
N6    O37   1.292935 A    
N3    O28   1.302242 A    
C20   C28   1.436953 A    
O48   H32   0.992905 S    
C23   O39   1.383276 S    
C38   N4    1.496052 S    
C20   C22   1.427950 A    
O5    V1    1.999206 S    
O6    V2    1.999212 S    
C24   C26   1.403357 A    
C47   C49   1.558885 S    
O42   H30   0.991180 S    
C35   C41   1.571346 S    
O14   C58   1.318654 A    
N2    O25   1.302491 A    
H2    C30   1.084536 S    
H1    C29   1.084544 S    
C35   H13   1.102639 S    
N8    O46   1.301375 A    
C36   H14   1.102638 S    
C40   C52   1.216915 T    
C39   C51   1.216915 T    
C16   C20   1.436684 A    
C10   H4    1.083916 S    
O32   H24   0.993203 S    
C9    H3    1.083920 S    
C46   C48   1.562174 S    
C53   C55   1.215950 T    
C1    C40   1.450406 S    
C58   O17   1.312877 A    
C34   C42   1.550829 S    
O4    V2    1.970166 S    
C5    C29   1.391888 A    
C38   N2    1.504531 S    
C12   H8    1.082664 S    
O13   C57   1.318656 A    
O6    C4    1.317689 A    
C44   N6    1.445512 S    
C41   C53   1.496171 S    
C5    O41   1.377265 S    
O1    V2    1.988096 S    
C33   C43   1.593197 S    
C48   H18   1.110922 S    
O20   V4    2.192948 S    
O2    V1    1.988094 S    
C47   H17   1.110921 S    
O31   H23   0.993285 S    
O17   V3    1.989250 S    
C7    C27   1.414719 A    
C54   C56   1.215948 T    
O19   V4    1.736181 S    
C34   C44   1.593200 S    
O9    V1    2.193107 S    
O11   V4    1.963900 S    
O33   H25   0.987762 S    
C8    C57   1.479283 S    
C34   H12   1.109469 S    
O4    C2    1.323272 A    
C41   C49   1.562114 S    
O22   H22   0.985116 S    
O34   H26   0.987761 S    
C28   N8    1.437457 S    
C45   C51   1.502096 S    
O3    V1    1.970163 S    
C45   C47   1.562171 S    
N8    O45   1.301174 A    
O21   H21   0.985125 S    
C36   C42   1.571345 S    
N7    O44   1.301435 A    
C49   O31   1.406498 S    
C50   O32   1.406504 S    
C18   C32   1.425054 A    
C6    O42   1.377244 S    
C44   O48   1.406537 S    
O13   V3    1.999204 S    
C4    C31   1.478965 S    
O3    C1    1.323272 A    
C33   C41   1.550833 S    
O41   H29   0.991173 S    
C55   C60   1.451798 S    
C42   C50   1.562107 S    
O40   H28   0.991519 S    
O16   C60   1.315178 A    
C26   H10   1.082994 S    
C11   H7    1.082671 S    
O19   V3    2.192954 S    
C19   C27   1.436960 A    
O16   V4    1.970203 S    
N5    O35   1.292948 A    
C43   O47   1.406537 S    
C1    O8    1.328458 A    
C15   C17   1.427493 A    
O8    V2    1.959630 S    
O47   H31   0.992898 S    
C16   C18   1.427490 A    
C49   H15   1.114523 S    
C8    C28   1.414704 A    
C43   N5    1.445508 S    
O18   V4    1.989254 S    
C33   H11   1.109468 S    
C22   C24   1.418136 A    
C19   C21   1.427969 A    
C24   O40   1.383266 S    
C14   C16   1.414731 A    
O10   V2    2.193100 S    
C18   C26   1.400112 A    
O7    V1    1.959632 S    
O20   V3    1.736185 S    
N4    O30   1.302237 A    
O12   V3    1.963900 S    
O14   V4    1.999208 S    
C13   H5    1.077462 S    
C23   C25   1.403361 A    
C9    C11   1.388820 A    
N6    O38   1.298893 A    
C17   C31   1.425057 A    
O9    V2    1.736626 S    
C17   C25   1.400125 A    
O10   V1    1.736630 S    
C3    C32   1.478964 S    
C44   C46   1.592694 S    
C5    C21   1.423715 A    
C48   H20   1.112587 S    
N1    O23   1.302499 A    
C6    C22   1.423710 A    
C57   O18   1.312876 A    
N7    O43   1.301219 A    
C37   C45   1.582630 S    
C10   C32   1.397420 A    
N5    O36   1.298939 A    
C11   C13   1.392807 A    
