data_str_m9_o17_o17_f0_sra.sym.15
_audit_creation_date              2012-12-11T15:17:34-0500
_audit_creation_method            fapswitch 2.2
_symmetry_space_group_name_H-M    P1
_symmetry_Int_Tables_number       1
_space_group_crystal_system       triclinic
_cell_length_a                    7.045773
_cell_length_b                    20.172787
_cell_length_c                    22.151018
_cell_angle_alpha                 90.00008
_cell_angle_beta                  89.996115
_cell_angle_gamma                 90.002341
_cell_volume                      3148.38792864

loop_
_atom_site_label
_atom_site_type_symbol
_atom_type_description
_atom_site_fract_x
_atom_site_fract_y
_atom_site_fract_z
_atom_type_partial_charge
O1    O     O_R   0.620180 0.810610 0.187990 -0.542846
O2    O     O_R   0.379820 0.189390 0.812010 -0.542771
O3    O     O_R   0.379820 0.189390 0.687990 -0.542870
O4    O     O_R   0.620180 0.810610 0.312010 -0.542796
O5    O     O_R   0.120180 0.689390 0.312010 -0.542843
O6    O     O_R   0.879820 0.310610 0.687990 -0.542821
O7    O     O_R   0.879820 0.310610 0.812010 -0.542810
O8    O     O_R   0.120180 0.689390 0.187990 -0.542806
O9    O     O_R   0.290420 0.818570 0.311590 -0.542802
O10   O     O_R   0.709580 0.181430 0.688410 -0.542749
O11   O     O_R   0.709580 0.181430 0.811590 -0.542828
O12   O     O_R   0.290420 0.818570 0.188410 -0.542776
O13   O     O_R   0.790420 0.681430 0.188410 -0.542822
O14   O     O_R   0.209580 0.318570 0.811590 -0.542790
O15   O     O_R   0.209580 0.318570 0.688410 -0.542808
O16   O     O_R   0.790420 0.681430 0.311590 -0.542754
H1    H     H_    0.927486 0.570749 0.646701 0.117741
H2    H     H_    0.072458 0.429224 0.353289 0.117738
H3    H     H_    0.070906 0.429169 0.146736 0.117727
H4    H     H_    0.929046 0.570874 0.853244 0.117733
H5    H     H_    0.428882 0.929130 0.853241 0.117731
H6    H     H_    0.571108 0.070811 0.146727 0.117728
H7    H     H_    0.572553 0.070775 0.353282 0.117736
H8    H     H_    0.427349 0.929267 0.646691 0.117742
C1    C     C_R   0.458658 0.830321 0.334754 0.730174
C2    C     C_R   0.541353 0.169706 0.665230 0.730202
C3    C     C_R   0.541338 0.169677 0.834752 0.730196
C4    C     C_R   0.458653 0.830292 0.165229 0.730211
C5    C     C_R   0.958658 0.669699 0.165235 0.730180
C6    C     C_R   0.041346 0.330321 0.834754 0.730230
C7    C     C_R   0.041346 0.330305 0.665237 0.730155
C8    C     C_R   0.958649 0.669682 0.334757 0.730214
H9    H     H_    0.981207 0.456939 0.675320 0.111136
H10   H     H_    0.018753 0.543043 0.324670 0.111134
H11   H     H_    0.017907 0.543021 0.175333 0.111104
H12   H     H_    0.982179 0.457012 0.824643 0.111096
H13   H     H_    0.482020 0.042993 0.824642 0.111100
H14   H     H_    0.517986 0.956967 0.175325 0.111112
H15   H     H_    0.518871 0.956953 0.324666 0.111135
H16   H     H_    0.481172 0.043074 0.675312 0.111145
H17   H     H_    0.903490 0.655831 0.572241 0.115936
H18   H     H_    0.096481 0.344144 0.427751 0.115919
H19   H     H_    0.094893 0.344087 0.072285 0.115913
H20   H     H_    0.904915 0.655948 0.927703 0.115903
H21   H     H_    0.404832 0.844050 0.927698 0.115917
H22   H     H_    0.595122 0.155895 0.072276 0.115906
H23   H     H_    0.596504 0.155863 0.427742 0.115932
H24   H     H_    0.403328 0.844185 0.572232 0.115928
O17   O     O_3   0.453640 0.707610 0.250000 -0.369749
O18   O     O_3   0.546360 0.292390 0.750000 -0.369744
O19   O     O_3   0.953640 0.792390 0.250000 -0.369746
O20   O     O_3   0.046360 0.207610 0.750000 -0.369745
V1    V     V_3+5 0.178800 0.757860 0.250000 1.383884
V2    V     V_3+5 0.821200 0.242140 0.750000 1.383905
V3    V     V_3+5 0.678800 0.742140 0.250000 1.383889
V4    V     V_3+5 0.321200 0.257860 0.750000 1.383891
C9    C     C_R   0.047563 0.356946 0.551754 0.073437
C10   C     C_R   0.952341 0.643025 0.448241 0.073399
C11   C     C_R   0.952816 0.643079 0.051747 0.073381
C12   C     C_R   0.047241 0.356966 0.948238 0.073317
C13   C     C_R   0.547239 0.143031 0.948236 0.073351
C14   C     C_R   0.452710 0.856919 0.051741 0.073322
C15   C     C_R   0.452368 0.856976 0.448236 0.073437
C16   C     C_R   0.547658 0.143056 0.551745 0.073371
C17   C     C_R   0.030338 0.376455 0.613705 -0.062370
C18   C     C_R   0.969624 0.623524 0.386289 -0.062370
C19   C     C_R   0.969652 0.623549 0.113702 -0.062377
C20   C     C_R   0.030394 0.376486 0.886281 -0.062372
C21   C     C_R   0.530355 0.123514 0.886280 -0.062367
C22   C     C_R   0.469622 0.876443 0.113696 -0.062378
C23   C     C_R   0.469664 0.876477 0.386286 -0.062360
C24   C     C_R   0.530372 0.123553 0.613696 -0.062376
C25   C     C_R   0.996987 0.442946 0.628251 -0.255188
C26   C     C_R   0.002953 0.557032 0.371740 -0.255215
C27   C     C_R   0.002501 0.557034 0.128257 -0.255161
C28   C     C_R   0.997594 0.443006 0.871719 -0.255198
C29   C     C_R   0.497473 0.056997 0.871719 -0.255196
C30   C     C_R   0.502510 0.942958 0.128251 -0.255151
C31   C     C_R   0.503055 0.942966 0.371737 -0.255215
C32   C     C_R   0.497006 0.057063 0.628244 -0.255175
C33   C     C_R   0.983117 0.491582 0.583616 0.102071
C34   C     C_R   0.016788 0.508391 0.416373 0.102077
C35   C     C_R   0.016331 0.508397 0.083623 0.102092
C36   C     C_R   0.983778 0.491651 0.916352 0.102106
C37   C     C_R   0.483639 0.008352 0.916350 0.102102
C38   C     C_R   0.516323 0.991596 0.083617 0.102081
C39   C     C_R   0.516909 0.991607 0.416369 0.102075
C40   C     C_R   0.483158 0.008424 0.583609 0.102061
C41   C     C_R   0.005809 0.474733 0.522483 0.040728
C42   C     C_R   0.994076 0.525237 0.477506 0.040722
C43   C     C_R   0.994189 0.525277 0.022476 0.040719
C44   C     C_R   0.005943 0.474775 0.977498 0.040726
C45   C     C_R   0.505853 0.025225 0.977496 0.040731
C46   C     C_R   0.494090 0.974722 0.022473 0.040722
C47   C     C_R   0.494177 0.974763 0.477502 0.040729
C48   C     C_R   0.505919 0.025268 0.522478 0.040728
C49   C     C_R   0.040007 0.407697 0.506186 0.052366
C50   C     C_R   0.959882 0.592272 0.493805 0.052372
C51   C     C_R   0.960474 0.592339 0.006169 0.052372
C52   C     C_R   0.039606 0.407711 0.993810 0.052373
C53   C     C_R   0.539608 0.092284 0.993807 0.052363
C54   C     C_R   0.460337 0.907662 0.006166 0.052385
C55   C     C_R   0.459914 0.907731 0.493800 0.052359
C56   C     C_R   0.540131 0.092303 0.506180 0.052381
C57   C     C_R   0.946825 0.557259 0.599725 -0.168947
C58   C     C_R   0.053091 0.442713 0.400265 -0.168929
C59   C     C_R   0.052038 0.442687 0.099748 -0.168937
C60   C     C_R   0.947988 0.557359 0.900230 -0.168939
C61   C     C_R   0.447829 0.942644 0.900228 -0.168935
C62   C     C_R   0.552144 0.057300 0.099740 -0.168930
C63   C     C_R   0.553205 0.057286 0.400260 -0.168927
C64   C     C_R   0.446774 0.942752 0.599717 -0.168940
C65   C     C_R   0.934375 0.606580 0.555924 -0.199445
C66   C     C_R   0.065543 0.393390 0.444067 -0.199469
C67   C     C_R   0.064500 0.393366 0.055947 -0.199458
C68   C     C_R   0.935475 0.606678 0.944035 -0.199463
C69   C     C_R   0.435341 0.893323 0.944031 -0.199467
C70   C     C_R   0.564616 0.106622 0.055941 -0.199471
C71   C     C_R   0.565637 0.106611 0.444060 -0.199465
C72   C     C_R   0.434313 0.893429 0.555917 -0.199462
C73   C     C_3   0.074388 0.285251 0.529829 -0.405686
C74   C     C_3   0.063409 0.225606 0.572640 -0.721901
H25   H     H_    0.170493 0.226852 0.608266 0.234432
H26   H     H_    0.924260 0.220371 0.594093 0.230739
H27   H     H_    0.088685 0.179641 0.546219 0.213543
H28   H     H_    0.966629 0.275899 0.494550 0.181139
H29   H     H_    0.213030 0.283205 0.506864 0.188683
C75   C     C_3   0.925622 0.714723 0.470173 -0.405828
C76   C     C_3   0.936585 0.774355 0.427348 -0.721937
H30   H     H_    0.075638 0.779508 0.405816 0.230835
H31   H     H_    0.829283 0.773142 0.391784 0.234500
H32   H     H_    0.911624 0.820337 0.453774 0.213531
H33   H     H_    0.787024 0.716808 0.493173 0.188668
H34   H     H_    0.033500 0.724055 0.505422 0.181163
C77   C     C_3   0.926131 0.714781 0.029830 -0.405659
C78   C     C_3   0.936918 0.774418 0.072655 -0.721745
H35   H     H_    0.829685 0.773166 0.108242 0.234378
H36   H     H_    0.075992 0.779654 0.094151 0.230761
H37   H     H_    0.911738 0.820387 0.046234 0.213508
H38   H     H_    0.034031 0.724140 0.994599 0.181125
H39   H     H_    0.787603 0.716831 0.006805 0.188632
C79   C     C_3   0.073660 0.285259 0.970174 -0.405755
C80   C     C_3   0.063096 0.225626 0.927343 -0.721728
H40   H     H_    0.924142 0.220407 0.905765 0.230832
H41   H     H_    0.170560 0.226874 0.891823 0.234439
H42   H     H_    0.088084 0.179657 0.953782 0.213488
H43   H     H_    0.212046 0.283162 0.993292 0.188566
H44   H     H_    0.965455 0.275942 0.005325 0.181181
C81   C     C_3   0.573709 0.214736 0.970175 -0.405665
C82   C     C_3   0.563175 0.274384 0.927359 -0.721770
H45   H     H_    0.670345 0.273079 0.891754 0.234415
H46   H     H_    0.424082 0.279708 0.905890 0.230782
H47   H     H_    0.588659 0.320328 0.953787 0.213515
H48   H     H_    0.465537 0.224057 0.005336 0.181189
H49   H     H_    0.712111 0.216812 0.993279 0.188564
C83   C     C_3   0.426248 0.785210 0.029815 -0.405728
C84   C     C_3   0.436985 0.725588 0.072657 -0.721754
H50   H     H_    0.575892 0.720462 0.094280 0.230804
H51   H     H_    0.329427 0.726783 0.108149 0.234388
H52   H     H_    0.412297 0.679594 0.046224 0.213498
H53   H     H_    0.287813 0.783096 0.006734 0.188625
H54   H     H_    0.534327 0.775900 0.994629 0.181136
C85   C     C_3   0.425573 0.785281 0.470170 -0.405714
C86   C     C_3   0.436504 0.725632 0.427362 -0.721980
H55   H     H_    0.329567 0.726916 0.391693 0.234469
H56   H     H_    0.575727 0.720345 0.405967 0.230775
H57   H     H_    0.410930 0.679679 0.453773 0.213561
H58   H     H_    0.533403 0.775941 0.505433 0.181169
H59   H     H_    0.286947 0.783224 0.493150 0.188668
C87   C     C_3   0.574262 0.214759 0.529812 -0.405782
C88   C     C_3   0.563327 0.274386 0.572643 -0.721907
H60   H     H_    0.424385 0.279480 0.594255 0.230800
H61   H     H_    0.670822 0.273216 0.608150 0.234447
H62   H     H_    0.587970 0.320380 0.546206 0.213525
H63   H     H_    0.712810 0.216870 0.506790 0.188676
H64   H     H_    0.466329 0.224063 0.494579 0.181148

loop_
_geom_bond_atom_site_label_1
_geom_bond_atom_site_label_2
_ccdc_geom_bond_type
C80   H42   S    
O14   V4    S    
C88   H60   S    
C40   C48   A    
C10   C75   S    
C45   C46   A    
C14   C54   A    
C22   C30   A    
C11   C51   A    
C21   C29   A    
C47   C48   A    
H8    C64   S    
C60   C68   A    
C27   C35   A    
C75   C76   S    
C62   C70   A    
C23   C31   A    
O4    C1    A    
O9    C1    A    
C77   C78   S    
H24   C72   S    
C87   H64   S    
C15   C85   S    
C88   H61   S    
H11   C27   S    
O18   V2    S    
C58   C66   A    
C53   C70   A    
C57   C65   A    
C86   H55   S    
C38   C62   A    
C26   C34   A    
C35   C59   A    
C73   H29   S    
C37   C61   A    
C39   C63   A    
C87   C88   S    
H21   C69   S    
C80   H40   S    
C18   C26   A    
C17   C25   A    
C14   C22   A    
C16   C56   A    
C25   C33   A    
H12   C28   S    
H19   C67   S    
C5    C19   S    
C37   C45   A    
C10   C18   A    
C84   H50   S    
C55   C72   A    
C34   C58   A    
O20   V2    S    
H6    C62   S    
C82   H47   S    
C10   C50   A    
O1    C4    A    
H16   C32   S    
O2    C3    A    
C1    C23   S    
C15   C55   A    
C38   C46   A    
O12   V1    S    
C3    C21   S    
C76   H32   S    
C33   C41   A    
C30   C38   A    
H23   C71   S    
O6    C7    A    
C83   H54   S    
C84   H51   S    
O7    C6    A    
C16   C87   S    
C28   C36   A    
C52   C67   A    
O6    V2    S    
C78   H37   S    
C85   H59   S    
C31   C39   A    
H18   C66   S    
C87   H63   S    
C86   H57   S    
C77   H38   S    
C88   H62   S    
C33   C57   A    
C47   C55   A    
C61   C69   A    
C79   H44   S    
C78   H36   S    
C45   C53   A    
C51   C68   A    
C64   C72   A    
C7    C17   S    
C50   C65   A    
H14   C30   S    
O17   V3    S    
H13   C29   S    
O5    C8    A    
O18   V4    S    
C41   C49   A    
O19   V1    S    
H15   C31   S    
C12   C79   S    
C13   C53   A    
C81   H48   S    
H2    C58   S    
C75   H34   S    
O3    V4    S    
C11   C19   A    
O11   C3    A    
C9    C49   A    
O8    C5    A    
C2    C24   S    
O11   V2    S    
C59   C67   A    
C73   C74   S    
C15   C23   A    
C54   C69   A    
H10   C26   S    
C63   C71   A    
H9    C25   S    
O12   C4    A    
C83   H53   S    
C84   H52   S    
C48   C56   A    
O4    V3    S    
C82   H46   S    
H22   C70   S    
C19   C27   A    
O13   C5    A    
C74   H26   S    
C41   C42   A    
C43   C44   A    
H7    C63   S    
C44   C52   A    
C8    C18   S    
C76   H30   S    
C13   C21   A    
C80   H41   S    
C39   C47   A    
C83   C84   S    
C79   C80   S    
C79   H43   S    
O3    C2    A    
C4    C22   S    
H17   C65   S    
C78   H35   S    
C12   C52   A    
O8    V1    S    
H5    C61   S    
O15   C7    A    
H1    C57   S    
O16   C8    A    
C35   C43   A    
C34   C42   A    
C12   C20   A    
C43   C51   A    
O15   V4    S    
C56   C71   A    
C74   H27   S    
C86   H56   S    
C85   H58   S    
O5    V1    S    
O16   V3    S    
O14   C6    A    
C73   H28   S    
C32   C40   A    
O2    V4    S    
C75   H33   S    
C20   C28   A    
O10   C2    A    
C29   C37   A    
O17   V1    S    
C9    C17   A    
C11   C77   S    
C36   C60   A    
C14   C83   S    
O1    V3    S    
O19   V3    S    
C16   C24   A    
C81   H49   S    
O10   V2    S    
C85   C86   S    
C9    C73   S    
C40   C64   A    
C77   H39   S    
O9    V1    S    
H20   C68   S    
C24   C32   A    
C74   H25   S    
C82   H45   S    
C36   C44   A    
O7    V2    S    
C76   H31   S    
C49   C66   A    
C81   C82   S    
C13   C81   S    
C42   C50   A    
C6    C20   S    
O20   V4    S    
C46   C54   A    
H4    C60   S    
O13   V3    S    
H3    C59   S    
