data_str_m2_o1_o16_f0_pcu.sym.164
_audit_creation_date              2012-12-10T17:57:24-0500
_audit_creation_method            fapswitch 2.2
_symmetry_space_group_name_H-M    P1
_symmetry_Int_Tables_number       1
_space_group_crystal_system       triclinic
_cell_length_a                    9.615657
_cell_length_b                    10.866172
_cell_length_c                    13.326453
_cell_angle_alpha                 91.403164
_cell_angle_beta                  73.207385
_cell_angle_gamma                 89.891701
_cell_volume                      1332.58404929

loop_
_atom_site_label
_atom_site_type_symbol
_atom_type_description
_atom_site_fract_x
_atom_site_fract_y
_atom_site_fract_z
_atom_type_partial_charge
C1    C     C_R   0.499476 0.737363 0.500891 0.822626
C2    C     C_R   0.435921 0.572466 0.979282 -0.000062
C3    C     C_R   0.478396 0.575387 0.869062 0.040624
C4    C     C_R   0.545084 0.556055 0.029604 0.069781
C5    C     C_R   0.691944 0.551611 0.967992 0.046259
C6    C     C_R   0.728141 0.600682 0.866541 -0.111523
C7    C     C_R   0.615989 0.624428 0.820736 0.235057
C8    C     C_R   0.512842 0.539125 0.137565 -0.244293
C9    C     C_R   0.761263 0.477317 0.118056 -0.021613
C10   C     C_R   0.376199 0.547334 0.814263 -0.157412
C11   C     C_R   0.624206 0.933607 0.503752 -0.243340
C12   C     C_R   0.422226 0.513481 0.700051 0.809497
C13   C     C_R   0.623091 0.060557 0.514225 -0.054631
C14   C     C_R   0.494306 0.127923 0.519515 -0.117762
C15   C     C_R   0.362382 0.062878 0.533764 0.255040
C16   C     C_R   0.366199 0.935042 0.523869 -0.252281
C17   C     C_R   0.497153 0.870782 0.506471 -0.067618
C18   C     C_R   0.910204 0.597626 0.540169 -0.037197
C19   C     C_R   0.057421 0.597008 0.541566 -0.080773
C20   C     C_R   0.093019 0.406930 0.450514 0.378410
C21   C     C_R   0.944305 0.407069 0.452017 -0.031859
C22   C     C_R   0.497464 0.262521 0.507467 0.799222
C23   C     C_R   0.577700 0.497936 0.299345 0.790049
C24   C     C_R   0.796902 0.503777 0.011176 -0.166303
C25   C     C_R   0.620115 0.504249 0.183596 -0.113966
C26   C     C_R   0.228493 0.560283 0.869864 -0.219188
C27   C     C_R   0.187216 0.598062 0.975951 0.305938
C28   C     C_R   0.288114 0.591178 0.032564 -0.223642
Cu1   Cu    Cu3+1 0.359340 0.499980 0.500000 0.973365
Cu2   Cu    Cu3+1 0.640660 0.500020 0.500000 0.973483
H1    H     H_    0.265457 0.885907 0.533212 0.148996
H2    H     H_    0.845013 0.678532 0.567646 0.135876
H3    H     H_    0.099365 0.676118 0.573564 0.157438
H4    H     H_    0.904534 0.334153 0.411317 0.160380
H5    H     H_    0.905655 0.484749 0.961011 0.158356
H6    H     H_    0.403881 0.552769 0.187336 0.156685
H7    H     H_    0.146880 0.546556 0.830140 0.189686
H8    H     H_    0.250270 0.611528 0.115682 0.123557
H9    H     H_    0.724171 0.883366 0.497415 0.160368
N1    N     N_R   0.147940 0.499970 0.499970 -0.172826
N2    N     N_R   0.852060 0.500060 0.499990 -0.177029
O1    O     O_R   0.381250 0.680340 0.500010 -0.600582
O2    O     O_R   0.618820 0.680370 0.500010 -0.582987
O3    O     O_R   0.323240 0.499950 0.650980 -0.583354
O4    O     O_R   0.560810 0.499980 0.650980 -0.548456
O5    O     O_R   0.381180 0.319630 0.499990 -0.513165
O6    O     O_R   0.618750 0.319660 0.499990 -0.586557
O7    O     O_R   0.439190 0.500020 0.349020 -0.568225
O8    O     O_R   0.676760 0.500050 0.349020 -0.568957
C29   C     C_1   0.869804 0.419845 0.157176 0.234635
N3    N     N_1   0.957084 0.373501 0.188153 -0.331437
C30   C     C_1   0.752249 0.114649 0.530305 0.260454
N4    N     N_1   0.855813 0.155352 0.545132 -0.344520
N5    N     N_2   0.224721 0.123845 0.563079 -0.411474
H10   H     H_    0.144847 0.076326 0.541228 0.247592
C31   C     C_3   0.175586 0.164830 0.671870 -0.621255
H11   H     H_    0.155688 0.084279 0.723814 0.208068
H12   H     H_    0.072715 0.218063 0.686030 0.233823
H13   H     H_    0.257131 0.225497 0.691810 0.221402
N6    N     N_2   0.185066 0.310908 0.394055 -0.379481
H14   H     H_    0.142850 0.224719 0.413262 0.245586
C32   C     C_3   0.235689 0.324458 0.281470 -0.636625
H15   H     H_    0.180292 0.257506 0.241977 0.215744
H16   H     H_    0.354111 0.304916 0.253561 0.234570
H17   H     H_    0.214826 0.418661 0.258167 0.221104
C33   C     C_1   0.872213 0.645456 0.817352 0.219366
N7    N     N_1   0.985255 0.685181 0.776635 -0.349535
N8    N     N_2   0.048001 0.650518 0.024102 -0.438268
H18   H     H_    0.010240 0.634885 0.103326 0.254149
C34   C     C_3   0.037884 0.780003 0.004163 -0.662374
H19   H     H_    0.922600 0.810555 0.032929 0.232606
H20   H     H_    0.078766 0.797708 0.919056 0.253603
H21   H     H_    0.102635 0.834792 0.045858 0.213412
N9    N     N_2   0.631170 0.717390 0.743516 -0.409784
H22   H     H_    0.732420 0.755969 0.718761 0.243404
C35   C     C_3   0.520915 0.813904 0.768777 -0.684251
H23   H     H_    0.555981 0.891670 0.715167 0.226414
H24   H     H_    0.503988 0.849768 0.850330 0.225700
H25   H     H_    0.416931 0.779792 0.759007 0.232278

loop_
_geom_bond_atom_site_label_1
_geom_bond_atom_site_label_2
_ccdc_geom_bond_type
Cu1   O1    S    
Cu2   O4    S    
C35   H25   S    
C4    C8    A    
C9    C25   A    
C16   H1    S    
C26   C27   A    
Cu1   Cu2   S    
N9    C35   S    
C35   H24   S    
C3    C7    A    
C5    C6    A    
C20   N1    A    
C23   O8    A    
C15   C16   A    
C31   H11   S    
N6    C32   S    
C18   C19   A    
C8    H6    S    
C32   H16   S    
C27   N8    S    
C1    O2    A    
N8    H18   S    
Cu2   N2    S    
C34   H19   S    
C20   N6    S    
C10   C26   A    
C22   O6    A    
C13   C14   A    
C8    C25   A    
C7    N9    S    
N5    C31   S    
C24   H5    S    
N9    H22   S    
Cu1   O7    S    
C15   N5    S    
Cu2   O6    S    
C35   H23   S    
C19   H3    S    
C18   N2    A    
C12   O4    A    
C21   H4    S    
N6    H14   S    
C2    C4    A    
C32   H15   S    
C13   C30   S    
C28   H8    S    
C34   H21   S    
C29   N3    T    
C26   H7    S    
C11   H9    S    
C10   C12   S    
C21   N2    A    
C22   O5    A    
Cu2   O8    S    
Cu1   O3    S    
Cu2   O2    S    
C18   H2    S    
C30   N4    T    
N5    H10   S    
C11   C17   A    
C23   O7    A    
C32   H17   S    
C9    C29   S    
C4    C5    A    
C2    C28   A    
C9    C24   A    
C6    C7    A    
C1    C17   S    
C31   H13   S    
Cu1   O5    S    
C14   C22   S    
C2    C3    A    
C12   O3    A    
C3    C10   A    
C11   C13   A    
C16   C17   A    
C5    C24   A    
Cu1   N1    S    
C31   H12   S    
C33   N7    T    
C23   C25   S    
C19   N1    A    
C1    O1    A    
C6    C33   S    
C20   C21   A    
N8    C34   S    
C27   C28   A    
C14   C15   A    
C34   H20   S    
