data_str_m4_o22_o22_f0_acs.sym.33
_audit_creation_date              2012-12-11T15:06:58-0500
_audit_creation_method            fapswitch 2.2
_symmetry_space_group_name_H-M    P1
_symmetry_Int_Tables_number       1
_space_group_crystal_system       monoclinic
_cell_length_a                    19.75604
_cell_length_b                    11.390558
_cell_length_c                    18.693188
_cell_angle_alpha                 90.0
_cell_angle_beta                  89.681768
_cell_angle_gamma                 90.0
_cell_volume                      4206.50656964

loop_
_atom_site_label
_atom_site_type_symbol
_atom_type_description
_atom_site_fract_x
_atom_site_fract_y
_atom_site_fract_z
_atom_type_partial_charge
C1    C     C_R   0.763205 0.516159 0.637562 0.549461
C2    C     C_3   0.252419 0.051839 0.563373 0.081017
C3    C     C_R   0.739856 0.034022 0.151225 0.527162
C4    C     C_R   0.775021 0.133652 0.858794 0.550955
C5    C     C_R   0.224979 0.133652 0.141206 0.550955
C6    C     C_R   0.275429 0.635254 0.859644 0.551127
C7    C     C_R   0.724571 0.635254 0.140356 0.551127
C8    C     C_R   0.946666 0.355848 0.861193 0.532347
C9    C     C_R   0.053334 0.355848 0.138807 0.532347
C10   C     C_R   0.467509 0.853185 0.854249 0.521548
C11   C     C_R   0.532491 0.853185 0.145751 0.521548
C12   C     C_3   0.690128 0.133416 0.465285 -0.233254
C13   C     C_3   0.247581 0.551814 0.436636 0.081019
C14   C     C_3   0.309872 0.133416 0.534715 -0.233255
C15   C     C_3   0.190142 0.633430 0.465280 -0.233439
C16   C     C_3   0.809858 0.633430 0.534720 -0.233440
C17   C     C_3   0.695597 0.148199 0.545860 -0.239508
C18   C     C_3   0.304403 0.148199 0.454140 -0.239508
C19   C     C_3   0.195604 0.648218 0.545856 -0.239352
C20   C     C_3   0.804395 0.648218 0.454144 -0.239352
C21   C     C_3   0.754461 0.938656 0.483620 -0.247779
C22   C     C_3   0.245538 0.938656 0.516380 -0.247778
C23   C     C_3   0.254435 0.438636 0.483637 -0.247699
C24   C     C_3   0.752419 0.551814 0.563363 0.081019
C25   C     C_3   0.745565 0.438636 0.516363 -0.247699
C26   C     C_3   0.629946 0.042433 0.835513 -0.285711
C27   C     C_3   0.370054 0.042433 0.164487 -0.285713
C28   C     C_3   0.139518 0.494245 0.837387 -0.312484
C29   C     C_3   0.860482 0.494245 0.162613 -0.312485
C30   C     C_3   0.857081 0.197138 0.328338 -0.315241
C31   C     C_3   0.142919 0.197138 0.671662 -0.315241
C32   C     C_3   0.357159 0.696947 0.328372 -0.315824
C33   C     C_3   0.642841 0.696947 0.671628 -0.315825
C34   C     C_3   0.763247 0.096183 0.572290 0.046043
C35   C     C_3   0.236753 0.096183 0.427710 0.046043
C36   C     C_3   0.263242 0.596172 0.572298 0.046086
C37   C     C_3   0.736757 0.596172 0.427702 0.046086
C38   C     C_3   0.755312 0.964866 0.563756 -0.270444
C39   C     C_3   0.244688 0.964866 0.436244 -0.270444
C40   C     C_3   0.255290 0.464862 0.563771 -0.270484
C41   C     C_R   0.236795 0.516159 0.362438 0.549461
C42   C     C_3   0.744710 0.464862 0.436229 -0.270484
C43   C     C_3   0.825432 0.136751 0.524997 -0.187379
C44   C     C_3   0.174568 0.136751 0.475003 -0.187379
C45   C     C_3   0.325435 0.636714 0.525015 -0.187261
C46   C     C_3   0.674565 0.636714 0.474984 -0.187261
C47   C     C_3   0.001199 0.211686 0.459179 -0.243310
C48   C     C_3   0.998801 0.211686 0.540821 -0.243310
C49   C     C_3   0.501198 0.711684 0.459180 -0.243346
C50   C     C_3   0.498802 0.711684 0.540820 -0.243346
C51   C     C_3   0.064472 0.410408 0.472815 -0.206371
C52   C     C_R   0.263202 0.016175 0.637568 0.548824
C53   C     C_3   0.935528 0.410408 0.527184 -0.206371
C54   C     C_3   0.564476 0.910397 0.472819 -0.205798
C55   C     C_3   0.435524 0.910397 0.527181 -0.205798
C56   C     C_3   0.943580 0.402655 0.445783 -0.272840
C57   C     C_3   0.056420 0.402655 0.554217 -0.272840
C58   C     C_3   0.443584 0.902659 0.445781 -0.273048
C59   C     C_3   0.556416 0.902659 0.554219 -0.273048
C60   C     C_3   0.009967 0.338397 0.430765 0.069135
C61   C     C_3   0.990033 0.338397 0.569235 0.069135
C62   C     C_3   0.509969 0.838393 0.430766 0.070578
C63   C     C_R   0.736797 0.016175 0.362432 0.548824
C64   C     C_3   0.490030 0.838393 0.569234 0.070578
C65   C     C_3   0.814871 0.011510 0.044169 -0.239833
C66   C     C_3   0.185128 0.011510 0.955831 -0.239833
C67   C     C_3   0.317692 0.520864 0.046685 -0.239462
C68   C     C_3   0.682308 0.520864 0.953315 -0.239462
C69   C     C_R   0.776588 0.126542 0.647478 0.536880
C70   C     C_R   0.223412 0.126542 0.352522 0.536880
C71   C     C_R   0.276584 0.626534 0.647482 0.534675
C72   C     C_R   0.723416 0.626534 0.352518 0.534675
C73   C     C_3   0.819474 0.022526 0.964104 -0.256688
C74   C     C_3   0.816449 0.112094 0.443906 0.020949
C75   C     C_3   0.180526 0.022526 0.035896 -0.256688
C76   C     C_3   0.323743 0.537669 0.967107 -0.256172
C77   C     C_3   0.676257 0.537669 0.032893 -0.256172
C78   C     C_3   0.684507 0.035906 0.031206 -0.190857
C79   C     C_3   0.315493 0.035906 0.968794 -0.190857
C80   C     C_3   0.187598 0.531145 0.033107 -0.191483
C81   C     C_3   0.812402 0.531145 0.966893 -0.191483
C82   C     C_3   0.759506 0.201458 0.061668 -0.276465
C83   C     C_3   0.240494 0.201458 0.938332 -0.276465
C84   C     C_3   0.255529 0.705574 0.062824 -0.274850
C85   C     C_3   0.183551 0.112094 0.556094 0.020949
C86   C     C_3   0.744471 0.705574 0.937176 -0.274850
C87   C     C_3   0.749303 0.070260 0.074421 0.043131
C88   C     C_3   0.250697 0.070260 0.925579 0.043131
C89   C     C_3   0.250307 0.573813 0.076223 0.045352
C90   C     C_3   0.749693 0.573813 0.923777 0.045352
C91   C     C_3   0.761754 0.103634 0.935315 0.089292
C92   C     C_3   0.238246 0.103634 0.064685 0.089292
C93   C     C_3   0.262205 0.606493 0.936862 0.083044
C94   C     C_3   0.737795 0.606493 0.063138 0.083044
C95   C     C_3   0.696427 0.033896 0.948870 0.002426
C96   C     C_3   0.316465 0.612016 0.443933 0.020971
C97   C     C_3   0.303573 0.033896 0.051130 0.002426
C98   C     C_3   0.202422 0.523131 0.951020 0.001333
C99   C     C_3   0.797578 0.523130 0.048980 0.001333
C100  C     C_3   0.758120 0.220470 0.979295 -0.221838
C101  C     C_3   0.241880 0.220470 0.020705 -0.221838
C102  C     C_3   0.249913 0.723180 0.980508 -0.225977
C103  C     C_3   0.750087 0.723179 0.019492 -0.225976
C104  C     C_3   0.009627 0.476595 0.038893 -0.230793
C105  C     C_3   0.990373 0.476595 0.961107 -0.230793
C106  C     C_3   0.509872 0.976614 0.038796 -0.228022
C107  C     C_3   0.683535 0.612016 0.556067 0.020971
C108  C     C_3   0.490128 0.976614 0.961204 -0.228022
C109  C     C_3   0.074034 0.294287 0.008600 -0.268596
C110  C     C_3   0.925965 0.294288 0.991400 -0.268596
C111  C     C_3   0.563639 0.775759 0.025815 -0.214126
C112  C     C_3   0.436361 0.775759 0.974185 -0.214126
C113  C     C_3   0.960983 0.274904 0.063330 -0.216296
C114  C     C_3   0.039017 0.274903 0.936670 -0.216296
C115  C     C_3   0.442001 0.796019 0.055780 -0.269221
C116  C     C_3   0.557999 0.796019 0.944220 -0.269222
C117  C     C_R   0.969605 0.343056 0.645432 0.533030
C118  C     C_3   0.747581 0.051839 0.436627 0.081017
C119  C     C_R   0.030395 0.343056 0.354567 0.533031
C120  C     C_R   0.469601 0.843056 0.645429 0.528290
C121  C     C_R   0.530399 0.843056 0.354571 0.528290
C122  C     C_3   0.025538 0.350593 0.064667 0.061273
C123  C     C_3   0.974462 0.350592 0.935333 0.061272
C124  C     C_3   0.511669 0.850669 0.069180 0.060926
C125  C     C_3   0.488330 0.850669 0.930820 0.060926
C126  C     C_R   0.759364 0.536544 0.847432 0.523537
C127  C     C_R   0.240636 0.536544 0.152568 0.523537
C128  C     C_R   0.260144 0.034022 0.848775 0.527162
Cr1   Cr    Cr6+3 0.885690 0.492860 0.745310 0.979129
Cr2   Cr    Cr6+3 0.111880 0.178590 0.246990 0.980613
Cr3   Cr    Cr6+3 0.388120 0.678590 0.753010 0.981857
Cr4   Cr    Cr6+3 0.611880 0.678590 0.246990 0.981857
Cr5   Cr    Cr6+3 0.114310 0.492860 0.254690 0.979129
Cr6   Cr    Cr6+3 0.385690 0.992860 0.745310 0.981626
Cr7   Cr    Cr6+3 0.614310 0.992860 0.254690 0.981626
Cr8   Cr    Cr6+3 0.729880 0.332270 0.748190 0.967854
Cr9   Cr    Cr6+3 0.270120 0.332270 0.251810 0.967854
Cr10  Cr    Cr6+3 0.229880 0.832270 0.748190 0.974210
Cr11  Cr    Cr6+3 0.770120 0.832270 0.251810 0.974210
Cr12  Cr    Cr6+3 0.888120 0.178590 0.753010 0.980612
H1    H     H_    0.640783 0.098245 0.452256 0.124058
H2    H     H_    0.195184 0.901583 0.526961 0.106562
H3    H     H_    0.563095 0.711738 0.914881 0.102964
H4    H     H_    0.905848 0.212290 0.970976 0.117863
H5    H     H_    0.094152 0.212289 0.029025 0.117864
H6    H     H_    0.451441 0.683885 0.964247 0.123065
H7    H     H_    0.548559 0.683885 0.035753 0.123065
H8    H     H_    0.652037 0.104110 0.572313 0.106091
H9    H     H_    0.347963 0.104110 0.427687 0.106091
H10   H     H_    0.152033 0.604155 0.572304 0.106694
H11   H     H_    0.847967 0.604155 0.427696 0.106694
H12   H     H_    0.718111 0.871336 0.470704 0.116817
H13   H     H_    0.304777 0.401521 0.473063 0.106407
H14   H     H_    0.281888 0.871336 0.529296 0.116817
H15   H     H_    0.218079 0.371335 0.470724 0.117026
H16   H     H_    0.781921 0.371335 0.529276 0.117026
H17   H     H_    0.707136 0.937857 0.589240 0.122871
H18   H     H_    0.292863 0.937857 0.410760 0.122871
H19   H     H_    0.207112 0.437880 0.589261 0.122818
H20   H     H_    0.792888 0.437880 0.410739 0.122818
H21   H     H_    0.857743 0.049620 0.429006 0.141104
H22   H     H_    0.142257 0.049620 0.570994 0.141104
H23   H     H_    0.357747 0.549500 0.429061 0.140929
H24   H     H_    0.695223 0.401521 0.526937 0.106407
H25   H     H_    0.642253 0.549500 0.570938 0.140929
H26   H     H_    0.841973 0.225428 0.536018 0.120718
H27   H     H_    0.158027 0.225428 0.463982 0.120718
H28   H     H_    0.341956 0.725412 0.536015 0.120789
H29   H     H_    0.658044 0.725412 0.463985 0.120789
H30   H     H_    0.718632 0.252969 0.088197 0.105871
H31   H     H_    0.281368 0.252969 0.911803 0.105871
H32   H     H_    0.214063 0.752043 0.091431 0.108492
H33   H     H_    0.785937 0.752043 0.908569 0.108492
H34   H     H_    0.622472 0.164129 0.921264 0.247766
H35   H     H_    0.797443 0.917020 0.590216 0.121441
H36   H     H_    0.620000 0.119313 0.800588 0.163554
H37   H     H_    0.586100 0.983021 0.831497 0.148858
H38   H     H_    0.674714 0.994143 0.814572 0.137844
H39   H     H_    0.377528 0.164129 0.078736 0.247766
H40   H     H_    0.379999 0.119312 0.199412 0.163555
H41   H     H_    0.413900 0.983023 0.168503 0.148859
H42   H     H_    0.325286 0.994141 0.185428 0.137843
H43   H     H_    0.126796 0.636312 0.908448 0.254279
H44   H     H_    0.086183 0.493033 0.819620 0.170209
H45   H     H_    0.158235 0.402509 0.839117 0.117833
H46   H     H_    0.202557 0.917020 0.409784 0.121442
H47   H     H_    0.168633 0.542189 0.796092 0.176798
H48   H     H_    0.873204 0.636311 0.091551 0.254279
H49   H     H_    0.831370 0.542195 0.203908 0.176800
H50   H     H_    0.913818 0.493029 0.180379 0.170208
H51   H     H_    0.841762 0.402511 0.160884 0.117834
H52   H     H_    0.969029 0.514286 0.070971 0.180544
H53   H     H_    0.030971 0.514285 0.929029 0.180545
H54   H     H_    0.476480 0.034960 0.069458 0.162156
H55   H     H_    0.523520 0.034960 0.930542 0.162156
H56   H     H_    0.598766 0.854767 0.925775 0.137352
H57   H     H_    0.297419 0.417011 0.590233 0.121495
H58   H     H_    0.401234 0.854768 0.074225 0.137352
H59   H     H_    0.073166 0.297067 0.891378 0.121713
H60   H     H_    0.926833 0.297070 0.108622 0.121714
H61   H     H_    0.779355 0.259159 0.389083 0.252757
H62   H     H_    0.873156 0.283805 0.307024 0.127035
H63   H     H_    0.822176 0.157980 0.288662 0.176729
H64   H     H_    0.902724 0.141060 0.333044 0.152712
H65   H     H_    0.220645 0.259159 0.610917 0.252757
H66   H     H_    0.126844 0.283805 0.692976 0.127035
H67   H     H_    0.177824 0.157980 0.711338 0.176729
H68   H     H_    0.702581 0.417011 0.409767 0.121495
H69   H     H_    0.097276 0.141060 0.666956 0.152712
H70   H     H_    0.279448 0.759127 0.389098 0.252653
H71   H     H_    0.373332 0.783570 0.307078 0.125179
H72   H     H_    0.322230 0.657899 0.288681 0.176210
H73   H     H_    0.402745 0.640729 0.333086 0.151730
H74   H     H_    0.720552 0.759127 0.610901 0.252653
H75   H     H_    0.626668 0.783570 0.692922 0.125179
H76   H     H_    0.677770 0.657899 0.711318 0.176210
H77   H     H_    0.597255 0.640729 0.666914 0.151730
H78   H     H_    0.040256 0.152299 0.439110 0.126809
H79   H     H_    0.959744 0.152299 0.560890 0.126809
H80   H     H_    0.540250 0.652290 0.439108 0.126882
H81   H     H_    0.359217 0.098245 0.547744 0.124058
H82   H     H_    0.459750 0.652290 0.560892 0.126882
H83   H     H_    0.953524 0.173925 0.439274 0.133577
H84   H     H_    0.046476 0.173925 0.560726 0.133577
H85   H     H_    0.453521 0.673929 0.439280 0.133580
H86   H     H_    0.546479 0.673929 0.560720 0.133580
H87   H     H_    0.615655 0.891906 0.454441 0.111450
H88   H     H_    0.384344 0.891906 0.545559 0.111450
H89   H     H_    0.115648 0.391927 0.454428 0.111303
H90   H     H_    0.884352 0.391927 0.545572 0.111303
H91   H     H_    0.599455 0.858467 0.577703 0.166840
H92   H     H_    0.140787 0.598295 0.452246 0.124225
H93   H     H_    0.400545 0.858467 0.422297 0.166840
H94   H     H_    0.099455 0.358443 0.577691 0.166915
H95   H     H_    0.900545 0.358443 0.422309 0.166915
H96   H     H_    0.944235 0.492183 0.422018 0.113314
H97   H     H_    0.055765 0.492183 0.577982 0.113315
H98   H     H_    0.444247 0.992192 0.422022 0.112658
H99   H     H_    0.555753 0.992192 0.577978 0.112658
H100  H     H_    0.945169 0.503637 0.540186 0.132362
H101  H     H_    0.054831 0.503637 0.459814 0.132362
H102  H     H_    0.445167 0.003623 0.540187 0.132254
H103  H     H_    0.859213 0.598295 0.547754 0.124225
H104  H     H_    0.554832 0.003622 0.459813 0.132254
H105  H     H_    0.818819 0.918861 0.058485 0.140353
H106  H     H_    0.181181 0.918861 0.941515 0.140353
H107  H     H_    0.322914 0.427048 0.058234 0.137412
H108  H     H_    0.677086 0.427048 0.941766 0.137413
H109  H     H_    0.689156 0.220518 0.439776 0.103850
H110  H     H_    0.310844 0.220517 0.560224 0.103850
H111  H     H_    0.189208 0.720528 0.439764 0.103954
H112  H     H_    0.810792 0.720528 0.560236 0.103955
H113  H     H_    0.860409 0.052747 0.068550 0.121948
H114  H     H_    0.867332 0.079186 0.542112 0.099040
H115  H     H_    0.139591 0.052747 0.931450 0.121948
H116  H     H_    0.361625 0.562176 0.073634 0.120276
H117  H     H_    0.638375 0.562176 0.926366 0.120276
H118  H     H_    0.871378 0.048605 0.949428 0.138887
H119  H     H_    0.128621 0.048605 0.050572 0.138887
H120  H     H_    0.371137 0.580156 0.954880 0.138873
H121  H     H_    0.628863 0.580156 0.045120 0.138873
H122  H     H_    0.815583 0.934231 0.939609 0.103525
H123  H     H_    0.184417 0.934231 0.060391 0.103525
H124  H     H_    0.328709 0.450267 0.940766 0.108134
H125  H     H_    0.132668 0.079186 0.457888 0.099040
H126  H     H_    0.671291 0.450268 0.059234 0.108134
H127  H     H_    0.663531 0.952759 0.050257 0.098481
H128  H     H_    0.336469 0.952759 0.949743 0.098481
H129  H     H_    0.169783 0.450608 0.058127 0.091092
H130  H     H_    0.830217 0.450608 0.941872 0.091093
H131  H     H_    0.703578 0.941154 0.932665 0.124176
H132  H     H_    0.296422 0.941153 0.067335 0.124176
H133  H     H_    0.217067 0.431281 0.939893 0.136378
H134  H     H_    0.782933 0.431281 0.060106 0.136379
H135  H     H_    0.808295 0.231533 0.084440 0.106554
H136  H     H_    0.367336 0.579168 0.542152 0.099021
H137  H     H_    0.191704 0.231533 0.915560 0.106553
H138  H     H_    0.304029 0.740406 0.083291 0.105401
H139  H     H_    0.695971 0.740406 0.916709 0.105401
H140  H     H_    0.797393 0.279801 0.961218 0.093645
H141  H     H_    0.202606 0.279801 0.038782 0.093645
H142  H     H_    0.280502 0.796362 0.961724 0.101706
H143  H     H_    0.719498 0.796362 0.038276 0.101707
H144  H     H_    0.709743 0.262442 0.967060 0.120297
H145  H     H_    0.290257 0.262442 0.032939 0.120297
H146  H     H_    0.197047 0.748682 0.970756 0.113427
H147  H     H_    0.632664 0.579168 0.457848 0.099021
H148  H     H_    0.802953 0.748681 0.029244 0.113426
H149  H     H_    0.647147 0.105934 0.043372 0.128106
H150  H     H_    0.352853 0.105934 0.956628 0.128106
H151  H     H_    0.147685 0.597616 0.041608 0.129397
H152  H     H_    0.852315 0.597616 0.958392 0.129397
H153  H     H_    0.689109 0.238522 0.562285 0.139328
H154  H     H_    0.310891 0.238522 0.437715 0.139328
H155  H     H_    0.189137 0.738548 0.562272 0.139672
H156  H     H_    0.810862 0.738548 0.437728 0.139672
H157  H     H_    0.051601 0.536954 0.046837 0.115650
H158  H     H_    0.804816 0.901583 0.473039 0.106562
H159  H     H_    0.948399 0.536955 0.953163 0.115650
H160  H     H_    0.558745 0.016802 0.043587 0.134093
H161  H     H_    0.441255 0.016802 0.956413 0.134093
H162  H     H_    0.615152 0.786728 0.044905 0.112679
H163  H     H_    0.384848 0.786728 0.955094 0.112679
H164  H     H_    0.114602 0.352758 0.993703 0.135169
H165  H     H_    0.885398 0.352759 0.006297 0.135170
H166  H     H_    0.973856 0.180200 0.069269 0.126181
H167  H     H_    0.026143 0.180199 0.930732 0.126181
H168  H     H_    0.436905 0.711738 0.085119 0.102965
N1    N     N_2   0.639142 0.080649 0.909233 -0.555064
N2    N     N_2   0.360858 0.080649 0.090767 -0.555064
N3    N     N_2   0.144141 0.551025 0.907030 -0.555833
N4    N     N_2   0.855859 0.551024 0.092969 -0.555833
N5    N     N_2   0.823010 0.213558 0.396882 -0.566079
N6    N     N_2   0.176990 0.213558 0.603118 -0.566079
N7    N     N_2   0.323077 0.713451 0.396900 -0.565616
N8    N     N_2   0.676923 0.713451 0.603100 -0.565616
O1    O     O_R   0.957210 0.449410 0.665480 -0.535483
O2    O     O_R   0.167480 0.095300 0.164000 -0.545299
O3    O     O_R   0.332520 0.595300 0.836000 -0.539089
O4    O     O_R   0.667480 0.595300 0.164000 -0.539089
O5    O     O_R   0.946380 0.253940 0.826940 -0.512361
O6    O     O_R   0.053620 0.253940 0.173060 -0.512360
O7    O     O_R   0.446380 0.753940 0.826940 -0.512746
O8    O     O_R   0.553620 0.753940 0.173060 -0.512745
O9    O     O_3   0.834560 0.334570 0.748840 -0.284394
O10   O     O_3   0.165440 0.334570 0.251160 -0.284394
O11   O     O_3   0.334560 0.834570 0.748840 -0.275057
O12   O     O_R   0.042790 0.449410 0.334520 -0.535482
O13   O     O_3   0.665440 0.834570 0.251160 -0.275058
O14   O     O_R   0.820730 0.541240 0.668250 -0.518532
O15   O     O_R   0.179270 0.541240 0.331750 -0.518533
O16   O     O_R   0.320730 0.041240 0.668250 -0.518721
O17   O     O_R   0.679270 0.041240 0.331750 -0.518721
O18   O     O_R   0.714240 0.455060 0.663710 -0.544105
O19   O     O_R   0.285760 0.455060 0.336290 -0.544105
O20   O     O_R   0.214240 0.955060 0.663710 -0.543478
O21   O     O_R   0.785760 0.955060 0.336290 -0.543477
O22   O     O_R   0.736780 0.204870 0.675910 -0.522612
O23   O     O_R   0.457210 0.949410 0.665480 -0.538240
O24   O     O_R   0.263220 0.204870 0.324090 -0.522612
O25   O     O_R   0.236780 0.704870 0.675910 -0.522829
O26   O     O_R   0.763220 0.704870 0.324090 -0.522829
O27   O     O_R   0.833070 0.087590 0.673490 -0.531119
O28   O     O_R   0.166930 0.087590 0.326510 -0.531119
O29   O     O_R   0.333070 0.587590 0.673490 -0.531048
O30   O     O_R   0.666930 0.587590 0.326510 -0.531048
O31   O     O_R   0.946890 0.246800 0.676300 -0.514235
O32   O     O_R   0.053110 0.246800 0.323700 -0.514236
O33   O     O_R   0.446890 0.746800 0.676300 -0.517238
O34   O     O_R   0.542790 0.949410 0.334520 -0.538239
O35   O     O_R   0.553110 0.746800 0.323700 -0.517238
O36   O     O_R   0.956650 0.457120 0.827980 -0.541839
O37   O     O_R   0.043350 0.457120 0.172020 -0.541839
O38   O     O_R   0.456650 0.957120 0.827980 -0.541613
O39   O     O_R   0.543350 0.957120 0.172020 -0.541613
O40   O     O_R   0.820220 0.548390 0.818890 -0.515499
O41   O     O_R   0.179780 0.548390 0.181110 -0.515499
O42   O     O_R   0.320220 0.048390 0.818890 -0.507664
O43   O     O_R   0.679780 0.048390 0.181110 -0.507664
O44   O     O_R   0.713680 0.462770 0.826210 -0.537237
O45   O     O_R   0.736260 0.212010 0.826560 -0.500802
O46   O     O_R   0.286320 0.462770 0.173790 -0.537237
O47   O     O_R   0.213680 0.962770 0.826210 -0.537306
O48   O     O_R   0.786320 0.962770 0.173790 -0.537306
O49   O     O_R   0.263740 0.212010 0.173440 -0.500802
O50   O     O_R   0.236260 0.712010 0.826560 -0.510180
O51   O     O_R   0.763740 0.712010 0.173440 -0.510180
O52   O     O_R   0.832520 0.095300 0.836000 -0.545300

loop_
_geom_bond_atom_site_label_1
_geom_bond_atom_site_label_2
_ccdc_geom_bond_type
C23   H15   S    
C15   H92   S    
C72   O30   A    
C115  H168  S    
H39   N2    S    
C120  O23   A    
C16   H112  S    
C76   H120  S    
C77   H121  S    
Cr1   O36   S    
H34   N1    S    
C33   N8    S    
C89   C127  S    
C40   H57   S    
C25   H24   S    
C82   C87   S    
C104  H52   S    
C19   H10   S    
C105  C123  S    
C10   O38   A    
C21   H12   S    
C37   C42   S    
C9    O37   A    
C113  C122  S    
C65   H113  S    
C2    C22   S    
C68   C90   S    
C56   H95   S    
C51   C57   S    
C91   C100  S    
C10   C125  S    
C36   C71   S    
C83   C88   S    
Cr7   O13   S    
C85   H22   S    
Cr8   O9    S    
Cr7   O39   S    
C53   H100  S    
C104  C105  S    
C65   C87   S    
Cr5   O12   S    
C30   H62   S    
C115  H58   S    
C75   H123  S    
C27   H40   S    
C86   C90   S    
C28   H47   S    
C85   N6    S    
C63   C118  S    
C127  O46   A    
C128  O42   A    
C81   C99   S    
C52   O20   A    
C12   H109  S    
C25   C42   S    
C121  O34   A    
H74   N8    S    
C110  C123  S    
C31   H69   S    
C16   C20   S    
C70   O28   A    
C100  H144  S    
C90   C126  S    
C27   N2    S    
C101  H145  S    
C97   H132  S    
C24   C107  S    
C10   O7    A    
C108  H55   S    
C96   N7    S    
C112  C125  S    
C2    C52   S    
C81   C90   S    
C23   H13   S    
Cr6   O11   S    
C29   H49   S    
C50   H86   S    
C17   C34   S    
C30   N5    S    
C115  C124  S    
Cr9   O10   S    
C66   H106  S    
C43   H26   S    
C68   C77   S    
Cr4   O8    S    
C47   H83   S    
C9    O6    A    
C50   H82   S    
C49   C62   S    
C110  H165  S    
C111  C124  S    
C79   C97   S    
C109  H5    S    
C38   H17   S    
C83   H137  S    
C126  O44   A    
C8    C123  S    
C57   C61   S    
C44   H125  S    
C33   H77   S    
C45   H136  S    
C64   C120  S    
C20   H11   S    
Cr3   O33   S    
Cr8   O44   S    
Cr4   O13   S    
C81   H130  S    
C28   N3    S    
Cr5   O37   S    
C2    C14   S    
C81   H152  S    
C54   H87   S    
Cr12  O52   S    
C106  C124  S    
Cr6   O23   S    
C57   H97   S    
Cr2   O6    S    
C48   H79   S    
C78   C87   S    
C107  H25   S    
C55   H102  S    
C41   O15   A    
C84   C102  S    
C40   H19   S    
C11   C124  S    
C58   H93   S    
C59   H91   S    
C33   H75   S    
C106  H54   S    
C17   H153  S    
C67   H116  S    
C68   H108  S    
C19   H155  S    
C114  H167  S    
Cr6   O42   S    
C66   C88   S    
C104  C122  S    
C119  O12   A    
C26   N1    S    
C77   C94   S    
C12   H1    S    
C13   C23   S    
C60   C119  S    
Cr11  O48   S    
C53   C61   S    
C21   C38   S    
C84   H138  S    
C72   O26   A    
C29   H51   S    
C29   N4    S    
C18   C35   S    
C53   H90   S    
C4    C91   S    
Cr8   O45   S    
C76   H124  S    
C109  H164  S    
C97   N2    S    
C55   C64   S    
C25   H16   S    
C99   N4    S    
C5    O49   A    
Cr1   O14   S    
C99   H134  S    
C7    O51   A    
C92   C97   S    
C79   H128  S    
C54   C59   S    
C74   C118  S    
C13   C96   S    
C17   H8    S    
Cr9   O19   S    
C32   H71   S    
C48   H84   S    
C83   H31   S    
C27   H41   S    
C26   H36   S    
Cr7   O17   S    
C22   H2    S    
C113  H166  S    
Cr7   O43   S    
C109  C114  S    
C63   O21   A    
C114  C123  S    
C31   N6    S    
C75   H119  S    
Cr4   O30   S    
C116  C125  S    
C39   H18   S    
C55   C58   S    
Cr11  O51   S    
C44   C85   S    
Cr11  O13   S    
C26   H37   S    
C83   C101  S    
C71   O25   A    
C42   H20   S    
C34   C43   S    
C84   H32   S    
Cr5   O15   S    
C127  O41   A    
Cr3   O11   S    
Cr4   O35   S    
C70   O24   A    
C101  H141  S    
C78   H127  S    
C102  H146  S    
C82   H135  S    
C28   H44   S    
C20   C37   S    
C6    O50   A    
C106  C108  S    
C22   C39   S    
C45   H28   S    
C79   H150  S    
C91   C95   S    
C116  H56   S    
C1    C24   S    
C49   C50   S    
C98   N3    S    
C56   H96   S    
C51   C60   S    
C49   H85   S    
C126  O40   A    
C58   C62   S    
Cr6   O16   S    
Cr3   O3    S    
C51   H89   S    
Cr12  O5    S    
Cr4   O4    S    
C14   H81   S    
C71   O29   A    
Cr3   O29   S    
C13   C41   S    
C57   H94   S    
C15   C19   S    
C30   H63   S    
C46   H147  S    
Cr10  O50   S    
C68   H117  S    
C53   C56   S    
C23   C40   S    
C2    C85   S    
C80   H129  S    
C63   O17   A    
C3    O43   A    
C80   C89   S    
C14   C18   S    
C95   N1    S    
Cr2   O10   S    
C39   H46   S    
C12   C17   S    
C41   O19   A    
C42   H68   S    
C111  C116  S    
C4    O45   A    
C108  H161  S    
C18   H154  S    
Cr11  O21   S    
C51   H101  S    
Cr8   O22   S    
Cr6   O38   S    
C79   C88   S    
C5    O2    A    
C119  O32   A    
C47   H78   S    
C7    O4    A    
C61   C117  S    
C73   H118  S    
C54   C62   S    
C56   C60   S    
C44   H27   S    
H48   N4    S    
C35   C39   S    
Cr2   O28   S    
C21   C118  S    
C111  H7    S    
C76   C93   S    
C78   C95   S    
C6    C93   S    
C9    C122  S    
C110  H4    S    
Cr10  O47   S    
C120  O33   A    
C92   C101  S    
C12   C118  S    
C1    O14   A    
C43   H114  S    
C94   C103  S    
Cr9   O49   S    
C20   H156  S    
C78   H149  S    
C11   O39   A    
C7    C94   S    
C65   H105  S    
C69   O22   A    
C80   C98   S    
Cr1   O9    S    
C93   C102  S    
C46   H29   S    
C95   H131  S    
C14   H110  S    
C111  H162  S    
Cr11  O26   S    
C86   H33   S    
C121  O35   A    
C8    O5    A    
Cr2   O32   S    
C38   H35   S    
C66   C75   S    
C113  H60   S    
C112  H6    S    
C4    O52   A    
C103  H148  S    
C37   C72   S    
Cr7   O34   S    
H43   N3    S    
C29   H50   S    
Cr12  O27   S    
C37   C46   S    
Cr3   O7    S    
Cr1   O1    S    
C6    O3    A    
C105  H53   S    
C82   H30   S    
C1    O18   A    
C50   C64   S    
C102  H142  S    
C74   N5    S    
C128  O47   A    
C77   H126  S    
C31   H67   S    
C59   C64   S    
C15   H111  S    
C117  O31   A    
C19   C36   S    
C32   H72   S    
C109  C122  S    
Cr9   O24   S    
C67   C89   S    
C112  H163  S    
C65   C73   S    
C11   O8    A    
C47   C60   S    
C107  N8    S    
Cr2   O2    S    
C35   C70   S    
C104  H157  S    
C52   O16   A    
C8    O36   A    
Cr12  O9    S    
Cr10  O25   S    
C3    O48   A    
C18   H9    S    
Cr12  O31   S    
H70   N7    S    
C43   C74   S    
C16   C24   S    
C100  H140  S    
C67   H107  S    
C86   C103  S    
C103  H143  S    
C33   H76   S    
C26   H38   S    
C49   H80   S    
C3    C87   S    
C21   H158  S    
C36   C40   S    
C24   C25   S    
C73   C91   S    
C31   H66   S    
C32   N7    S    
C54   H104  S    
C55   H88   S    
C59   H99   S    
C98   H133  S    
C116  H3    S    
H61   N5    S    
C47   C48   S    
C34   C69   S    
Cr10  O11   S    
C36   C45   S    
C86   H139  S    
Cr8   O18   S    
C35   C44   S    
C110  C113  S    
C75   C92   S    
C32   H73   S    
C114  H59   S    
C13   C15   S    
C46   C107  S    
C108  C125  S    
Cr5   O41   S    
C84   C89   S    
C73   H122  S    
Cr1   O40   S    
C22   H14   S    
Cr10  O20   S    
Cr9   O46   S    
C34   C38   S    
C82   C100  S    
C74   H21   S    
C80   H151  S    
Cr5   O10   S    
C30   H64   S    
C69   O27   A    
C96   H23   S    
C27   H42   S    
C88   C128  S    
C28   H45   S    
H65   N6    S    
C48   C61   S    
C117  O1    A    
C94   C99   S    
C62   C121  S    
C5    C92   S    
C16   H103  S    
C66   H115  S    
C67   C76   S    
C105  H159  S    
C58   H98   S    
C45   C96   S    
C106  H160  S    
C93   C98   S    
C112  C115  S    
