data_str_m2_o5_o29_f0_pcu.sym.58
_audit_creation_date              2013-03-05T16:36:14-0500
_audit_creation_method            fapswitch 2.2
_symmetry_space_group_name_H-M    P1
_symmetry_Int_Tables_number       1
_space_group_crystal_system       triclinic
_cell_length_a                    27.898885
_cell_length_b                    9.115683
_cell_length_c                    7.776458
_cell_angle_alpha                 90.260177
_cell_angle_beta                  89.993664
_cell_angle_gamma                 89.994332
_cell_volume                      1977.66810335

loop_
_atom_site_label
_atom_site_type_symbol
_atom_site_description
_atom_site_fract_x
_atom_site_fract_y
_atom_site_fract_z
_atom_type_partial_charge
O1    O     O_R   0.500000 0.288390 0.642760 -0.588611
O2    O     O_R   0.500000 0.711610 0.357240 -0.588584
O3    O     O_R   0.500000 0.711610 0.642760 -0.553090
O4    O     O_R   0.500000 0.288390 0.357240 -0.553363
C1    C     C_R   0.500912 0.219980 0.499792 0.902239
C2    C     C_R   0.500909 0.780019 0.500206 0.902773
O5    O     O_R   0.430260 0.500000 0.642770 -0.559975
O6    O     O_R   0.569740 0.500000 0.357230 -0.571049
O7    O     O_R   0.569740 0.500000 0.642770 -0.570223
O8    O     O_R   0.430260 0.500000 0.357230 -0.559956
C3    C     C_R   0.407442 0.500000 0.500008 0.882325
C4    C     C_R   0.592843 0.500102 0.499986 0.871770
Cu1   Cu    Cu3+1 0.500000 0.500000 0.669080 1.073802
Cu2   Cu    Cu3+1 0.500000 0.500000 0.330920 1.073664
C5    C     C_R   0.177332 0.393788 0.410013 0.552174
C6    C     C_R   0.823453 0.629286 0.526850 0.548031
C7    C     C_R   0.177327 0.606379 0.590031 0.552165
C8    C     C_R   0.823446 0.371389 0.472795 0.548047
O9    O     O_2   0.201382 0.295115 0.313049 -0.524113
O10   O     O_2   0.799195 0.756535 0.545002 -0.514640
O11   O     O_2   0.201371 0.705018 0.687023 -0.524111
O12   O     O_2   0.799178 0.244178 0.454591 -0.514670
N1    N     N_R   0.201798 0.500070 0.500031 -0.453509
N2    N     N_R   0.799101 0.500351 0.499831 -0.457077
C9    C     C_R   0.279192 0.629594 0.467446 -0.106452
C10   C     C_R   0.722012 0.437792 0.362782 -0.113285
C11   C     C_R   0.279190 0.370491 0.532626 -0.106448
C12   C     C_R   0.722005 0.563063 0.636868 -0.113401
C13   C     C_R   0.329278 0.632366 0.477457 -0.074627
C14   C     C_R   0.671906 0.430016 0.364976 -0.057430
C15   C     C_R   0.329276 0.367684 0.522606 -0.074639
C16   C     C_R   0.671890 0.570898 0.634713 -0.057712
C17   C     C_R   0.253665 0.500051 0.500037 0.275907
C18   C     C_R   0.747339 0.500375 0.499844 0.284072
C19   C     C_R   0.101666 0.500135 0.499980 -0.045705
C20   C     C_R   0.899138 0.500285 0.499853 -0.046001
C21   C     C_R   0.127082 0.387597 0.415963 -0.021590
C22   C     C_R   0.873725 0.630451 0.534103 -0.021549
C23   C     C_R   0.127078 0.612636 0.584029 -0.021589
C24   C     C_R   0.873718 0.370155 0.465575 -0.021573
C25   C     C_R   0.101860 0.272386 0.338122 -0.137278
C26   C     C_R   0.898965 0.759096 0.572964 -0.140752
C27   C     C_R   0.101854 0.727883 0.661840 -0.137277
C28   C     C_R   0.898953 0.241477 0.426727 -0.140763
C29   C     C_R   0.354715 0.500017 0.500027 -0.165222
C30   C     C_R   0.646006 0.500317 0.499927 -0.180560
H1    H     H_    0.259848 0.269931 0.558486 0.196091
H2    H     H_    0.741734 0.611713 0.742771 0.185763
H3    H     H_    0.259853 0.730167 0.441586 0.196086
H4    H     H_    0.741729 0.389255 0.256756 0.185006
H5    H     H_    0.120526 0.185004 0.271059 0.190895
H6    H     H_    0.880318 0.861378 0.597296 0.191098
H7    H     H_    0.120516 0.815237 0.728927 0.190892
H8    H     H_    0.880300 0.139223 0.402370 0.191114
C31   C     C_R   0.975112 0.372297 0.447901 0.043382
C32   C     C_R   0.025705 0.622590 0.567876 0.040294
C33   C     C_R   0.975116 0.628162 0.551887 0.043381
C34   C     C_R   0.025705 0.377793 0.431982 0.040293
C35   C     C_R   0.949949 0.500248 0.499880 0.072583
C36   C     C_R   0.050859 0.500172 0.499946 0.071659
C37   C     C_R   0.948716 0.242788 0.415454 -0.215564
C38   C     C_R   0.052113 0.734391 0.651330 -0.211299
C39   C     C_R   0.948727 0.757712 0.584292 -0.215568
C40   C     C_R   0.052117 0.265952 0.348566 -0.211304
H9    H     H_    0.965808 0.139297 0.386995 0.139608
H10   H     H_    0.035034 0.825666 0.715441 0.143805
H11   H     H_    0.965824 0.861179 0.612764 0.139609
H12   H     H_    0.035040 0.174702 0.284433 0.143804
C41   C     C_1   0.501531 0.065319 0.499735 -0.155122
C42   C     C_1   0.501530 0.934680 0.500264 -0.155129
N3    N     N_1   0.500000 0.500000 0.076820 -0.033985
N4    N     N_1   0.500000 0.500000 0.923180 -0.033875
C43   C     C_2   0.353937 0.224397 0.523347 0.878090
O13   O     O_2   0.340649 0.127430 0.620399 -0.551156
O14   O     O_R   0.390927 0.198535 0.405871 -0.751639
H13   H     H_    0.403377 0.094544 0.408707 0.331924
C44   C     C_2   0.648459 0.661868 0.769637 0.909298
O15   O     O_2   0.663238 0.658399 0.917742 -0.561069
O16   O     O_R   0.611140 0.757196 0.725996 -0.756320
H14   H     H_    0.598554 0.814359 0.828655 0.339456
C45   C     C_2   0.353940 0.775636 0.476709 0.878070
O17   O     O_2   0.340660 0.872608 0.379651 -0.551160
O18   O     O_R   0.390922 0.801477 0.594187 -0.751679
H15   H     H_    0.403374 0.905459 0.591345 0.331902
C46   C     C_2   0.648467 0.339782 0.229541 0.908739
O19   O     O_2   0.662736 0.345782 0.081004 -0.561767
O20   O     O_R   0.611627 0.242727 0.272976 -0.755894
H16   H     H_    0.598890 0.186562 0.169851 0.339543

loop_
_geom_bond_atom_site_label_1
_geom_bond_atom_site_label_2
_geom_bond_distance
_ccdc_geom_bond_type
O5    Cu1   1.956419 S    
O20   H16   1.013855 S    
C31   C35   1.418485 A    
Cu2   N3    1.975997 S    
C20   C35   1.417590 A    
C45   O17   1.222460 D    
C44   O15   1.223894 D    
C11   C17   1.403113 A    
C5    O9    1.349603 S    
C7    N1    1.374291 A    
O1    C1    1.272507 A    
C40   H12   1.078879 S    
C19   C21   1.405600 A    
C22   C26   1.399766 A    
C10   H4    1.083839 S    
C7    C23   1.403818 A    
C15   C43   1.476262 S    
C34   C36   1.418163 A    
C32   C33   1.417799 A    
C43   O13   1.222461 D    
C8    C24   1.403706 A    
C5    C21   1.403820 A    
O7    Cu1   1.956371 S    
C16   C44   1.485834 S    
C27   H7    1.083384 S    
N1    C17   1.447037 S    
C1    C41   1.409944 S    
C8    N2    1.372983 A    
O3    Cu1   1.940722 S    
C6    O10   1.349750 S    
O3    C2    1.274636 A    
C5    N1    1.374288 A    
C12   C18   1.398468 A    
C6    N2    1.372987 A    
Cu1   Cu2   2.629688 S    
C21   C25   1.399650 A    
C43   O14   1.397466 S    
O2    C2    1.272505 A    
C45   O18   1.397462 S    
C10   C18   1.398389 A    
C33   C39   1.413227 A    
C9    H3    1.083357 S    
C46   O20   1.398573 S    
C9    C13   1.399727 A    
C39   H11   1.079045 S    
C38   H10   1.078884 S    
C11   C15   1.399734 A    
C12   C16   1.400077 A    
C4    C30   1.483207 S    
O8    Cu2   1.956374 S    
C23   C27   1.399655 A    
C34   C40   1.413114 A    
C46   O19   1.223176 D    
N2    C18   1.444102 S    
C32   C36   1.418167 A    
C13   C29   1.411298 A    
C19   C36   1.417473 A    
C19   C23   1.405594 A    
O14   H13   1.009891 S    
C13   C45   1.476261 S    
C28   H8    1.083534 S    
O5    C3    1.279805 A    
O18   H15   1.009893 S    
C20   C24   1.406563 A    
O6    C4    1.283741 A    
C9    C17   1.403110 A    
C44   O16   1.398889 S    
C14   C46   1.485199 S    
C10   C14   1.399810 A    
C32   C38   1.413110 A    
C3    C29   1.471027 S    
O1    Cu1   1.938875 S    
C11   H1    1.083355 S    
C2    C42   1.409942 S    
C12   H2    1.083825 S    
O6    Cu2   1.956416 S    
C8    O12   1.349746 S    
C16   C30   1.424149 A    
C14   C30   1.423997 A    
O4    C1    1.274636 A    
Cu1   N4    1.975997 S    
C28   C37   1.391171 A    
C20   C22   1.406568 A    
N3    N4    1.194776 T    
C31   C37   1.413223 A    
O4    Cu2   1.940723 S    
C41   C42   1.190894 T    
O2    Cu2   1.938874 S    
O7    C4    1.283806 A    
C7    O11   1.349601 S    
C33   C35   1.418478 A    
O8    C3    1.279796 A    
O16   H14   1.014036 S    
C37   H9    1.079048 S    
C24   C28   1.399769 A    
C15   C29   1.411302 A    
C31   C34   1.417803 A    
C6    C22   1.403701 A    
C25   C40   1.391392 A    
C26   C39   1.391171 A    
C25   H5    1.083390 S    
C27   C38   1.391391 A    
C26   H6    1.083536 S    
