data_str_m2_o1_o17_f0_pcu.sym.10
_audit_creation_date              2012-10-26T20:42:49-0400
_audit_creation_method            fapswitch 2.2
_symmetry_space_group_name_H-M    P1
_symmetry_Int_Tables_number       1
_space_group_crystal_system       triclinic
_cell_length_a                    10.807022
_cell_length_b                    9.60686
_cell_length_c                    15.070095
_cell_angle_alpha                 89.997259
_cell_angle_beta                  92.02887
_cell_angle_gamma                 90.000067
_cell_volume                      1563.61975568

loop_
_atom_site_label
_atom_site_type_symbol
_atom_type_description
_atom_site_fract_x
_atom_site_fract_y
_atom_site_fract_z
_atom_type_partial_charge
C1    C     C_R   0.262401 0.500200 0.500905 0.606812
C2    C     C_R   0.128438 0.501169 0.501772 0.059589
C3    C     C_R   0.428453 0.074960 0.439038 0.222531
C4    C     C_R   0.567457 0.925431 0.563334 0.216675
C5    C     C_R   0.571548 0.074953 0.560961 0.222518
C6    C     C_R   0.432544 0.925439 0.436666 0.216670
C7    C     C_R   0.498462 0.499955 0.329520 0.592549
C8    C     C_R   0.501537 0.499950 0.670480 0.592567
C9    C     C_R   0.613968 0.494954 0.815654 0.003452
C10   C     C_R   0.386033 0.494992 0.184345 0.003447
C11   C     C_R   0.500952 0.500535 0.766834 -0.071974
C12   C     C_R   0.737599 0.500201 0.499093 0.606768
C13   C     C_R   0.499049 0.500550 0.233166 -0.071963
C14   C     C_R   0.386772 0.504577 0.808780 0.025768
C15   C     C_R   0.613231 0.504567 0.191223 0.025807
C16   C     C_R   0.384637 0.508555 0.902835 0.024763
C17   C     C_R   0.615374 0.508511 0.097167 0.024763
C18   C     C_R   0.499316 0.504767 0.952842 -0.014824
C19   C     C_R   0.500693 0.504769 0.047159 -0.014825
C20   C     C_R   0.613061 0.501660 0.908909 -0.027531
C21   C     C_R   0.386946 0.501710 0.091091 -0.027526
C22   C     C_R   0.272662 0.519228 0.949134 0.141181
C23   C     C_R   0.275537 0.512567 0.041196 -0.093656
C24   C     C_R   0.727355 0.519100 0.050866 0.141127
C25   C     C_2   0.732636 0.478058 0.768893 0.541531
C26   C     C_2   0.267360 0.478113 0.231105 0.541511
C27   C     C_2   0.271788 0.495157 0.752100 0.606808
C28   C     C_2   0.728209 0.495179 0.247912 0.606819
C29   C     C_3   0.121790 0.686802 0.896146 -0.286786
C30   C     C_3   0.878441 0.686487 0.103770 -0.286803
C31   C     C_3   0.222271 0.127813 0.372929 -0.282278
C32   C     C_3   0.590827 0.865784 0.720509 -0.258900
C33   C     C_3   0.777732 0.127794 0.627067 -0.282274
C34   C     C_R   0.724474 0.512449 0.958804 -0.093674
C35   C     C_3   0.409183 0.865825 0.279489 -0.258884
C36   C     C_R   0.063792 0.375250 0.502836 -0.166491
C37   C     C_R   0.935962 0.627846 0.499724 -0.088876
C38   C     C_R   0.936207 0.375250 0.497158 -0.166513
C39   C     C_R   0.064038 0.627846 0.500270 -0.088869
C40   C     C_R   0.871562 0.501169 0.498223 0.059554
Cu1   Cu    Cu3+1 0.500000 0.640660 0.500000 1.072149
Cu2   Cu    Cu3+1 0.500000 0.359340 0.500000 1.040001
H1    H     H_    0.187975 0.522752 0.073223 0.149658
H2    H     H_    0.873909 0.378707 0.289920 0.328242
H3    H     H_    0.085083 0.483013 0.930340 0.258881
H4    H     H_    0.108591 0.733612 0.962591 0.117027
H5    H     H_    0.033755 0.695618 0.856248 0.167033
H6    H     H_    0.194696 0.745322 0.861725 0.181672
H7    H     H_    0.914879 0.482595 0.069693 0.258940
H8    H     H_    0.891696 0.733192 0.037299 0.117001
H9    H     H_    0.966495 0.695197 0.143656 0.167031
H10   H     H_    0.805617 0.745177 0.138168 0.181729
H11   H     H_    0.393414 0.165718 0.315022 0.261686
H12   H     H_    0.812043 0.522573 0.926778 0.149709
H13   H     H_    0.194475 0.062748 0.314762 0.136209
H14   H     H_    0.174808 0.229283 0.364828 0.178659
H15   H     H_    0.191413 0.077126 0.434676 0.118354
H16   H     H_    0.728718 0.850316 0.625973 0.247781
H17   H     H_    0.487979 0.868754 0.720584 0.162225
H18   H     H_    0.623113 0.776149 0.761237 0.171729
H19   H     H_    0.629440 0.960401 0.752776 0.115216
H20   H     H_    0.606591 0.165707 0.684972 0.261690
H21   H     H_    0.805525 0.062726 0.685238 0.136210
H22   H     H_    0.825200 0.229260 0.635162 0.178653
H23   H     H_    0.111374 0.276617 0.507747 0.128765
H24   H     H_    0.808588 0.077107 0.565322 0.118354
H25   H     H_    0.271290 0.850318 0.374024 0.247792
H26   H     H_    0.370524 0.960416 0.247212 0.115214
H27   H     H_    0.376946 0.776169 0.238768 0.171735
H28   H     H_    0.512028 0.868859 0.279417 0.162225
H29   H     H_    0.887772 0.726708 0.499981 0.129476
H30   H     H_    0.888624 0.276619 0.492245 0.128779
H31   H     H_    0.112229 0.726707 0.500014 0.129470
H32   H     H_    0.893843 0.373884 0.760440 0.334431
H33   H     H_    0.106127 0.373983 0.239548 0.334446
H34   H     H_    0.126035 0.378699 0.710184 0.328243
N1    N     N_R   0.500000 0.852070 0.500000 -0.228647
N2    N     N_R   0.500000 0.147930 0.500000 -0.226768
N3    N     N_2   0.155664 0.541663 0.905029 -0.481470
N4    N     N_2   0.844373 0.541396 0.094970 -0.481481
N5    N     N_2   0.354691 0.150772 0.375760 -0.452816
N6    N     N_2   0.633935 0.850454 0.630941 -0.440531
N7    N     N_2   0.645313 0.150759 0.624235 -0.452811
N8    N     N_2   0.366073 0.850472 0.369056 -0.440540
O1    O     O_R   0.319640 0.618740 0.499990 -0.478910
O2    O     O_R   0.814579 0.371518 0.794422 -0.715249
O3    O     O_2   0.241280 0.557326 0.291105 -0.538802
O4    O     O_R   0.185385 0.371616 0.205559 -0.715249
O5    O     O_2   0.239982 0.593452 0.705071 -0.538391
O6    O     O_R   0.201518 0.373022 0.751934 -0.679579
O7    O     O_2   0.760050 0.593536 0.294871 -0.538372
O8    O     O_R   0.798424 0.373001 0.248176 -0.679598
O9    O     O_R   0.680360 0.381260 0.500010 -0.492000
O10   O     O_R   0.680360 0.618740 0.500010 -0.478926
O11   O     O_R   0.319640 0.381260 0.499990 -0.492019
O12   O     O_R   0.499970 0.618800 0.370260 -0.453258
O13   O     O_R   0.500030 0.381200 0.629740 -0.494776
O14   O     O_R   0.500030 0.618800 0.629740 -0.453248
O15   O     O_R   0.499970 0.381200 0.370260 -0.494751
O16   O     O_2   0.758738 0.557294 0.708905 -0.538789

loop_
_geom_bond_atom_site_label_1
_geom_bond_atom_site_label_2
_ccdc_geom_bond_type
C30   H9    S    
Cu2   O9    S    
Cu1   Cu2   S    
H20   N7    S    
C3    C6    A    
C9    C25   S    
C7    O12   A    
C7    O15   A    
C29   H5    S    
C19   C21   A    
C22   N3    S    
C18   C19   A    
C37   C40   A    
H16   N6    S    
Cu1   N1    S    
C5    N7    S    
C11   C14   A    
Cu1   O12   S    
C23   H1    S    
C27   O6    S    
H11   N5    S    
C1    C2    S    
C8    O14   A    
C25   O16   D    
C21   C23   A    
C24   N4    S    
C35   H28   S    
C26   O3    D    
C3    N5    S    
C14   C27   S    
H2    O8    S    
C1    O11   A    
C20   C34   A    
C10   C26   S    
C30   H8    S    
H25   N8    S    
C12   O10   A    
C2    C39   A    
C33   H24   S    
C10   C21   A    
C1    O1    A    
C38   H30   S    
C17   C24   A    
C6    N8    S    
C29   H6    S    
Cu2   O11   S    
C28   O8    S    
Cu2   O13   S    
C36   H23   S    
C6    N1    A    
C24   C34   A    
C12   C40   S    
C8    O13   A    
C33   N7    S    
C9    C20   A    
Cu1   O10   S    
C29   N3    S    
C8    C11   S    
C33   H21   S    
H3    N3    S    
H32   O2    S    
C9    C11   A    
C16   C18   A    
C34   H12   S    
C13   C15   A    
C31   H14   S    
C14   C16   A    
C12   O9    A    
C32   H18   S    
C32   N6    S    
C2    C36   A    
C15   C17   A    
C30   H10   S    
C16   C22   A    
C22   C23   A    
C4    C5    A    
C10   C13   A    
C32   H19   S    
C35   N8    S    
Cu2   N2    S    
Cu1   O1    S    
C31   N5    S    
H7    N4    S    
C29   H4    S    
C31   H15   S    
C37   H29   S    
C30   N4    S    
C4    N1    A    
C37   C39   A    
Cu2   O15   S    
C38   C40   A    
C15   C28   S    
C35   H26   S    
C33   H22   S    
C36   C38   A    
C25   O2    S    
C17   C19   A    
C27   O5    D    
C28   O7    D    
C18   C20   A    
C39   H31   S    
H33   O4    S    
C7    C13   S    
C4    N6    S    
C35   H27   S    
C26   O4    S    
Cu1   O14   S    
C32   H17   S    
C31   H13   S    
C5    N2    A    
C3    N2    A    
H34   O6    S    
