data_str_m9_o2_o18_f0_sra.sym.53
_audit_creation_date              2012-12-11T16:27:29-0500
_audit_creation_method            fapswitch 2.2
_symmetry_space_group_name_H-M    P1
_symmetry_Int_Tables_number       1
_space_group_crystal_system       triclinic
_cell_length_a                    21.647599
_cell_length_b                    6.919459
_cell_length_c                    14.83857
_cell_angle_alpha                 89.998958
_cell_angle_beta                  105.952096
_cell_angle_gamma                 89.999833
_cell_volume                      2137.07378159

loop_
_atom_site_label
_atom_site_type_symbol
_atom_type_description
_atom_site_fract_x
_atom_site_fract_y
_atom_site_fract_z
_atom_type_partial_charge
O1    O     O_R   0.835850 0.638310 0.002120 -0.540352
O2    O     O_R   0.164150 0.361690 0.997880 -0.540352
O3    O     O_R   0.664150 0.138310 0.997880 -0.540306
O4    O     O_R   0.335850 0.861690 0.002120 -0.540306
O5    O     O_R   0.717530 0.306070 0.861970 -0.549936
O6    O     O_R   0.282470 0.693930 0.138030 -0.549936
O7    O     O_R   0.782470 0.806070 0.138030 -0.549920
O8    O     O_R   0.217530 0.193930 0.861970 -0.549920
C1    C     C_R   0.705187 0.477403 0.824677 0.694076
C2    C     C_R   0.294813 0.522597 0.175323 0.694076
C3    C     C_R   0.794810 0.977397 0.175324 0.694010
C4    C     C_R   0.205190 0.022603 0.824676 0.694010
O9    O     O_R   0.838690 0.308440 0.993250 -0.533448
O10   O     O_R   0.161310 0.691560 0.006750 -0.533448
O11   O     O_R   0.661310 0.808440 0.006750 -0.533428
O12   O     O_R   0.338690 0.191560 0.993250 -0.533428
O13   O     O_R   0.786170 0.140510 0.130090 -0.531818
O14   O     O_R   0.213830 0.859490 0.869910 -0.531818
O15   O     O_R   0.713830 0.640510 0.869910 -0.531844
O16   O     O_R   0.286170 0.359490 0.130090 -0.531845
C5    C     C_R   0.865388 0.477341 0.998635 0.696507
C6    C     C_R   0.134612 0.522659 0.001365 0.696507
C7    C     C_R   0.634612 0.977340 0.001368 0.696508
C8    C     C_R   0.365388 0.022659 0.998632 0.696508
O17   O     O_3   0.732630 0.472520 0.044740 -0.368881
O18   O     O_3   0.267370 0.527480 0.955260 -0.368881
O19   O     O_3   0.767370 0.972520 0.955260 -0.368932
O20   O     O_3   0.232630 0.027480 0.044740 -0.368932
V1    V     V_3+5 0.753220 0.196740 0.991700 1.469746
V2    V     V_3+5 0.246780 0.803260 0.008300 1.469746
V3    V     V_3+5 0.746780 0.696740 0.008300 1.469771
V4    V     V_3+5 0.253220 0.303260 0.991700 1.469771
H1    H     H_    0.612271 0.839116 0.315073 0.103308
H2    H     H_    0.387729 0.160884 0.684926 0.103308
H3    H     H_    0.887765 0.338061 0.685052 0.103436
H4    H     H_    0.112234 0.661939 0.314948 0.103436
C9    C     C_R   0.535092 0.073638 0.832815 -0.073996
C10   C     C_R   0.464908 0.926361 0.167185 -0.073996
C11   C     C_R   0.964888 0.574240 0.167115 -0.074030
C12   C     C_R   0.035112 0.425761 0.832885 -0.074030
C13   C     C_R   0.488227 0.117653 0.750174 -0.001820
C14   C     C_R   0.511773 0.882347 0.249826 -0.001820
C15   C     C_R   0.011743 0.618524 0.249722 -0.001884
C16   C     C_R   0.988256 0.381476 0.750278 -0.001885
C17   C     C_R   0.424002 0.128289 0.749472 -0.050366
C18   C     C_R   0.575998 0.871711 0.250528 -0.050367
C19   C     C_R   0.075968 0.629140 0.250425 -0.050469
C20   C     C_R   0.924031 0.370860 0.749575 -0.050469
C21   C     C_R   0.406130 0.095412 0.831456 -0.117750
C22   C     C_R   0.593870 0.904587 0.168544 -0.117750
C23   C     C_R   0.093851 0.595960 0.168475 -0.117952
C24   C     C_R   0.906149 0.404040 0.831525 -0.117952
C25   C     C_R   0.452547 0.049750 0.916413 0.077006
C26   C     C_R   0.547453 0.950250 0.083586 0.077006
C27   C     C_R   0.047442 0.550037 0.083549 0.076986
C28   C     C_R   0.952557 0.449963 0.916451 0.076986
C29   C     C_R   0.518389 0.038064 0.917097 0.078220
C30   C     C_R   0.481611 0.961936 0.082903 0.078220
C31   C     C_R   0.981601 0.538369 0.082865 0.078251
C32   C     C_R   0.018399 0.461631 0.917135 0.078252
C33   C     C_R   0.434145 0.012137 0.999339 -0.166759
C34   C     C_R   0.565855 0.987863 0.000661 -0.166759
C35   C     C_R   0.065855 0.512130 0.000659 -0.166778
C36   C     C_R   0.934145 0.487870 0.999341 -0.166778
H5    H     H_    0.584286 0.064891 0.829345 0.099445
H6    H     H_    0.415714 0.935109 0.170654 0.099445
H7    H     H_    0.915696 0.565502 0.170590 0.099559
H8    H     H_    0.084304 0.434498 0.829410 0.099559
H9    H     H_    0.501777 0.141326 0.686057 0.113163
H10   H     H_    0.498223 0.858673 0.313943 0.113163
H11   H     H_    0.998188 0.642391 0.313819 0.113216
H12   H     H_    0.001812 0.357608 0.686181 0.113216
H13   H     H_    0.355526 0.104338 0.827166 0.083395
H14   H     H_    0.644473 0.895662 0.172834 0.083395
H15   H     H_    0.144457 0.604846 0.172774 0.083529
H16   H     H_    0.855543 0.395154 0.827225 0.083529
C37   C     C_R   0.177247 0.011299 0.723359 -0.055927
C38   C     C_R   0.822753 0.988701 0.276641 -0.055926
C39   C     C_R   0.322753 0.511252 0.276641 -0.055997
C40   C     C_R   0.677246 0.488748 0.723359 -0.055997
C41   C     C_R   0.188877 0.967857 0.567794 -0.143514
C42   C     C_R   0.811123 0.032143 0.432205 -0.143514
C43   C     C_R   0.311139 0.467023 0.432169 -0.143528
C44   C     C_R   0.688861 0.532977 0.567830 -0.143528
C45   C     C_R   0.216152 0.975496 0.664285 -0.172607
C46   C     C_R   0.783848 0.024504 0.335715 -0.172608
C47   C     C_R   0.283865 0.474899 0.335682 -0.172703
C48   C     C_R   0.716134 0.525100 0.664318 -0.172703
C49   C     C_R   0.110746 0.028580 0.686205 -0.145380
C50   C     C_R   0.889254 0.971420 0.313795 -0.145380
C51   C     C_R   0.389244 0.528834 0.313816 -0.145389
C52   C     C_R   0.610756 0.471165 0.686184 -0.145389
C53   C     C_R   0.081074 0.997325 0.589883 0.104512
C54   C     C_R   0.918926 0.002675 0.410116 0.104512
C55   C     C_R   0.418929 0.497299 0.410112 0.104487
C56   C     C_R   0.581071 0.502700 0.589888 0.104487
C57   C     C_R   0.121998 0.983783 0.530250 0.069565
C58   C     C_R   0.878001 0.016217 0.469749 0.069565
C59   C     C_R   0.378009 0.483222 0.469731 0.069539
C60   C     C_R   0.621991 0.516778 0.530269 0.069539
C61   C     C_R   0.012762 0.991900 0.550053 -0.073804
C62   C     C_R   0.987237 0.008100 0.449947 -0.073804
C63   C     C_R   0.487242 0.492065 0.449940 -0.073826
C64   C     C_R   0.512758 0.507935 0.550060 -0.073826
C65   C     C_R   0.031328 0.032054 0.394713 0.358803
C66   C     C_R   0.968672 0.967946 0.605287 0.358803
C67   C     C_R   0.468657 0.531398 0.605312 0.358769
C68   C     C_R   0.531343 0.468601 0.394688 0.358769
C69   C     C_R   0.096682 0.002589 0.434010 -0.240680
C70   C     C_R   0.903318 0.997411 0.565990 -0.240680
C71   C     C_R   0.403316 0.501741 0.565988 -0.240699
C72   C     C_R   0.596684 0.498259 0.434012 -0.240699
H17   H     H_    0.128854 0.011574 0.389528 0.159368
H18   H     H_    0.871146 0.988426 0.610472 0.159368
H19   H     H_    0.371138 0.510339 0.610473 0.159380
H20   H     H_    0.628861 0.489661 0.389526 0.159380
H21   H     H_    0.916127 0.924620 0.266638 0.156773
H22   H     H_    0.083873 0.075380 0.733362 0.156773
H23   H     H_    0.583900 0.423998 0.733301 0.156801
H24   H     H_    0.416099 0.576002 0.266699 0.156801
H25   H     H_    0.732332 0.039432 0.307487 0.108397
H26   H     H_    0.267668 0.960568 0.692513 0.108397
H27   H     H_    0.767641 0.540293 0.692566 0.108504
H28   H     H_    0.232359 0.459707 0.307434 0.108504
H29   H     H_    0.220142 0.952479 0.522338 0.118492
H30   H     H_    0.779858 0.047521 0.477662 0.118492
H31   H     H_    0.279882 0.451213 0.477610 0.118525
H32   H     H_    0.720118 0.548787 0.522390 0.118525
Cl1   Cl    Cl    0.011953 0.132295 0.280869 -0.723695
Cl2   Cl    Cl    0.988047 0.867705 0.719131 -0.723695
Cl3   Cl    Cl    0.487990 0.631262 0.719231 -0.723626
Cl4   Cl    Cl    0.512010 0.368738 0.280769 -0.723626

loop_
_geom_bond_atom_site_label_1
_geom_bond_atom_site_label_2
_ccdc_geom_bond_type
O17   V3    S    
C43   C47   A    
O1    C5    A    
C61   C62   A    
C12   C32   A    
C27   C31   A    
O19   V1    S    
O13   V1    S    
O3    C7    A    
C52   C56   A    
O15   V3    S    
C39   C47   A    
C29   C34   A    
C38   C50   A    
O7    C3    A    
C37   C49   A    
C31   C36   A    
C8    C33   S    
C62   C65   A    
C32   C35   A    
C58   C70   A    
O9    V1    S    
C52   H23   S    
C23   H15   S    
C10   C14   A    
C22   H14   S    
C26   C30   A    
C47   H28   S    
O4    C8    A    
C55   C59   A    
C54   C58   A    
O1    V3    S    
H4    C19   S    
O2    V4    S    
C14   C18   A    
O3    V1    S    
C42   H30   S    
C5    C36   S    
C6    C35   S    
C10   C30   A    
C25   C33   A    
C1    O15   A    
C7    C34   S    
C10   H6    S    
C2    O16   A    
C27   C35   A    
O2    C6    A    
C28   C36   A    
C63   C68   A    
O14   V2    S    
C70   H18   S    
C12   C16   A    
C39   C51   A    
C69   H17   S    
C38   C46   A    
C30   C33   A    
O11   C7    A    
C11   C31   A    
O12   C8    A    
C43   C59   A    
C9    C13   A    
H1    C18   S    
C42   C58   A    
C67   C71   A    
C44   H32   S    
O10   V2    S    
C48   H27   S    
H3    C20   S    
C55   C63   A    
C50   C54   A    
O5    V1    S    
O17   V1    S    
O7    V3    S    
O19   V3    S    
O8    V4    S    
C50   H21   S    
O20   V4    S    
C67   Cl3   S    
C53   C61   A    
C25   C29   A    
O18   V4    S    
C19   C23   A    
C26   C34   A    
C42   C46   A    
C51   C55   A    
O4    V2    S    
C68   C72   A    
C9    H5    S    
C1    C40   S    
C44   C60   A    
C40   C52   A    
C14   H10   S    
O5    C1    A    
C3    C38   S    
C57   C69   A    
C17   C21   A    
O8    C4    A    
C59   C71   A    
C4    C37   S    
C46   H25   S    
O9    C5    A    
C45   H26   S    
H2    C17   S    
C22   C26   A    
O6    V2    S    
C60   C72   A    
C56   C64   A    
C65   Cl1   S    
C21   H13   S    
C53   C57   A    
C72   H20   S    
C13   H9    S    
O16   V4    S    
C61   C66   A    
C66   Cl2   S    
C65   C69   A    
C3    O13   A    
C15   H11   S    
C41   H29   S    
C11   H7    S    
C44   C48   A    
C43   H31   S    
C24   H16   S    
O6    C2    A    
C11   C15   A    
C2    C39   S    
O11   V3    S    
O12   V4    S    
C18   C22   A    
O10   C6    A    
O20   V2    S    
C40   C48   A    
C16   C20   A    
C41   C57   A    
C21   C25   A    
C56   C60   A    
C16   H12   S    
C23   C27   A    
C49   C53   A    
C9    C29   A    
C68   Cl4   S    
C37   C45   A    
C28   C32   A    
C20   C24   A    
C49   H22   S    
C54   C62   A    
C66   C70   A    
C12   H8    S    
C4    O14   A    
C63   C64   A    
C13   C17   A    
C51   H24   S    
C71   H19   S    
C15   C19   A    
C64   C67   A    
C41   C45   A    
C24   C28   A    
O18   V2    S    
