data_str_m9_o7_o18_f0_sra.sym.115
_audit_creation_date              2012-12-11T17:36:09-0500
_audit_creation_method            fapswitch 2.2
_symmetry_space_group_name_H-M    P1
_symmetry_Int_Tables_number       1
_space_group_crystal_system       triclinic
_cell_length_a                    25.831444
_cell_length_b                    6.903245
_cell_length_c                    21.717077
_cell_angle_alpha                 90.000765
_cell_angle_beta                  96.065631
_cell_angle_gamma                 90.000149
_cell_volume                      3850.92549847

loop_
_atom_site_label
_atom_site_type_symbol
_atom_type_description
_atom_site_fract_x
_atom_site_fract_y
_atom_site_fract_z
_atom_type_partial_charge
O1    O     O_R   0.208650 0.594520 0.175450 -0.535070
O2    O     O_R   0.791350 0.405480 0.824550 -0.535070
O3    O     O_R   0.291350 0.094520 0.324550 -0.535071
O4    O     O_R   0.708650 0.905480 0.675450 -0.535072
O5    O     O_R   0.192980 0.260780 0.300160 -0.541278
O6    O     O_R   0.807020 0.739220 0.699840 -0.541279
O7    O     O_R   0.307020 0.760780 0.199840 -0.541280
O8    O     O_R   0.692980 0.239220 0.800160 -0.541280
C1    C     C_R   0.178797 0.432848 0.318426 0.687766
C2    C     C_R   0.821203 0.567152 0.681574 0.687767
C3    C     C_R   0.321203 0.932847 0.181574 0.687767
C4    C     C_R   0.678797 0.067153 0.818426 0.687767
O9    O     O_R   0.202550 0.264660 0.174420 -0.537003
O10   O     O_R   0.797450 0.735340 0.825580 -0.537003
O11   O     O_R   0.297450 0.764660 0.325580 -0.537003
O12   O     O_R   0.702550 0.235340 0.674420 -0.537003
O13   O     O_R   0.300990 0.096480 0.197920 -0.536985
O14   O     O_R   0.699010 0.903520 0.802080 -0.536985
O15   O     O_R   0.199010 0.596480 0.302080 -0.536987
O16   O     O_R   0.800990 0.403520 0.697920 -0.536988
C5    C     C_R   0.191047 0.433563 0.151180 0.707438
C6    C     C_R   0.808953 0.566436 0.848820 0.707437
C7    C     C_R   0.308953 0.933566 0.348820 0.707438
C8    C     C_R   0.691047 0.066434 0.651180 0.707439
O17   O     O_3   0.282290 0.427760 0.257860 -0.366753
O18   O     O_3   0.717710 0.572240 0.742140 -0.366753
O19   O     O_3   0.217710 0.927760 0.242140 -0.366753
O20   O     O_3   0.782290 0.072240 0.757860 -0.366753
V1    V     V_3+5 0.244010 0.152080 0.248540 1.435324
V2    V     V_3+5 0.755990 0.847920 0.751460 1.435324
V3    V     V_3+5 0.255990 0.652080 0.251460 1.435319
V4    V     V_3+5 0.744010 0.347920 0.748540 1.435319
C9    C     C_R   0.658044 0.058601 0.591315 -0.091764
C10   C     C_R   0.341956 0.941399 0.408685 -0.091764
C11   C     C_R   0.841956 0.558612 0.908685 -0.091766
C12   C     C_R   0.158044 0.441388 0.091315 -0.091765
C13   C     C_R   0.648277 0.081893 0.479399 -0.191256
C14   C     C_R   0.351723 0.918107 0.520601 -0.191256
C15   C     C_R   0.851726 0.581963 0.020600 -0.191256
C16   C     C_R   0.148274 0.418036 0.979400 -0.191256
C17   C     C_R   0.680067 0.084856 0.535488 -0.043594
C18   C     C_R   0.319933 0.915144 0.464512 -0.043594
C19   C     C_R   0.819935 0.584910 0.964511 -0.043593
C20   C     C_R   0.180065 0.415090 0.035489 -0.043593
C21   C     C_R   0.604021 0.029322 0.590127 -0.224812
C22   C     C_R   0.395979 0.970677 0.409873 -0.224813
C23   C     C_R   0.895979 0.529308 0.909873 -0.224813
C24   C     C_R   0.104021 0.470691 0.090127 -0.224813
C25   C     C_R   0.570820 0.026959 0.533371 0.090474
C26   C     C_R   0.429180 0.973041 0.466629 0.090474
C27   C     C_R   0.929181 0.526965 0.966629 0.090474
C28   C     C_R   0.070819 0.473034 0.033371 0.090474
C29   C     C_R   0.594326 0.053968 0.477868 0.126181
C30   C     C_R   0.405673 0.946032 0.522131 0.126181
C31   C     C_R   0.905675 0.554016 0.022131 0.126181
C32   C     C_R   0.094325 0.445984 0.977869 0.126181
C33   C     C_R   0.515345 0.999760 0.529617 0.060006
C34   C     C_R   0.484655 0.000240 0.470383 0.060006
C35   C     C_R   0.984654 0.499749 0.970383 0.060005
C36   C     C_R   0.015346 0.500251 0.029617 0.060005
C37   C     C_R   0.510486 0.027694 0.416954 -0.187265
C38   C     C_R   0.489514 0.972306 0.583046 -0.187265
C39   C     C_R   0.989516 0.527745 0.083045 -0.187265
C40   C     C_R   0.010484 0.472255 0.916954 -0.187265
C41   C     C_R   0.564006 0.053715 0.420811 -0.190341
C42   C     C_R   0.435994 0.946285 0.579189 -0.190341
C43   C     C_R   0.935996 0.553784 0.079188 -0.190340
C44   C     C_R   0.064004 0.446216 0.920812 -0.190340
H1    H     H_    0.581922 0.074374 0.378330 0.126830
H2    H     H_    0.418077 0.925625 0.621670 0.126830
H3    H     H_    0.918081 0.574475 0.121668 0.126830
H4    H     H_    0.081919 0.425525 0.878332 0.126830
H5    H     H_    0.410660 0.989305 0.365645 0.096746
H6    H     H_    0.589339 0.010694 0.634355 0.096746
H7    H     H_    0.089341 0.489350 0.134354 0.096748
H8    H     H_    0.910659 0.510650 0.865646 0.096748
H9    H     H_    0.665742 0.102253 0.436550 0.122300
H10   H     H_    0.334258 0.897747 0.563450 0.122300
H11   H     H_    0.834262 0.602355 0.063449 0.122299
H12   H     H_    0.165738 0.397645 0.936551 0.122299
H13   H     H_    0.490449 0.030121 0.370928 0.123328
H14   H     H_    0.509550 0.969879 0.629071 0.123328
H15   H     H_    0.009553 0.530191 0.129070 0.123328
H16   H     H_    0.990447 0.469809 0.870930 0.123328
C45   C     C_R   0.424788 0.793238 0.075923 -0.125098
C46   C     C_R   0.575211 0.206762 0.924077 -0.125098
C47   C     C_R   0.075211 0.293239 0.424075 -0.125096
C48   C     C_R   0.924789 0.706761 0.575925 -0.125096
H17   H     H_    0.440958 0.662516 0.058077 0.108870
H18   H     H_    0.559042 0.337484 0.941923 0.108870
H19   H     H_    0.059040 0.162517 0.441918 0.108870
H20   H     H_    0.940960 0.837483 0.558082 0.108870
C49   C     C_R   0.385578 0.778259 0.115944 -0.155714
C50   C     C_R   0.614422 0.221741 0.884056 -0.155713
C51   C     C_R   0.114421 0.278261 0.384054 -0.155703
C52   C     C_R   0.885579 0.721739 0.615946 -0.155703
H21   H     H_    0.372316 0.635702 0.127889 0.128562
H22   H     H_    0.627684 0.364298 0.872111 0.128562
H23   H     H_    0.127682 0.135704 0.372107 0.128564
H24   H     H_    0.872318 0.864296 0.627893 0.128564
C53   C     C_R   0.363601 0.945662 0.139773 -0.064648
C54   C     C_R   0.636399 0.054337 0.860227 -0.064649
C55   C     C_R   0.136399 0.445664 0.360227 -0.064655
C56   C     C_R   0.863601 0.554336 0.639772 -0.064655
C57   C     C_R   0.382184 0.127898 0.122492 -0.131095
C58   C     C_R   0.617816 0.872102 0.877508 -0.131095
C59   C     C_R   0.117818 0.627900 0.377511 -0.131107
C60   C     C_R   0.882182 0.372100 0.622489 -0.131107
H25   H     H_    0.366479 0.260306 0.139709 0.131814
H26   H     H_    0.633521 0.739694 0.860291 0.131813
H27   H     H_    0.133524 0.760308 0.360297 0.131818
H28   H     H_    0.866476 0.239692 0.639703 0.131818
C61   C     C_R   0.421266 0.142391 0.082594 -0.121312
C62   C     C_R   0.578734 0.857609 0.917406 -0.121312
C63   C     C_R   0.078735 0.642393 0.417409 -0.121311
C64   C     C_R   0.921264 0.357607 0.582590 -0.121311
H29   H     H_    0.434629 0.284386 0.070090 0.107171
H30   H     H_    0.565370 0.715614 0.929910 0.107171
H31   H     H_    0.065373 0.784388 0.429915 0.107174
H32   H     H_    0.934627 0.215612 0.570085 0.107174
C65   C     C_R   0.442806 0.975480 0.058967 0.121379
C66   C     C_R   0.557193 0.024519 0.941033 0.121379
C67   C     C_R   0.057194 0.475482 0.441034 0.121377
C68   C     C_R   0.942806 0.524518 0.558966 0.121377
C69   C     C_1   0.483162 0.992306 0.017369 -0.050867
C70   C     C_1   0.516837 0.007693 0.982631 -0.050867
C71   C     C_1   0.016838 0.492307 0.482631 -0.050866
C72   C     C_1   0.983162 0.507693 0.517369 -0.050866
C73   C     C_1   0.264621 0.885429 0.465219 0.286076
N1    N     N_1   0.220316 0.861752 0.465730 -0.365407
C74   C     C_1   0.735378 0.114571 0.534781 0.286075
N2    N     N_1   0.779684 0.138247 0.534269 -0.365407
C75   C     C_1   0.235375 0.385348 0.034781 0.286075
N3    N     N_1   0.279680 0.361650 0.034270 -0.365402
C76   C     C_1   0.764624 0.614652 0.965218 0.286075
N4    N     N_1   0.720320 0.638350 0.965730 -0.365402

loop_
_geom_bond_atom_site_label_1
_geom_bond_atom_site_label_2
_ccdc_geom_bond_type
O17   V3    S    
C48   C52   A    
O1    C5    A    
C47   H19   S    
O19   V1    S    
C9    C21   A    
O3    C7    A    
C10   C18   A    
C48   C68   A    
C11   C23   A    
C25   C33   A    
C76   N4    T    
C5    C12   S    
C42   H2    S    
O7    C3    A    
C6    C11   S    
O5    C1    A    
C26   C30   A    
C58   C62   A    
C36   C39   A    
C40   C44   A    
C57   C61   A    
C23   H8    S    
C14   C18   A    
C58   H26   S    
O4    C8    A    
C51   H23   S    
C44   H4    S    
C50   H22   S    
O1    V3    S    
O13   V1    S    
C31   C43   A    
O2    V4    S    
O3    V1    S    
C40   H16   S    
C46   C50   A    
C65   C69   S    
C45   C49   A    
C1    O15   A    
C15   C31   A    
C48   H20   S    
C2    O16   A    
C16   C32   A    
C47   C51   A    
O2    C6    A    
C16   H12   S    
C45   C65   A    
C10   C22   A    
C11   C19   A    
C16   C20   A    
C43   H3    S    
C1    C55   S    
C68   C72   S    
C13   C29   A    
C34   C37   A    
O11   C7    A    
C38   H14   S    
O15   V3    S    
C35   C36   A    
O12   C8    A    
C53   C57   A    
C24   H7    S    
O10   V2    S    
C51   C55   A    
O5    V1    S    
O17   V1    S    
C39   C43   A    
C63   C67   A    
C38   C42   A    
O19   V3    S    
C26   C34   A    
O20   V4    S    
O7    V3    S    
C46   H18   S    
C49   C53   A    
C17   C74   S    
C45   H17   S    
O18   V4    S    
C15   C19   A    
C14   H10   S    
C33   C38   A    
C32   C44   A    
C13   H9    S    
C60   H28   S    
C39   H15   S    
C21   H6    S    
O8    V4    S    
C66   C70   S    
C4    C54   S    
C37   C41   A    
C67   C71   S    
C14   C30   A    
C21   C25   A    
O8    C4    A    
C7    C10   S    
C35   C40   A    
O9    C5    A    
C3    C53   S    
C19   C76   S    
C59   C63   A    
C62   H30   S    
C61   H29   S    
O6    V2    S    
O18   V2    S    
C63   H31   S    
C52   C56   A    
C75   N3    T    
C12   C20   A    
C27   C35   A    
C71   C72   T    
C49   H21   S    
C56   C60   A    
C29   C41   A    
C73   N1    T    
O16   V4    S    
O9    V1    S    
C20   C75   S    
C57   H25   S    
C3    O13   A    
C64   C68   A    
C59   H27   S    
O6    C2    A    
C23   C27   A    
O11   V3    S    
C30   C42   A    
O12   V4    S    
C22   C26   A    
C8    C9    S    
C9    C17   A    
O10   C6    A    
C2    C56   S    
C37   H13   S    
C47   C67   A    
C60   C64   A    
C33   C34   A    
C69   C70   T    
C28   C32   A    
C41   H1    S    
C52   H24   S    
O20   V2    S    
C12   C24   A    
C18   C73   S    
C27   C31   A    
C13   C17   A    
C46   C66   A    
C25   C29   A    
O14   V2    S    
C62   C66   A    
C64   H32   S    
C24   C28   A    
C61   C65   A    
C50   C54   A    
C28   C36   A    
C54   C58   A    
C4    O14   A    
C55   C59   A    
C22   H5    S    
O4    V2    S    
C74   N2    T    
C15   H11   S    
