data_str_m4_o4_o24_f0_acs.sym.62
_audit_creation_date              2012-12-11T15:50:41-0500
_audit_creation_method            fapswitch 2.2
_symmetry_space_group_name_H-M    P1
_symmetry_Int_Tables_number       1
_space_group_crystal_system       triclinic
_cell_length_a                    18.970532
_cell_length_b                    10.935312
_cell_length_c                    18.67119
_cell_angle_alpha                 89.872303
_cell_angle_beta                  90.629641
_cell_angle_gamma                 89.307901
_cell_volume                      3872.78659555

loop_
_atom_site_label
_atom_site_type_symbol
_atom_type_description
_atom_site_fract_x
_atom_site_fract_y
_atom_site_fract_z
_atom_type_partial_charge
C1    C     C_R   0.274422 0.036828 0.855936 0.541545
C2    C     C_R   0.764144 0.555871 0.932249 0.012714
C3    C     C_R   0.227870 0.545710 0.354218 0.554860
C4    C     C_R   0.436958 0.819340 0.639761 0.571320
C5    C     C_R   0.528358 0.823272 0.352155 0.544073
C6    C     C_R   0.936558 0.319217 0.639807 0.570295
C7    C     C_R   0.027930 0.323211 0.351959 0.545207
C8    C     C_R   0.260244 0.635373 0.644442 0.551534
C9    C     C_R   0.740924 0.635784 0.355527 0.543746
C10   C     C_R   0.761586 0.141366 0.641552 0.536918
C11   C     C_R   0.241081 0.135233 0.355297 0.543136
C12   C     C_3   0.466720 0.941149 0.032166 -0.119318
C13   C     C_R   0.715776 0.002546 0.060989 0.006726
C14   C     C_3   0.515310 0.913822 0.967907 -0.104825
C15   C     C_3   0.966715 0.441148 0.032167 -0.119318
C16   C     C_3   0.015306 0.413828 0.967907 -0.104813
C17   C     C_3   0.410951 0.852561 0.001017 -0.138489
C18   C     C_3   0.549902 0.806192 0.009268 -0.116268
C19   C     C_3   0.910949 0.352555 0.001017 -0.138512
C20   C     C_3   0.049902 0.306201 0.009266 -0.116164
C21   C     C_3   0.460288 0.825004 0.938289 0.049188
C22   C     C_3   0.500607 0.832740 0.072219 0.055407
C23   C     C_3   0.960286 0.325006 0.938289 0.049216
C24   C     C_R   0.264144 0.055874 0.932248 0.012653
C25   C     C_3   0.000606 0.332741 0.072219 0.055567
C26   C     C_3   0.063591 0.608325 0.592896 -0.390218
C27   C     C_3   0.913191 0.778919 0.441245 -0.407544
C28   C     C_3   0.597751 0.065491 0.576887 -0.394577
C29   C     C_3   0.415645 0.273228 0.438493 -0.405799
C30   C     C_R   0.271989 0.449770 0.023065 0.023148
C31   C     C_R   0.713288 0.490896 0.969917 0.020829
C32   C     C_R   0.771990 0.949774 0.023067 0.023252
C33   C     C_R   0.213286 0.990901 0.969915 0.020943
C34   C     C_R   0.284021 0.481635 0.951989 0.015846
C35   C     C_R   0.707978 0.502269 0.043544 0.012886
C36   C     C_R   0.784022 0.981639 0.951991 0.015749
C37   C     C_R   0.708669 0.993533 0.139404 0.567300
C38   C     C_R   0.207975 0.002274 0.043541 0.012904
C39   C     C_R   0.174747 0.593985 0.948956 -0.158935
C40   C     C_R   0.816739 0.611538 0.046345 -0.165722
C41   C     C_R   0.674751 0.093996 0.948960 -0.159042
C42   C     C_R   0.316738 0.111539 0.046345 -0.165709
C43   C     C_R   0.163240 0.563807 0.020641 -0.166842
C44   C     C_R   0.819099 0.609150 0.972232 -0.164481
C45   C     C_R   0.663243 0.063816 0.020644 -0.166849
C46   C     C_R   0.319099 0.109151 0.972232 -0.164552
C47   C     C_3   0.348973 0.444374 0.039710 -0.260433
C48   C     C_R   0.774423 0.536826 0.855937 0.541217
C49   C     C_3   0.635464 0.487493 0.959736 -0.278670
C50   C     C_3   0.848974 0.944377 0.039712 -0.260391
C51   C     C_3   0.135463 0.987501 0.959731 -0.278686
C52   C     C_3   0.361785 0.480088 0.962200 -0.278057
C53   C     C_3   0.629432 0.498986 0.040730 -0.270848
C54   C     C_3   0.861787 0.980089 0.962202 -0.278123
C55   C     C_3   0.129429 0.998996 0.040726 -0.270867
C56   C     C_R   0.239446 0.564612 0.915921 0.018184
C57   C     C_R   0.756126 0.573602 0.081998 0.018898
C58   C     C_R   0.739449 0.064617 0.915923 0.017718
C59   C     C_R   0.208668 0.493532 0.139404 0.567175
C60   C     C_R   0.256124 0.073605 0.081996 0.018929
C61   C     C_R   0.488278 0.826641 0.418228 0.014335
C62   C     C_R   0.448967 0.824230 0.562804 0.010446
C63   C     C_R   0.987163 0.325697 0.417857 0.017079
C64   C     C_R   0.947547 0.323437 0.562511 0.006680
C65   C     C_R   0.438684 0.817376 0.862596 0.561186
C66   C     C_R   0.528676 0.822714 0.145157 0.538759
C67   C     C_R   0.938684 0.317376 0.862595 0.561329
C68   C     C_R   0.028676 0.322714 0.145157 0.538117
C69   C     C_R   0.480753 0.716643 0.455678 0.026630
C70   C     C_3   0.494609 0.717664 0.979132 -0.122512
C71   C     C_R   0.462319 0.715623 0.526355 0.014807
C72   C     C_R   0.981594 0.216035 0.456045 0.031613
C73   C     C_R   0.962884 0.215059 0.526614 0.025591
C74   C     C_R   0.444254 0.933452 0.522786 -0.164415
C75   C     C_R   0.464857 0.935136 0.450532 -0.167584
C76   C     C_R   0.939782 0.431263 0.521489 -0.169776
C77   C     C_R   0.959891 0.432657 0.448927 -0.166086
C78   C     C_3   0.533179 0.614669 0.466491 -0.268101
C79   C     C_3   0.512837 0.613461 0.544262 -0.272799
C80   C     C_3   0.035168 0.116156 0.467358 -0.269100
C81   C     C_3   0.445684 0.745250 0.042613 -0.132634
C82   C     C_3   0.014376 0.114744 0.545062 -0.271406
C83   C     C_R   0.238919 0.572332 0.428002 0.016224
C84   C     C_R   0.754701 0.576155 0.573473 0.010710
C85   C     C_R   0.750189 0.107477 0.417767 0.013522
C86   C     C_R   0.256269 0.073617 0.572543 0.013715
C87   C     C_R   0.179040 0.571767 0.471075 0.027333
C88   C     C_R   0.806798 0.637365 0.537941 0.006538
C89   C     C_R   0.699663 0.174666 0.455814 0.016887
C90   C     C_R   0.309810 0.130668 0.536682 0.006597
C91   C     C_R   0.185113 0.579442 0.543692 0.024176
C92   C     C_3   0.994612 0.217668 0.979129 -0.122515
C93   C     C_R   0.809997 0.638863 0.465486 0.040766
C94   C     C_R   0.703468 0.177784 0.528395 0.054834
C95   C     C_R   0.312325 0.132597 0.464050 0.040234
C96   C     C_R   0.311403 0.559789 0.533844 -0.171398
C97   C     C_R   0.706898 0.510719 0.458957 -0.171709
C98   C     C_R   0.815977 0.074911 0.527607 -0.170528
C99   C     C_R   0.206700 0.010288 0.458533 -0.174044
C100  C     C_R   0.305567 0.559740 0.459662 -0.179940
C101  C     C_R   0.706128 0.506567 0.533551 -0.160631
C102  C     C_R   0.812951 0.072266 0.452794 -0.170309
C103  C     C_3   0.945687 0.245246 0.042612 -0.132643
C104  C     C_R   0.206013 0.007194 0.533131 -0.162397
C105  C     C_3   0.114814 0.652559 0.468606 -0.242787
C106  C     C_3   0.833029 0.762961 0.549036 -0.263745
C107  C     C_3   0.619987 0.174035 0.457536 -0.248038
C108  C     C_3   0.337521 0.255252 0.547790 -0.260123
C109  C     C_3   0.122646 0.663899 0.549230 -0.141924
C110  C     C_3   0.837522 0.768021 0.468197 -0.117906
C111  C     C_3   0.625567 0.179036 0.538673 -0.145976
C112  C     C_3   0.340645 0.261286 0.467002 -0.115475
C113  C     C_R   0.259565 0.633415 0.851208 0.538862
C114  C     C_R   0.215774 0.502541 0.060987 0.006561
C115  C     C_R   0.740240 0.633727 0.149535 0.540255
C116  C     C_R   0.759565 0.133415 0.851208 0.539575
C117  C     C_R   0.240240 0.133729 0.149534 0.539899
C118  C     C_R   0.251267 0.581217 0.575758 0.008672
C119  C     C_R   0.755697 0.585744 0.424957 0.014786
C120  C     C_R   0.757698 0.118988 0.566016 0.014523
C121  C     C_R   0.256507 0.082753 0.424082 0.014826
C122  C     C_R   0.271425 0.044849 0.645744 0.545079
C123  C     C_R   0.729185 0.049832 0.352079 0.554763
C124  C     C_R   0.771127 0.545400 0.646086 0.544974
Cr1   Cr    Cr6+3 0.229640 0.835880 0.747370 0.995522
Cr2   Cr    Cr6+3 0.614230 0.677220 0.250660 1.000851
Cr3   Cr    Cr6+3 0.885770 0.177220 0.749340 0.998592
Cr4   Cr    Cr6+3 0.114230 0.177220 0.250660 1.000788
Cr5   Cr    Cr6+3 0.770360 0.835880 0.252630 0.995151
Cr6   Cr    Cr6+3 0.729640 0.335880 0.747370 0.999188
Cr7   Cr    Cr6+3 0.270360 0.335880 0.252630 0.997005
Cr8   Cr    Cr6+3 0.387390 0.989720 0.750850 1.001464
Cr9   Cr    Cr6+3 0.612610 0.989720 0.249150 0.997709
Cr10  Cr    Cr6+3 0.887390 0.489720 0.750850 0.998232
Cr11  Cr    Cr6+3 0.112610 0.489720 0.249150 1.001702
Cr12  Cr    Cr6+3 0.385770 0.677220 0.749340 0.997858
H1    H     H_    0.353134 0.866049 0.996306 0.123456
H2    H     H_    0.988272 0.028627 0.561056 0.127190
H3    H     H_    0.588000 0.645624 0.458296 0.161490
H4    H     H_    0.486126 0.527911 0.560197 0.125842
H5    H     H_    0.518328 0.530392 0.437183 0.128992
H6    H     H_    0.556534 0.641942 0.580542 0.158747
H7    H     H_    0.021476 0.031095 0.438200 0.130330
H8    H     H_    0.057523 0.144860 0.581546 0.158797
H9    H     H_    0.363195 0.553246 0.557971 0.146460
H10   H     H_    0.666067 0.464728 0.428710 0.126515
H11   H     H_    0.862069 0.038537 0.555132 0.137726
H12   H     H_    0.607656 0.789451 0.013538 0.108551
H13   H     H_    0.164621 0.966968 0.428676 0.122304
H14   H     H_    0.352284 0.548714 0.427365 0.131775
H15   H     H_    0.667665 0.450296 0.559754 0.134912
H16   H     H_    0.855555 0.030044 0.423451 0.132701
H17   H     H_    0.165735 0.955787 0.559807 0.126594
H18   H     H_    0.067609 0.602216 0.450512 0.148187
H19   H     H_    0.884624 0.763634 0.577889 0.143876
H20   H     H_    0.596296 0.088206 0.437220 0.172078
H21   H     H_    0.389545 0.253951 0.575852 0.144151
H22   H     H_    0.123803 0.739943 0.439718 0.122496
H23   H     H_    0.853132 0.366038 0.996308 0.123432
H24   H     H_    0.791905 0.824946 0.571287 0.124278
H25   H     H_    0.596488 0.258812 0.433947 0.110239
H26   H     H_    0.297318 0.317480 0.571314 0.131276
H27   H     H_    0.135493 0.758358 0.565499 0.164018
H28   H     H_    0.799841 0.834967 0.444281 0.181006
H29   H     H_    0.605763 0.266455 0.561540 0.140354
H30   H     H_    0.302719 0.328430 0.443958 0.186502
H31   H     H_    0.458445 0.032640 0.056110 0.104144
H32   H     H_    0.542599 0.982598 0.934906 0.124058
H33   H     H_    0.958438 0.532636 0.056112 0.104074
H34   H     H_    0.107656 0.289466 0.013535 0.108551
H35   H     H_    0.042590 0.482608 0.934905 0.123839
H36   H     H_    0.504230 0.625147 0.957093 0.120404
H37   H     H_    0.418153 0.681711 0.078157 0.116147
H38   H     H_    0.004235 0.125153 0.957090 0.120351
H39   H     H_    0.918160 0.181704 0.078155 0.116090
H40   H     H_    0.135511 0.651082 0.922205 0.132617
H41   H     H_    0.859427 0.654791 0.074950 0.127317
H42   H     H_    0.635515 0.151096 0.922210 0.132928
H43   H     H_    0.359427 0.154789 0.074950 0.127338
H44   H     H_    0.115456 0.597011 0.045648 0.135870
H45   H     H_    0.430572 0.018198 0.548791 0.139942
H46   H     H_    0.864614 0.648586 0.946848 0.142990
H47   H     H_    0.615459 0.097022 0.045651 0.135977
H48   H     H_    0.364614 0.148586 0.946848 0.143037
H49   H     H_    0.868258 0.851154 0.052329 0.134654
H50   H     H_    0.117627 0.897711 0.938985 0.142119
H51   H     H_    0.368258 0.351152 0.052325 0.134665
H52   H     H_    0.617630 0.397702 0.938989 0.142251
H53   H     H_    0.364282 0.512890 0.080041 0.143088
H54   H     H_    0.615820 0.568472 0.929258 0.138423
H55   H     H_    0.864282 0.012893 0.080044 0.143022
H56   H     H_    0.467457 0.020747 0.421824 0.123630
H57   H     H_    0.115822 0.068481 0.929253 0.138449
H58   H     H_    0.383816 0.572373 0.955458 0.150080
H59   H     H_    0.604361 0.585495 0.058410 0.168270
H60   H     H_    0.883819 0.072373 0.955460 0.150006
H61   H     H_    0.104361 0.085507 0.058406 0.168296
H62   H     H_    0.387773 0.406568 0.930648 0.134246
H63   H     H_    0.608647 0.415233 0.066437 0.139047
H64   H     H_    0.887774 0.906568 0.930652 0.134099
H65   H     H_    0.108642 0.915246 0.066432 0.138967
H66   H     H_    0.057999 0.509769 0.580572 0.165232
H67   H     H_    0.924544 0.515566 0.547016 0.143420
H68   H     H_    0.076118 0.617165 0.650848 0.163624
H69   H     H_    0.013427 0.658180 0.581605 0.117123
H70   H     H_    0.914573 0.765616 0.382385 0.161796
H71   H     H_    0.933636 0.870877 0.454073 0.112570
H72   H     H_    0.948603 0.710576 0.467444 0.123286
H73   H     H_    0.610202 0.980059 0.547173 0.141635
H74   H     H_    0.620223 0.057474 0.631726 0.167202
H75   H     H_    0.540205 0.076265 0.582599 0.139101
H76   H     H_    0.417017 0.249555 0.380766 0.161610
H77   H     H_    0.432971 0.369021 0.445008 0.115441
H78   H     H_    0.958893 0.517267 0.418991 0.120556
H79   H     H_    0.453393 0.213249 0.468309 0.123038
H80   H     H_    0.089572 0.149353 0.459342 0.162134
O1    O     O_R   0.214300 0.709080 0.827500 -0.524774
O2    O     O_R   0.543340 0.717710 0.330180 -0.517079
O3    O     O_R   0.956660 0.217710 0.669820 -0.515807
O4    O     O_R   0.043340 0.217710 0.330180 -0.517862
O5    O     O_R   0.320590 0.625770 0.672930 -0.526134
O6    O     O_R   0.679410 0.625770 0.327070 -0.506694
O7    O     O_R   0.820590 0.125770 0.672930 -0.522897
O8    O     O_R   0.179410 0.125770 0.327070 -0.506172
O9    O     O_3   0.334270 0.834280 0.749190 -0.286378
O10   O     O_3   0.665730 0.834280 0.250810 -0.265139
O11   O     O_3   0.834270 0.334280 0.749190 -0.287112
O12   O     O_R   0.785700 0.709080 0.172500 -0.534139
O13   O     O_3   0.165730 0.334280 0.250810 -0.266063
O14   O     O_R   0.236190 0.958390 0.823150 -0.495884
O15   O     O_R   0.763810 0.958390 0.176850 -0.500227
O16   O     O_R   0.736190 0.458390 0.823150 -0.496096
O17   O     O_R   0.263810 0.458390 0.176850 -0.499611
O18   O     O_R   0.332090 0.075280 0.831290 -0.532218
O19   O     O_R   0.667910 0.075280 0.168710 -0.519142
O20   O     O_R   0.832090 0.575280 0.831290 -0.532460
O21   O     O_R   0.167910 0.575280 0.168710 -0.519213
O22   O     O_R   0.446280 0.918040 0.826620 -0.496707
O23   O     O_R   0.714300 0.209080 0.827500 -0.523513
O24   O     O_R   0.553720 0.918040 0.173380 -0.523975
O25   O     O_R   0.946280 0.418040 0.826620 -0.497060
O26   O     O_R   0.053720 0.418040 0.173380 -0.524826
O27   O     O_R   0.457080 0.716270 0.831760 -0.518529
O28   O     O_R   0.542920 0.716270 0.168240 -0.526590
O29   O     O_R   0.957080 0.216270 0.831760 -0.518554
O30   O     O_R   0.042920 0.216270 0.168240 -0.526868
O31   O     O_R   0.320980 0.624440 0.823040 -0.514659
O32   O     O_R   0.679020 0.624440 0.176960 -0.504058
O33   O     O_R   0.820980 0.124440 0.823040 -0.513888
O34   O     O_R   0.285700 0.209080 0.172500 -0.534283
O35   O     O_R   0.179020 0.124440 0.176960 -0.504325
O36   O     O_R   0.213880 0.710510 0.665560 -0.526743
O37   O     O_R   0.786120 0.710510 0.334440 -0.528563
O38   O     O_R   0.713880 0.210510 0.665560 -0.521413
O39   O     O_R   0.286120 0.210510 0.334440 -0.529605
O40   O     O_R   0.235800 0.959720 0.673040 -0.508258
O41   O     O_R   0.764200 0.959720 0.326960 -0.510724
O42   O     O_R   0.735800 0.459720 0.673040 -0.508319
O43   O     O_R   0.264200 0.459720 0.326960 -0.508656
O44   O     O_R   0.331670 0.076720 0.669350 -0.527296
O45   O     O_R   0.445900 0.919370 0.676500 -0.502456
O46   O     O_R   0.668330 0.076720 0.330650 -0.522634
O47   O     O_R   0.831670 0.576720 0.669350 -0.527076
O48   O     O_R   0.168330 0.576720 0.330650 -0.516451
O49   O     O_R   0.554100 0.919370 0.323500 -0.511349
O50   O     O_R   0.945900 0.419370 0.676500 -0.503574
O51   O     O_R   0.054100 0.419370 0.323500 -0.505992
O52   O     O_R   0.456660 0.717710 0.669820 -0.516462

loop_
_geom_bond_atom_site_label_1
_geom_bond_atom_site_label_2
_ccdc_geom_bond_type
C18   C70   S    
C83   C87   A    
Cr12  O9    S    
C123  O41   A    
C34   C56   A    
Cr10  O47   S    
C39   H40   S    
C87   C91   A    
C35   C53   S    
C30   C114  A    
C97   H10   S    
C14   C18   S    
C29   C112  S    
C20   H34   S    
Cr10  O50   S    
C86   C104  A    
C78   H3    S    
Cr4   O8    S    
C12   H31   S    
C71   C79   S    
C117  O35   A    
C76   H67   S    
C8    C118  S    
C90   C95   A    
C80   H80   S    
C74   H45   S    
C11   C121  S    
C86   C90   A    
C61   C75   A    
C28   H75   S    
C5    O49   A    
C96   H9    S    
C99   H13   S    
C116  O23   A    
C45   H47   S    
C50   C54   S    
C32   C36   A    
C14   C21   S    
C96   C118  A    
C16   C20   S    
C26   H66   S    
C41   C58   A    
Cr5   O41   S    
C95   C112  S    
C43   C114  A    
C122  O40   A    
C97   C119  A    
C106  H24   S    
C15   C25   S    
C79   H6    S    
C20   C25   S    
C123  O46   A    
C46   H48   S    
C15   C16   S    
C55   H65   S    
C106  C110  S    
C4    C62   S    
C94   C111  S    
C54   H64   S    
C15   H33   S    
C92   H38   S    
C27   H72   S    
Cr9   O19   S    
C3    C83   S    
C6    C64   S    
C89   C94   A    
C69   C71   A    
C70   C81   S    
Cr8   O22   S    
C53   H59   S    
C22   C66   S    
C70   H36   S    
C34   C52   S    
C13   C32   A    
C92   C103  S    
C111  H29   S    
C65   O27   A    
C15   C19   S    
C94   C120  A    
C1    O14   A    
C38   C55   S    
C107  H25   S    
C27   C110  S    
C2    C44   A    
C4    O45   A    
Cr5   O10   S    
C86   C122  S    
C11   O39   A    
C56   C113  S    
Cr11  O13   S    
C85   C123  S    
Cr3   O29   S    
Cr9   O24   S    
C104  H17   S    
Cr4   O4    S    
C51   C55   S    
C107  H20   S    
Cr7   O34   S    
Cr3   O7    S    
C93   C110  S    
C99   C121  A    
C3    O43   A    
C66   O24   A    
C95   C121  A    
Cr5   O12   S    
C99   C104  A    
C124  O42   A    
C98   C120  A    
C36   C54   S    
C18   C22   S    
C58   C116  S    
C84   C101  A    
Cr8   O44   S    
C69   C78   S    
C59   O17   A    
C25   C68   S    
C19   C103  S    
C31   C49   S    
Cr1   O9    S    
C9    O6    A    
C113  O1    A    
Cr6   O42   S    
C82   H8    S    
Cr8   O18   S    
C77   H78   S    
C37   O19   A    
C5    O2    A    
C28   C111  S    
C67   O25   A    
Cr9   O46   S    
Cr6   O23   S    
C32   C50   S    
C43   H44   S    
Cr4   O35   S    
C54   H60   S    
C74   C75   A    
C30   C34   A    
Cr10  O20   S    
Cr3   O3    S    
C53   H63   S    
C22   C81   S    
C41   H42   S    
C52   H58   S    
Cr9   O10   S    
Cr2   O10   S    
C57   C115  S    
Cr1   O14   S    
C51   H57   S    
C78   H5    S    
C42   C60   A    
C110  H28   S    
C78   C79   S    
C25   C103  S    
C39   C43   A    
C49   H54   S    
C124  O47   A    
C100  H14   S    
C28   H73   S    
C113  O31   A    
C108  H26   S    
C101  H15   S    
Cr2   O32   S    
Cr7   O17   S    
C33   C51   S    
Cr11  O21   S    
Cr12  O31   S    
C2    C31   A    
Cr3   O33   S    
C42   H43   S    
C81   H37   S    
C47   H53   S    
Cr1   O40   S    
C26   H68   S    
Cr11  O51   S    
Cr10  O25   S    
C6    O50   A    
C24   C33   A    
C88   C106  S    
C30   C47   S    
C29   H77   S    
C105  H22   S    
C87   C105  S    
Cr6   O16   S    
C1    O18   A    
C64   C73   A    
C80   H7    S    
C112  H30   S    
C89   C107  S    
C103  H39   S    
C64   C76   A    
C91   C118  A    
C68   O26   A    
C60   C117  S    
C39   C56   A    
C76   C77   A    
C7    O51   A    
C50   H55   S    
C26   C109  S    
C7    C63   S    
C48   O20   A    
C10   O7    A    
C1    C24   S    
C38   C60   A    
C7    O4    A    
Cr6   O38   S    
C122  O44   A    
C59   O21   A    
C12   C14   S    
Cr6   O11   S    
C3    O48   A    
C16   C23   S    
C75   H56   S    
C83   C100  A    
C42   C46   A    
C9    C119  S    
C12   C22   S    
Cr7   O43   S    
C65   O22   A    
C20   C92   S    
C26   H69   S    
C68   O30   A    
Cr2   O28   S    
Cr7   O39   S    
C14   H32   S    
Cr4   O13   S    
C44   H46   S    
C73   C82   S    
Cr11  O26   S    
C29   H76   S    
C115  O32   A    
C63   C77   A    
C61   C69   A    
C37   O15   A    
C105  C109  S    
C88   C93   A    
C8    O36   A    
C85   C89   A    
C40   C57   A    
Cr12  O27   S    
C21   C65   S    
C10   O38   A    
C107  C111  S    
Cr1   O36   S    
C9    O37   A    
C98   H11   S    
C84   C88   A    
Cr5   O37   S    
C72   C73   A    
Cr8   O45   S    
C11   O8    A    
C117  O34   A    
Cr2   O6    S    
Cr9   O49   S    
C47   C52   S    
C108  H21   S    
C84   C124  S    
C63   C72   A    
Cr5   O15   S    
C36   C58   A    
C33   C38   A    
Cr12  O52   S    
C21   C70   S    
C35   C57   A    
C27   H70   S    
C2    C48   S    
Cr10  O11   S    
C91   C109  S    
C4    O52   A    
C28   H74   S    
C19   H23   S    
C115  O12   A    
C72   C80   S    
C51   H50   S    
C98   C102  A    
Cr8   O9    S    
C12   C17   S    
C13   C45   A    
C5    C61   S    
C67   O29   A    
C16   H35   S    
Cr7   O13   S    
C55   H61   S    
C49   H52   S    
C66   O28   A    
C13   C37   S    
Cr3   O11   S    
C59   C114  S    
C49   C53   S    
C96   C100  A    
C31   C35   A    
Cr4   O30   S    
C80   C82   S    
C62   C71   A    
C105  H18   S    
C109  H27   S    
C17   C81   S    
Cr12  O5    S    
C17   C21   S    
C29   H79   S    
C23   C67   S    
C85   C102  A    
C18   H12   S    
C90   C108  S    
C40   H41   S    
C48   O16   A    
C108  C112  S    
C19   C23   S    
C40   C44   A    
C52   H62   S    
C6    O3    A    
C79   H4    S    
C27   H71   S    
C82   H2    S    
C106  H19   S    
C116  O33   A    
C41   C45   A    
C23   C92   S    
C62   C74   A    
C17   H1    S    
C93   C119  A    
Cr11  O48   S    
C50   H49   S    
C47   H51   S    
C10   C120  S    
C97   C101  A    
C8    O5    A    
Cr2   O2    S    
C102  H16   S    
C24   C46   A    
Cr1   O1    S    
