data_str_m9_o5_o16_f0_sra.sym.250
_audit_creation_date              2013-03-05T16:09:06-0500
_audit_creation_method            fapswitch 2.2
_symmetry_space_group_name_H-M    P1
_symmetry_Int_Tables_number       1
_space_group_crystal_system       triclinic
_cell_length_a                    18.226831
_cell_length_b                    7.095951
_cell_length_c                    13.006348
_cell_angle_alpha                 90.113176
_cell_angle_beta                  72.012538
_cell_angle_gamma                 90.00904
_cell_volume                      1599.97590151

loop_
_atom_site_label
_atom_site_type_symbol
_atom_site_description
_atom_site_fract_x
_atom_site_fract_y
_atom_site_fract_z
_atom_type_partial_charge
O1    O     O_R   0.453880 0.506200 0.150010 -0.589715
O2    O     O_R   0.546120 0.006200 0.849990 -0.578469
O3    O     O_R   0.604080 0.177770 0.007280 -0.591631
O4    O     O_R   0.395920 0.677770 0.992720 -0.597325
C1    C     C_R   0.635957 0.344521 0.001836 0.978831
C2    C     C_R   0.364039 0.844505 0.998158 0.979018
O5    O     O_R   0.458010 0.176640 0.159130 -0.572322
O6    O     O_R   0.541990 0.676640 0.840870 -0.585613
O7    O     O_R   0.399010 0.004010 0.002930 -0.590809
O8    O     O_R   0.600990 0.504010 0.997070 -0.595622
C3    C     C_R   0.443052 0.345374 0.201782 0.951547
C4    C     C_R   0.556912 0.844984 0.798191 0.951080
O9    O     O_3   0.480810 0.338440 0.948570 -0.270040
O10   O     O_3   0.519190 0.838440 0.051430 -0.271975
V1    V     V_3+5 0.503560 0.064490 0.009540 1.225518
V2    V     V_3+5 0.496440 0.564490 0.990460 1.210859
C5    C     C_R   0.580257 0.854824 0.500571 0.405441
C6    C     C_R   0.419791 0.358569 0.499312 0.405544
H1    H     H_    0.484476 0.849356 0.647900 0.158499
H2    H     H_    0.515512 0.356084 0.351918 0.160779
H3    H     H_    0.664343 0.810558 0.289355 0.178916
H4    H     H_    0.336115 0.412498 0.709731 0.177819
C7    C     C_R   0.592416 0.852276 0.681122 -0.137918
C8    C     C_R   0.407524 0.353806 0.318827 -0.138899
C9    C     C_R   0.953591 0.880690 0.384960 -0.176710
C10   C     C_R   0.046456 0.334421 0.615720 -0.177284
C11   C     C_R   0.921531 0.888941 0.496516 -0.094987
C12   C     C_R   0.078529 0.317270 0.504483 -0.094337
C13   C     C_R   0.841801 0.881257 0.543934 -0.187890
C14   C     C_R   0.158278 0.323310 0.456900 -0.187918
C15   C     C_R   0.791523 0.863129 0.480100 0.127916
C16   C     C_R   0.208556 0.348144 0.520228 0.127660
C17   C     C_R   0.825051 0.852690 0.365817 0.104253
C18   C     C_R   0.175098 0.365056 0.634247 0.103389
C19   C     C_R   0.709302 0.858245 0.525709 0.072657
C20   C     C_R   0.290729 0.353651 0.474403 0.072653
C21   C     C_R   0.662078 0.850437 0.456177 -0.004089
C22   C     C_R   0.338023 0.364985 0.543699 -0.004426
C23   C     C_R   0.697495 0.831667 0.344394 -0.123809
C24   C     C_R   0.302756 0.388748 0.655178 -0.122300
C25   C     C_R   0.777088 0.833974 0.300156 -0.240644
C26   C     C_R   0.223143 0.388497 0.699490 -0.238650
C27   C     C_R   0.672458 0.858466 0.638462 -0.230754
C28   C     C_R   0.327460 0.350016 0.361653 -0.231057
C29   C     C_R   0.546700 0.850681 0.612995 -0.126475
C30   C     C_R   0.453299 0.357802 0.386859 -0.126768
C31   C     C_R   0.906221 0.862525 0.319162 -0.158191
C32   C     C_R   0.093894 0.358022 0.681022 -0.157367
H5    H     H_    0.704102 0.858382 0.696019 0.108371
H6    H     H_    0.295703 0.347156 0.304233 0.108516
H7    H     H_    0.015651 0.890513 0.349588 0.107029
H8    H     H_    0.984339 0.327631 0.651249 0.107074
H9    H     H_    0.821729 0.892979 0.630654 0.114981
H10   H     H_    0.178418 0.304764 0.370553 0.114952
H11   H     H_    0.958746 0.904093 0.546792 0.127216
H12   H     H_    0.041293 0.297339 0.454609 0.127047
H13   H     H_    0.800738 0.820768 0.213201 0.137061
H14   H     H_    0.199541 0.406450 0.786178 0.135480
C33   C     C_1   0.216329 0.858763 0.000232 -0.243718
C34   C     C_1   0.783672 0.358764 0.999769 -0.243717
C35   C     C_1   0.283621 0.852565 0.999027 -0.233394
C36   C     C_1   0.716378 0.352600 0.000970 -0.233697
O11   O     O_R   0.899030 0.205490 0.002790 -0.587678
O12   O     O_R   0.100970 0.705490 0.997210 -0.590350
O13   O     O_R   0.042000 0.536370 0.840840 -0.593274
O14   O     O_R   0.958000 0.036370 0.159160 -0.591132
C37   C     C_R   0.057477 0.367967 0.798235 0.916389
C38   C     C_R   0.942472 0.868538 0.201800 0.916910
O15   O     O_R   0.895930 0.535070 0.992690 -0.594653
O16   O     O_R   0.104070 0.035070 0.007310 -0.592106
O17   O     O_R   0.953870 0.707520 0.150040 -0.592132
O18   O     O_R   0.046130 0.207520 0.849960 -0.589165
C39   C     C_R   0.864128 0.366750 0.998737 0.973194
C40   C     C_R   0.135875 0.866755 0.001267 0.974023
O19   O     O_3   0.019200 0.374340 0.051340 -0.281907
O20   O     O_3   0.980800 0.874340 0.948660 -0.281955
V3    V     V_3+5 0.996440 0.648350 0.990470 1.167659
V4    V     V_3+5 0.003560 0.148350 0.009530 1.171346
N1    N     N_R   0.530391 0.867644 0.433755 0.228041
O21   O     O_R   0.547097 0.982046 0.351737 -0.436729
O22   O     O_R   0.461460 0.795335 0.466815 -0.415762
N2    N     N_R   0.469587 0.346445 0.566244 0.227926
O23   O     O_R   0.452425 0.233747 0.649077 -0.434947
O24   O     O_R   0.538868 0.416613 0.532462 -0.415285

loop_
_geom_bond_atom_site_label_1
_geom_bond_atom_site_label_2
_geom_bond_distance
_ccdc_geom_bond_type
O14   C38   1.308264 A    
C7    C29   1.391250 A    
C11   C13   1.393469 A    
O12   V3    1.976066 S    
C34   C39   1.463461 S    
O15   V3    1.992507 S    
O1    C3    1.309819 A    
O2    C4    1.310136 A    
C26   H14   1.082791 S    
C2    O7    1.309629 A    
C12   H12   1.083028 S    
C23   C25   1.385804 A    
O5    C3    1.311392 A    
C14   H10   1.076177 S    
C4    C7    1.460001 S    
C16   C20   1.431340 A    
C2    C35   1.463445 S    
C19   C21   1.429114 A    
C5    C29   1.400306 A    
C11   H11   1.083012 S    
O16   V4    1.992691 S    
C3    C8    1.459866 S    
C5    N1    1.441439 S    
C7    C27   1.392241 A    
C34   C36   1.222603 T    
C37   O18   1.307142 A    
O18   V4    2.023479 S    
O13   C37   1.309796 A    
C18   C26   1.404622 A    
O16   C40   1.319257 A    
C15   C17   1.423701 A    
O15   C39   1.319372 A    
C14   C16   1.419453 A    
C19   C27   1.411869 A    
C9    C31   1.396543 A    
C10   C32   1.396439 A    
C24   C26   1.386113 A    
O6    V2    2.028866 S    
C6    C30   1.400183 A    
O14   V4    2.028846 S    
C33   C35   1.222575 T    
O13   V3    2.025933 S    
O20   V3    1.745819 S    
O4    C2    1.310341 A    
N1    O22   1.301423 A    
C27   H5    1.076911 S    
O11   C39   1.318348 A    
C16   C18   1.423469 A    
O4    V2    1.992720 S    
C9    H7    1.083840 S    
C10   H8    1.083821 S    
H3    C23   1.080139 S    
O6    C4    1.310864 A    
H4    C24   1.080496 S    
O1    V2    2.021933 S    
C5    C21   1.423565 A    
O2    V1    2.020305 S    
O19   V3    2.188287 S    
C33   C40   1.463416 S    
N2    O24   1.301367 A    
C17   C31   1.416894 A    
C15   C19   1.431779 A    
C20   C28   1.411698 A    
C18   C32   1.416770 A    
C20   C22   1.428783 A    
C31   C38   1.464842 S    
O17   V3    2.021830 S    
O3    V1    1.992533 S    
C28   H6    1.077103 S    
O20   V4    2.185391 S    
O3    C1    1.310500 A    
H1    C29   1.083739 S    
C9    C11   1.387847 A    
C10   C12   1.388057 A    
C17   C25   1.404219 A    
C12   C14   1.393633 A    
C6    C22   1.423055 A    
C25   H13   1.082682 S    
C1    O8    1.309869 A    
C21   C23   1.402800 A    
O8    V2    1.981044 S    
C22   C24   1.402630 A    
C13   H9    1.075982 S    
C38   O17   1.308628 A    
C8    C28   1.392332 A    
O5    V1    2.025950 S    
C6    N2    1.441293 S    
C1    C36   1.463489 S    
C32   C37   1.464347 S    
O7    V1    1.980837 S    
O19   V4    1.743762 S    
N1    O21   1.300930 A    
C13   C15   1.419548 A    
N2    O23   1.301253 A    
O9    V2    1.744482 S    
O12   C40   1.318066 A    
O10   V1    1.746542 S    
H2    C30   1.083618 S    
C8    C30   1.391300 A    
O11   V4    1.976259 S    
