data_str_m3_o41_o41_f0_fof.sym.134
_audit_creation_date              2012-12-10T16:39:29-0500
_audit_creation_method            fapswitch 2.2
_symmetry_space_group_name_H-M    P1
_symmetry_Int_Tables_number       1
_space_group_crystal_system       triclinic
_cell_length_a                    16.851916
_cell_length_b                    16.851928
_cell_length_c                    16.851966
_cell_angle_alpha                 67.366214
_cell_angle_beta                  67.365648
_cell_angle_gamma                 67.365484
_cell_volume                      3916.35335798

loop_
_atom_site_label
_atom_site_type_symbol
_atom_type_description
_atom_site_fract_x
_atom_site_fract_y
_atom_site_fract_z
_atom_type_partial_charge
C1    C     C_R   0.328582 0.942709 0.459258 -0.030797
C2    C     C_R   0.671417 0.057291 0.540742 -0.030797
C3    C     C_R   0.942717 0.459256 0.328579 -0.030800
C4    C     C_R   0.057286 0.540743 0.671420 -0.030801
C5    C     C_R   0.459259 0.328582 0.942708 -0.030795
C6    C     C_R   0.540740 0.671418 0.057292 -0.030795
C7    C     C_R   0.540741 0.057290 0.671419 -0.030796
C8    C     C_R   0.459259 0.942709 0.328581 -0.030796
C9    C     C_R   0.671417 0.540741 0.057292 -0.030796
C10   C     C_R   0.328583 0.459259 0.942708 -0.030796
C11   C     C_R   0.057290 0.671417 0.540743 -0.030801
C12   C     C_R   0.942713 0.328582 0.459255 -0.030801
C13   C     C_R   0.460035 0.971292 0.460035 -0.030818
C14   C     C_R   0.539965 0.028708 0.539965 -0.030818
C15   C     C_R   0.971297 0.460034 0.460032 -0.030818
C16   C     C_R   0.028710 0.539964 0.539965 -0.030817
C17   C     C_R   0.460035 0.460035 0.971291 -0.030819
C18   C     C_R   0.539964 0.539965 0.028709 -0.030819
C19   C     C_R   0.967584 0.178761 0.436208 0.974081
C20   C     C_R   0.032416 0.821239 0.563792 0.974080
C21   C     C_R   0.178761 0.436208 0.967582 0.974080
C22   C     C_R   0.821239 0.563791 0.032418 0.974082
C23   C     C_R   0.436208 0.967583 0.178761 0.974083
C24   C     C_R   0.563791 0.032417 0.821239 0.974083
C25   C     C_R   0.563791 0.821239 0.032418 0.974084
C26   C     C_R   0.436209 0.178761 0.967582 0.974084
C27   C     C_R   0.032415 0.563792 0.821240 0.974082
C28   C     C_R   0.967585 0.436207 0.178760 0.974082
C29   C     C_R   0.821239 0.032417 0.563792 0.974082
C30   C     C_R   0.178761 0.967583 0.436208 0.974081
C31   C     C_R   0.416276 0.951555 0.416275 0.004873
C32   C     C_R   0.583724 0.048445 0.583725 0.004873
C33   C     C_R   0.951561 0.416274 0.416273 0.004874
C34   C     C_R   0.048444 0.583725 0.583726 0.004875
C35   C     C_R   0.416276 0.416276 0.951554 0.004872
C36   C     C_R   0.583724 0.583724 0.048446 0.004872
C37   C     C_R   0.275477 0.954901 0.404096 -0.159516
C38   C     C_R   0.724523 0.045099 0.595904 -0.159516
C39   C     C_R   0.954906 0.404094 0.275475 -0.159523
C40   C     C_R   0.045095 0.595906 0.724525 -0.159524
C41   C     C_R   0.404097 0.275477 0.954900 -0.159514
C42   C     C_R   0.595904 0.724523 0.045100 -0.159514
C43   C     C_R   0.595904 0.045099 0.724524 -0.159516
C44   C     C_R   0.404096 0.954901 0.275476 -0.159516
C45   C     C_R   0.724523 0.595904 0.045101 -0.159516
C46   C     C_R   0.275477 0.404096 0.954899 -0.159516
C47   C     C_R   0.045096 0.724524 0.595906 -0.159522
C48   C     C_R   0.954905 0.275476 0.404093 -0.159521
C49   C     C_R   0.446876 0.067571 0.704044 0.238087
C50   C     C_R   0.553124 0.932428 0.295955 0.238087
C51   C     C_R   0.067576 0.704041 0.446879 0.238087
C52   C     C_R   0.932425 0.295959 0.553120 0.238089
C53   C     C_R   0.704043 0.446877 0.067573 0.238086
C54   C     C_R   0.295957 0.553123 0.932427 0.238087
C55   C     C_R   0.295957 0.932427 0.553122 0.238087
C56   C     C_R   0.704043 0.067573 0.446878 0.238087
C57   C     C_R   0.553124 0.295955 0.932427 0.238087
C58   C     C_R   0.446876 0.704044 0.067572 0.238087
C59   C     C_R   0.932437 0.553120 0.295954 0.238089
C60   C     C_R   0.067564 0.446880 0.704047 0.238088
C61   C     C_R   0.311861 0.974853 0.311861 0.201563
C62   C     C_R   0.688139 0.025147 0.688139 0.201562
C63   C     C_R   0.974856 0.311858 0.311858 0.201572
C64   C     C_R   0.025145 0.688141 0.688141 0.201572
C65   C     C_R   0.311861 0.311861 0.974852 0.201559
C66   C     C_R   0.688139 0.688139 0.025148 0.201559
C67   C     C_R   0.667596 0.034346 0.407584 0.043251
C68   C     C_R   0.332404 0.965653 0.592416 0.043251
C69   C     C_R   0.034336 0.407588 0.667600 0.043253
C70   C     C_R   0.965665 0.592412 0.332400 0.043250
C71   C     C_R   0.407583 0.667597 0.034346 0.043253
C72   C     C_R   0.592417 0.332403 0.965654 0.043254
C73   C     C_R   0.592417 0.965654 0.332403 0.043253
C74   C     C_R   0.407583 0.034345 0.667597 0.043252
C75   C     C_R   0.332403 0.592417 0.965653 0.043252
C76   C     C_R   0.667597 0.407583 0.034347 0.043253
C77   C     C_R   0.965649 0.332407 0.592416 0.043251
C78   C     C_R   0.034353 0.667593 0.407584 0.043253
C79   C     C_R   0.712497 0.018534 0.323085 -0.158623
C80   C     C_R   0.287502 0.981465 0.676915 -0.158622
C81   C     C_R   0.018516 0.323093 0.712504 -0.158619
C82   C     C_R   0.981477 0.676910 0.287500 -0.158622
C83   C     C_R   0.323084 0.712498 0.018533 -0.158625
C84   C     C_R   0.676915 0.287502 0.981466 -0.158625
C85   C     C_R   0.676915 0.981467 0.287502 -0.158622
C86   C     C_R   0.323085 0.018533 0.712498 -0.158620
C87   C     C_R   0.287502 0.676916 0.981465 -0.158624
C88   C     C_R   0.712498 0.323084 0.018534 -0.158625
C89   C     C_R   0.981451 0.287510 0.676919 -0.158619
C90   C     C_R   0.018542 0.712494 0.323086 -0.158622
C91   C     C_R   0.545353 0.984985 0.415204 0.022216
C92   C     C_R   0.454647 0.015014 0.584796 0.022216
C93   C     C_R   0.984985 0.415205 0.545352 0.022215
C94   C     C_R   0.015021 0.584793 0.454645 0.022217
C95   C     C_R   0.415205 0.545354 0.984985 0.022216
C96   C     C_R   0.584795 0.454646 0.015015 0.022216
C97   C     C_R   0.584795 0.015015 0.454647 0.022216
C98   C     C_R   0.415205 0.984985 0.545353 0.022216
C99   C     C_R   0.454646 0.584796 0.015015 0.022216
C100  C     C_R   0.545354 0.415204 0.984985 0.022216
C101  C     C_R   0.015012 0.454648 0.584796 0.022215
C102  C     C_R   0.984994 0.545350 0.415202 0.022217
H1    H     H_    0.285878 0.031109 0.777064 0.182115
H2    H     H_    0.714122 0.968890 0.222936 0.182115
H3    H     H_    0.031116 0.777060 0.285882 0.182115
H4    H     H_    0.968869 0.222947 0.714127 0.182117
H5    H     H_    0.777064 0.285878 0.031111 0.182114
H6    H     H_    0.222936 0.714122 0.968889 0.182115
H7    H     H_    0.222936 0.968889 0.714121 0.182115
H8    H     H_    0.777064 0.031111 0.285879 0.182115
H9    H     H_    0.714122 0.222935 0.968890 0.182114
H10   H     H_    0.285878 0.777065 0.031110 0.182114
H11   H     H_    0.968902 0.714117 0.222934 0.182112
H12   H     H_    0.031083 0.285890 0.777076 0.182106
O1    O     O_R   0.982940 0.138950 0.510160 -0.631472
O2    O     O_R   0.017060 0.861050 0.489840 -0.631472
O3    O     O_R   0.138950 0.510160 0.982940 -0.631472
O4    O     O_R   0.861050 0.489840 0.017060 -0.631473
O5    O     O_R   0.510160 0.982940 0.138950 -0.631473
O6    O     O_R   0.489840 0.017060 0.861050 -0.631473
O7    O     O_R   0.489840 0.861050 0.017060 -0.631473
O8    O     O_R   0.510160 0.138950 0.982940 -0.631473
O9    O     O_R   0.017060 0.489840 0.861050 -0.631474
O10   O     O_R   0.982940 0.510160 0.138950 -0.631473
O11   O     O_R   0.861050 0.017060 0.489840 -0.631472
O12   O     O_R   0.138950 0.982940 0.510160 -0.631472
O13   O     O_R   0.867700 0.025880 0.612340 -0.549700
O14   O     O_R   0.132300 0.974120 0.387660 -0.549700
O15   O     O_R   0.025880 0.612340 0.867700 -0.549699
O16   O     O_R   0.974120 0.387660 0.132300 -0.549699
O17   O     O_R   0.612340 0.867700 0.025880 -0.549700
O18   O     O_R   0.387660 0.132300 0.974120 -0.549700
O19   O     O_R   0.387660 0.974120 0.132300 -0.549699
O20   O     O_R   0.612340 0.025880 0.867700 -0.549699
O21   O     O_R   0.132300 0.387660 0.974120 -0.549701
O22   O     O_R   0.867700 0.612340 0.025880 -0.549701
O23   O     O_R   0.974120 0.132300 0.387660 -0.549699
O24   O     O_R   0.025880 0.867700 0.612340 -0.549699
Zn1   Zn    Zn3+2 0.004880 0.004880 0.583590 1.119352
Zn2   Zn    Zn3+2 0.995120 0.995120 0.416410 1.119351
Zn3   Zn    Zn3+2 0.004880 0.583590 0.004880 1.119352
Zn4   Zn    Zn3+2 0.995120 0.416410 0.995120 1.119351
Zn5   Zn    Zn3+2 0.583590 0.004880 0.004880 1.119351
Zn6   Zn    Zn3+2 0.416410 0.995120 0.995120 1.119352
Br1   Br    Br    0.235540 0.058640 0.235542 -0.330404
Br2   Br    Br    0.764460 0.941360 0.764458 -0.330404
Br3   Br    Br    0.058625 0.235534 0.235534 -0.330373
Br4   Br    Br    0.941375 0.764465 0.764465 -0.330375
Br5   Br    Br    0.235542 0.235544 0.058644 -0.330413
Br6   Br    Br    0.764458 0.764456 0.941355 -0.330413
Br7   Br    Br    0.368391 0.154550 0.769592 -0.411930
Br8   Br    Br    0.631608 0.845449 0.230408 -0.411931
Br9   Br    Br    0.154557 0.769585 0.368398 -0.411927
Br10  Br    Br    0.845442 0.230417 0.631600 -0.411931
Br11  Br    Br    0.769591 0.368393 0.154551 -0.411926
Br12  Br    Br    0.230409 0.631607 0.845449 -0.411927
Br13  Br    Br    0.230411 0.845448 0.631605 -0.411925
Br14  Br    Br    0.769589 0.154552 0.368395 -0.411924
Br15  Br    Br    0.631609 0.230407 0.845450 -0.411934
Br16  Br    Br    0.368391 0.769593 0.154550 -0.411932
Br17  Br    Br    0.845453 0.631606 0.230414 -0.411928
Br18  Br    Br    0.154546 0.368392 0.769588 -0.411926

loop_
_geom_bond_atom_site_label_1
_geom_bond_atom_site_label_2
_ccdc_geom_bond_type
O18   Zn6   S    
C83   C87   A    
C30   O12   A    
C68   C80   A    
C29   O11   A    
O5    Zn5   S    
C6    C58   A    
C11   C47   A    
O6    Zn6   S    
C12   C48   A    
C55   C68   A    
C75   C95   A    
C78   C90   A    
C9    C45   A    
C77   C89   A    
C17   C35   A    
C66   Br6   S    
C15   C33   A    
C23   O5    A    
C95   C99   A    
C58   C71   A    
C56   Br14  S    
C3    C33   A    
C10   C54   A    
C20   O24   A    
C96   C100  A    
C1    C31   A    
C18   C96   A    
C2    C32   A    
C74   C92   A    
C13   C98   A    
C61   Br1   S    
C21   O3    A    
C16   C34   A    
O20   Zn5   S    
C30   O14   A    
C87   H6    S    
C4    C40   A    
C80   H7    S    
C10   C46   A    
C9    C36   A    
C60   Br18  S    
C43   C62   A    
C10   C35   A    
C17   C95   A    
C7    C43   A    
C76   C88   A    
C1    C37   A    
C81   C89   A    
C57   Br15  S    
C3    C39   A    
C15   C102  A    
C64   Br4   S    
C65   Br5   S    
C82   H11   S    
O7    Zn6   S    
C52   Br10  S    
O13   Zn1   S    
O8    Zn5   S    
C70   C82   A    
C86   H1    S    
O17   Zn5   S    
C63   Br3   S    
C12   C52   A    
C14   C92   A    
C71   C83   A    
O21   Zn4   S    
O11   Zn2   S    
O23   Zn2   S    
C4    C34   A    
O12   Zn1   S    
C24   O6    A    
C84   H9    S    
C49   Br7   S    
C92   C98   A    
C8    C44   A    
C29   C38   S    
C67   C79   A    
C73   C91   A    
C46   C65   A    
C50   C73   A    
C93   C101  A    
C47   C64   A    
C20   O2    A    
C88   H5    S    
C23   O19   A    
C19   C48   S    
C48   C63   A    
C41   C65   A    
C28   C39   S    
C71   C99   A    
C91   C97   A    
C23   C44   S    
C30   C37   S    
C22   O22   A    
C81   H12   S    
O3    Zn3   S    
O22   Zn3   S    
C59   Br17  S    
C2    C38   A    
C19   O1    A    
C27   C40   S    
C19   O23   A    
C73   C85   A    
C4    C60   A    
C70   C102  A    
C74   C86   A    
C7    C49   A    
C72   C84   A    
C85   H2    S    
C69   C81   A    
C75   C87   A    
O1    Zn1   S    
C53   Br11  S    
C29   O13   A    
C62   Br2   S    
C27   O15   A    
C89   H4    S    
O10   Zn3   S    
C53   C76   A    
C9    C53   A    
C18   C99   A    
C52   C77   A    
C25   O17   A    
C8    C50   A    
C79   C85   A    
C26   O18   A    
C14   C97   A    
C21   C46   S    
C72   C100  A    
C24   O20   A    
C22   O4    A    
C5    C41   A    
C51   Br9   S    
O19   Zn6   S    
C27   O9    A    
C7    C32   A    
C79   H8    S    
C49   C74   A    
C8    C31   A    
C16   C94   A    
C13   C31   A    
C11   C34   A    
C84   C88   A    
C90   H3    S    
C14   C32   A    
O4    Zn4   S    
C40   C64   A    
C25   C42   S    
C15   C93   A    
C37   C61   A    
C28   O10   A    
C69   C101  A    
C44   C61   A    
C56   C67   A    
C39   C63   A    
C80   C86   A    
C82   C90   A    
C5    C57   A    
O14   Zn2   S    
C51   C78   A    
C58   Br16  S    
C76   C96   A    
C54   Br12  S    
C18   C36   A    
C60   C69   A    
C78   C94   A    
C5    C35   A    
O9    Zn4   S    
C77   C93   A    
C6    C36   A    
C28   O16   A    
C57   C72   A    
C1    C55   A    
O16   Zn4   S    
C17   C100  A    
C68   C98   A    
C20   C47   S    
C11   C51   A    
O24   Zn1   S    
C67   C97   A    
C59   C70   A    
C54   C75   A    
C50   Br8   S    
C16   C101  A    
C55   Br13  S    
C22   C45   S    
O15   Zn3   S    
C94   C102  A    
C6    C42   A    
C45   C66   A    
C42   C66   A    
C24   C43   S    
C83   H10   S    
C2    C56   A    
C26   O8    A    
O2    Zn2   S    
C12   C33   A    
C25   O7    A    
C21   O21   A    
C13   C91   A    
C26   C41   S    
C38   C62   A    
C3    C59   A    
