data_str_m4_o1_o15_f0_acs.sym.217
_audit_creation_date              2013-03-05T15:44:58-0500
_audit_creation_method            fapswitch 2.2
_symmetry_space_group_name_H-M    P1
_symmetry_Int_Tables_number       1
_space_group_crystal_system       triclinic
_cell_length_a                    10.89253
_cell_length_b                    10.955696
_cell_length_c                    18.900097
_cell_angle_alpha                 90.686219
_cell_angle_beta                  89.879021
_cell_angle_gamma                 119.491112
_cell_volume                      1963.05470026

loop_
_atom_site_label
_atom_site_type_symbol
_atom_site_description
_atom_site_fract_x
_atom_site_fract_y
_atom_site_fract_z
_atom_type_partial_charge
O1    O     O_R   0.766500 0.250040 0.579790 -0.510767
O2    O     O_R   0.798570 0.516780 0.574780 -0.511172
C1    C     C_R   0.867095 0.637881 0.604179 0.598848
O3    O     O_R   0.984000 0.732950 0.581090 -0.506557
O4    O     O_R   0.218600 0.700890 0.574760 -0.445669
C2    C     C_R   0.265563 0.629381 0.605539 0.584047
O5    O     O_R   0.249390 0.515350 0.579940 -0.531816
O6    O     O_R   0.982790 0.280900 0.573700 -0.520385
C3    C     C_R   0.863159 0.231472 0.603614 0.535232
O7    O     O_R   0.766600 0.251130 0.419260 -0.531870
O8    O     O_R   0.798660 0.517790 0.425980 -0.513386
C4    C     C_R   0.870067 0.635666 0.395426 0.576307
O9    O     O_R   0.984100 0.734040 0.420570 -0.467613
O10   O     O_R   0.218690 0.701900 0.425960 -0.524215
C5    C     C_R   0.264110 0.628793 0.394388 0.572498
O11   O     O_R   0.249490 0.516440 0.419420 -0.441821
O12   O     O_R   0.982880 0.281910 0.424890 -0.430153
C6    C     C_R   0.862723 0.230841 0.395150 0.605256
Cr1   Cr    Cr6+3 0.791660 0.390250 0.499930 1.047095
Cr2   Cr    Cr6+3 0.098520 0.708290 0.500540 1.082782
Cr3   Cr    Cr6+3 0.109770 0.401430 0.499480 1.091173
O13   O     O_3   0.999980 0.499990 0.499980 -0.299459
C7    C     C_R   0.307079 0.770751 0.717012 0.216785
C8    C     C_R   0.311066 0.773235 0.791297 -0.152705
H1    H     H_    0.304401 0.854908 0.820460 0.086144
C9    C     C_R   0.326418 0.671218 0.827532 -0.014993
C10   C     C_R   0.309794 0.552048 0.790901 -0.155766
H2    H     H_    0.314645 0.467233 0.817275 0.182063
C11   C     C_R   0.298250 0.544455 0.718671 -0.194183
H3    H     H_    0.287810 0.450913 0.692888 0.171230
C12   C     C_R   0.300639 0.654669 0.680591 0.052020
C13   C     C_R   0.783705 0.063844 0.811155 -0.029700
C14   C     C_R   0.986085 0.015139 0.795414 -0.093631
C15   C     C_R   0.073668 0.991587 0.750446 -0.092339
C16   C     C_R   0.070596 0.010248 0.678311 -0.091291
C17   C     C_R   0.986003 0.060911 0.651524 -0.076317
C18   C     C_R   0.903915 0.095054 0.697260 0.009757
C19   C     C_R   0.891211 0.057608 0.769478 -0.004318
H4    H     H_    0.141695 0.955486 0.772068 0.133577
H5    H     H_    0.135909 0.988219 0.643136 0.174884
H6    H     H_    0.999652 0.001774 0.849757 0.187738
C20   C     C_R   0.748776 0.193836 0.719634 0.002615
C21   C     C_R   0.696601 0.111233 0.778655 -0.006356
C22   C     C_R   0.707443 0.295914 0.708377 -0.119580
C23   C     C_R   0.591994 0.290997 0.742355 -0.040415
C24   C     C_R   0.516690 0.185246 0.789853 0.232531
C25   C     C_R   0.567970 0.094228 0.806956 -0.078729
C26   C     C_R   0.840026 0.172362 0.674106 -0.003038
H7    H     H_    0.986283 0.072656 0.594894 0.160359
H8    H     H_    0.510618 0.015868 0.845272 0.144842
H9    H     H_    0.559644 0.367489 0.730652 0.150387
H10   H     H_    0.765709 0.380944 0.673928 0.156645
C27   C     C_R   0.728893 0.663964 0.702300 0.211667
C28   C     C_R   0.708875 0.667265 0.775515 -0.125702
H11   H     H_    0.624682 0.683856 0.795265 0.111559
C29   C     C_R   0.802953 0.658353 0.823333 0.010366
C30   C     C_R   0.916210 0.644869 0.798815 -0.157919
H12   H     H_    0.991066 0.641617 0.835325 0.134685
C31   C     C_R   0.934634 0.638657 0.726615 -0.183791
H13   H     H_    0.020388 0.624174 0.707739 0.136783
C32   C     C_R   0.842069 0.648818 0.678547 0.068021
C33   C     C_R   0.246066 0.534880 0.273191 0.223430
C34   C     C_R   0.262292 0.556132 0.200779 -0.117480
H14   H     H_    0.223422 0.466208 0.165214 0.124315
C35   C     C_R   0.338606 0.691293 0.174258 0.010362
C36   C     C_R   0.388111 0.807978 0.220042 -0.163524
H15   H     H_    0.449751 0.913629 0.200318 0.156198
C37   C     C_R   0.364525 0.788291 0.292468 -0.194525
H16   H     H_    0.402037 0.878690 0.327517 0.148570
C38   C     C_R   0.297618 0.652235 0.319499 0.057438
C39   C     C_R   0.798336 0.258403 0.276353 -0.161984
H17   H     H_    0.760032 0.325773 0.297510 0.148531
C40   C     C_R   0.796140 0.240651 0.204053 -0.148767
H18   H     H_    0.750380 0.288291 0.171052 0.145820
C41   C     C_R   0.846148 0.156389 0.174965 -0.022754
C42   C     C_R   0.904678 0.094774 0.218669 -0.138793
H19   H     H_    0.940394 0.026309 0.196132 0.177130
C43   C     C_R   0.906212 0.110825 0.292163 0.200051
C44   C     C_R   0.850538 0.192287 0.320931 0.044561
C45   C     C_R   0.965870 0.705495 0.276850 -0.074740
H20   H     H_    0.070758 0.750293 0.299484 0.143456
C46   C     C_R   0.951702 0.710603 0.203989 0.236681
C47   C     C_R   0.815736 0.652728 0.174836 0.052910
C48   C     C_R   0.696216 0.580329 0.218081 -0.189908
H21   H     H_    0.590559 0.535404 0.196430 0.155387
C49   C     C_R   0.711798 0.575006 0.290798 -0.160675
H22   H     H_    0.619295 0.521645 0.323857 0.154093
C50   C     C_R   0.846699 0.643010 0.320489 0.019608
O14   O     O_R   0.895110 0.806860 0.920430 -0.547957
O15   O     O_R   0.872260 0.046970 0.925000 -0.511551
C51   C     C_R   0.765578 0.036269 0.888159 0.546831
O16   O     O_R   0.691430 0.085060 0.918550 -0.514291
O17   O     O_R   0.451490 0.822460 0.925250 -0.537445
C52   C     C_R   0.390863 0.698467 0.897767 0.538418
O18   O     O_R   0.413330 0.603360 0.920440 -0.511297
O19   O     O_R   0.676110 0.626250 0.926750 -0.489084
C53   C     C_R   0.795817 0.691240 0.896967 0.541127
O20   O     O_R   0.895350 0.809870 0.080950 -0.453628
O21   O     O_R   0.872490 0.049760 0.073800 -0.501431
C54   C     C_R   0.807885 0.105883 0.102839 0.560362
O22   O     O_R   0.691680 0.088070 0.079070 -0.509748
O23   O     O_R   0.451720 0.825250 0.074050 -0.494919
C55   C     C_R   0.395713 0.705966 0.103564 0.564140
O24   O     O_R   0.413580 0.606370 0.080960 -0.522517
O25   O     O_R   0.676340 0.629040 0.075550 -0.520201
C56   C     C_R   0.797843 0.694106 0.104293 0.581978
Cr4   Cr    Cr6+3 0.874790 0.925890 0.000070 1.035380
Cr5   Cr    Cr6+3 0.574120 0.948670 0.999300 1.019631
Cr6   Cr    Cr6+3 0.551420 0.625320 0.000920 1.035524
O26   O     O_3   0.666780 0.833290 0.000090 -0.281821
O27   O     O_3   0.307946 0.878415 0.679462 -0.688033
H23   H     H_    0.324510 0.955575 0.712599 0.322518
O28   O     O_3   0.398614 0.177553 0.821135 -0.721592
H24   H     H_    0.359680 0.099348 0.855205 0.308385
O29   O     O_3   0.643389 0.679469 0.653726 -0.691678
H25   H     H_    0.578605 0.703187 0.679587 0.326161
O30   O     O_3   0.180265 0.400366 0.299413 -0.661773
H26   H     H_    0.166518 0.333182 0.260567 0.326886
N1    N     N_R   0.961919 0.043020 0.336080 0.086626
O31   O     O_R   0.906077 0.993068 0.397318 -0.334355
O32   O     O_R   0.061972 0.021244 0.312596 -0.350602
O33   O     O_3   0.068531 0.775208 0.160790 -0.677481
H27   H     H_    0.154296 0.824179 0.190617 0.329804

loop_
_geom_bond_atom_site_label_1
_geom_bond_atom_site_label_2
_geom_bond_distance
_ccdc_geom_bond_type
C9    C52   1.460179 S    
C36   C37   1.391883 A    
C34   C35   1.392500 A    
O17   C52   1.285517 A    
C10   C11   1.368963 A    
C40   H18   1.084025 S    
O27   H23   0.988436 S    
C39   C44   1.407131 A    
O15   C51   1.310056 A    
O4    Cr2   1.949359 S    
C23   C24   1.380999 A    
O8    Cr1   1.962937 S    
C9    C10   1.400987 A    
O11   Cr3   2.083586 S    
C17   C18   1.415947 A    
C18   C19   1.416753 A    
C42   C43   1.397136 A    
O15   Cr4   1.963343 S    
O2    C1    1.278748 A    
O17   Cr5   1.948831 S    
O24   Cr6   2.068059 S    
C49   C50   1.394538 A    
C30   C31   1.384586 A    
C13   C51   1.482889 S    
C23   H9    1.082074 S    
C5    O11   1.258947 A    
C29   C30   1.390625 A    
C33   C38   1.413752 A    
C15   C16   1.383932 A    
C54   O22   1.264572 A    
C33   O30   1.380989 S    
C28   H11   1.083726 S    
C27   C32   1.395030 A    
O16   Cr5   2.088365 S    
O21   C54   1.261273 A    
C6    C44   1.447453 S    
C7    C8    1.404277 A    
O23   Cr5   1.965876 S    
C13   C19   1.438750 A    
O9    Cr2   2.069230 S    
C22   H10   1.060752 S    
O22   Cr5   2.067055 S    
C1    C32   1.445940 S    
C2    C12   1.457226 S    
C31   H13   1.080800 S    
Cr3   O13   1.966546 S    
C45   C50   1.402856 A    
C40   C41   1.390266 A    
O23   C55   1.273674 A    
C20   C22   1.414390 A    
C29   C53   1.444926 S    
C14   C15   1.390219 A    
C25   H8    1.066126 S    
C42   H19   1.083680 S    
N1    O32   1.301170 A    
C28   C29   1.407464 A    
C31   C32   1.403972 A    
O1    Cr1   2.086189 S    
C4    C50   1.449690 S    
C16   H5    1.081456 S    
C15   H4    1.079910 S    
O10   Cr2   1.945564 S    
Cr1   O13   1.976959 S    
O1    C3    1.252089 A    
C8    H1    1.077822 S    
C45   C46   1.390867 A    
O18   Cr6   2.068487 S    
C51   O16   1.297588 A    
C39   C40   1.376534 A    
C49   H22   1.083307 S    
O6    C3    1.272938 A    
O5    Cr3   2.068475 S    
O12   Cr3   1.947937 S    
O20   Cr4   2.081056 S    
O14   C53   1.269100 A    
C16   C17   1.387692 A    
C7    C12   1.409792 A    
C41   C42   1.408449 A    
C11   H3    1.083606 S    
C47   C48   1.409390 A    
O7    Cr1   2.063650 S    
N1    O31   1.301347 A    
O19   C53   1.271385 A    
O14   Cr4   2.061783 S    
C33   C34   1.387296 A    
O12   C6    1.271442 A    
C20   C26   1.416148 A    
C48   H21   1.083357 S    
C18   C26   1.408417 A    
Cr2   O13   1.986915 S    
C35   C36   1.403751 A    
Cr4   O26   1.974767 S    
C20   C21   1.378912 A    
C35   C55   1.449535 S    
C1    O3    1.264708 A    
C10   H2    1.083629 S    
O21   Cr4   1.942211 S    
C22   C23   1.388310 A    
O28   H24   0.991398 S    
O19   Cr6   1.946421 S    
C5    C38   1.454915 S    
O25   Cr6   1.948032 S    
C24   C25   1.402745 A    
C24   O28   1.379163 S    
O2    Cr1   1.944050 S    
C43   C44   1.407036 A    
C37   H16   1.083346 S    
C8    C9    1.396066 A    
C45   H20   1.083568 S    
O6    Cr3   1.965307 S    
O8    C4    1.277973 A    
C27   C28   1.403188 A    
C2    O5    1.262951 A    
C7    O27   1.379898 S    
O25   C56   1.272691 A    
C14   C19   1.416238 A    
O20   C56   1.271373 A    
C47   C56   1.457279 S    
C14   H6    1.060071 S    
C43   N1    1.438640 S    
C39   H17   1.083595 S    
C11   C12   1.402307 A    
O30   H26   0.991068 S    
C30   H12   1.083433 S    
O4    C2    1.273024 A    
O7    C6    1.256186 A    
C41   C54   1.447573 S    
C13   C21   1.429031 A    
Cr5   O26   1.968107 S    
C36   H15   1.083353 S    
C52   O18   1.261502 A    
C34   H14   1.084584 S    
O3    Cr2   2.064141 S    
C27   O29   1.379209 S    
C4    O9    1.265861 A    
C3    C26   1.454825 S    
C37   C38   1.400390 A    
C46   C47   1.403404 A    
C55   O24   1.268288 A    
O10   C5    1.272710 A    
C48   C49   1.390579 A    
O33   H27   0.989881 S    
Cr6   O26   1.988080 S    
C21   C25   1.423444 A    
C46   O33   1.381896 S    
C17   H7    1.079371 S    
O29   H25   0.990155 S    
