data_str_m9_o2_o17_f0_sra.sym.63
_audit_creation_date              2012-12-11T16:26:31-0500
_audit_creation_method            fapswitch 2.2
_symmetry_space_group_name_H-M    P1
_symmetry_Int_Tables_number       1
_space_group_crystal_system       triclinic
_cell_length_a                    6.937511
_cell_length_b                    17.575711
_cell_length_c                    19.425862
_cell_angle_alpha                 108.576885
_cell_angle_beta                  89.568861
_cell_angle_gamma                 90.573563
_cell_volume                      2245.0795623

loop_
_atom_site_label
_atom_site_type_symbol
_atom_type_description
_atom_site_fract_x
_atom_site_fract_y
_atom_site_fract_z
_atom_type_partial_charge
O1    O     O_R   0.494330 0.415720 0.413720 -0.536180
O2    O     O_R   0.819330 0.430070 0.560210 -0.547609
O3    O     O_R   0.994320 0.584280 0.586280 -0.535502
C1    C     C_R   0.649983 0.414191 0.581181 0.703722
O4    O     O_R   0.823730 0.406300 0.412670 -0.538118
O5    O     O_R   0.998760 0.560340 0.437690 -0.539119
C2    C     C_R   0.654932 0.383499 0.385011 0.698151
O6    O     O_R   0.489890 0.439660 0.562310 -0.539664
O7    O     O_3   0.662340 0.550560 0.508380 -0.368659
V1    V     V_3+5 0.935370 0.490620 0.498450 1.415130
O8    O     O_R   0.328750 0.569930 0.439790 -0.547097
C3    C     C_R   0.160753 0.585243 0.418315 0.705219
O9    O     O_R   0.324340 0.593700 0.587330 -0.538573
C4    C     C_R   0.155390 0.616313 0.615159 0.696933
V2    V     V_3+5 0.435940 0.509380 0.501550 1.414063
O10   O     O_3   0.159100 0.449440 0.491620 -0.368602
H1    H     H_    0.368163 0.865642 0.573917 0.114046
C5    C     C_R   0.020150 0.594124 0.749237 -0.188452
C6    C     C_R   0.953306 0.581652 0.812876 0.017133
C7    C     C_R   0.943410 0.645719 0.877144 -0.155711
C8    C     C_R   0.998976 0.722390 0.878271 -0.151673
C9    C     C_R   0.063951 0.737204 0.814466 0.071371
C10   C     C_R   0.075505 0.671755 0.748589 0.060733
C11   C     C_R   0.120559 0.815442 0.815950 -0.180819
C12   C     C_R   0.189009 0.828329 0.751507 0.069142
C13   C     C_R   0.201166 0.762923 0.685610 0.068233
C14   C     C_R   0.144833 0.684559 0.684107 -0.177413
C15   C     C_R   0.242274 0.906141 0.750913 -0.143976
C16   C     C_R   0.307286 0.919005 0.687479 -0.123823
C17   C     C_R   0.318936 0.855239 0.623201 -0.117819
C18   C     C_R   0.265785 0.778115 0.621869 -0.136587
H2    H     H_    0.029222 0.542452 0.700711 0.108999
H3    H     H_    0.893354 0.636379 0.926853 0.121020
H4    H     H_    0.991239 0.769621 0.929967 0.111188
H5    H     H_    0.232791 0.958079 0.799114 0.105562
H6    H     H_    0.347484 0.978926 0.688137 0.115013
H7    H     H_    0.274485 0.730940 0.570161 0.103562
C19   C     C_R   0.308465 0.634856 0.321994 -0.224590
C20   C     C_R   0.153386 0.634860 0.369185 -0.080418
C21   C     C_R   0.990202 0.681627 0.368473 -0.222016
C22   C     C_R   0.982033 0.728446 0.321880 0.089875
C23   C     C_R   0.136772 0.726950 0.273873 0.054496
C24   C     C_R   0.299937 0.679528 0.273618 0.088774
C25   C     C_R   0.821871 0.776822 0.322421 -0.188294
C26   C     C_R   0.813646 0.822443 0.275139 -0.192021
C27   C     C_R   0.965126 0.820350 0.226270 0.089771
C28   C     C_R   0.128281 0.772920 0.226009 0.054377
C29   C     C_R   0.283021 0.771425 0.178001 0.089021
C30   C     C_R   0.443173 0.723041 0.177455 -0.185052
C31   C     C_R   0.451407 0.677427 0.224743 -0.190047
C32   C     C_R   0.956623 0.865044 0.177913 -0.224504
C33   C     C_R   0.111705 0.865043 0.130725 -0.080511
C34   C     C_R   0.274867 0.818257 0.131419 -0.220703
H8    H     H_    0.434515 0.598942 0.321986 0.117689
H9    H     H_    0.870503 0.682408 0.404901 0.127399
H10   H     H_    0.702114 0.778986 0.359118 0.132928
H11   H     H_    0.687912 0.858988 0.276460 0.133575
H12   H     H_    0.830598 0.900978 0.177936 0.117611
H13   H     H_    0.394562 0.817477 0.094989 0.127828
H14   H     H_    0.562926 0.720874 0.140755 0.134330
H15   H     H_    0.577142 0.640884 0.223422 0.134577
C35   C     C_R   0.467493 0.184720 0.866750 -0.228782
C36   C     C_R   0.623386 0.134927 0.869287 -0.083415
C37   C     C_R   0.783165 0.131126 0.823243 -0.214267
C38   C     C_R   0.786341 0.175381 0.774379 0.092000
C39   C     C_R   0.629478 0.225275 0.772449 0.057975
C40   C     C_R   0.470165 0.230296 0.819178 0.084399
C41   C     C_R   0.943137 0.170393 0.727102 -0.186535
C42   C     C_R   0.945934 0.215268 0.679101 -0.190835
C43   C     C_R   0.791912 0.265869 0.677453 0.109914
C44   C     C_R   0.632106 0.270428 0.723865 0.079376
C45   C     C_R   0.475839 0.320756 0.722344 0.095508
C46   C     C_R   0.319009 0.325632 0.769488 -0.174601
C47   C     C_R   0.316069 0.280806 0.817467 -0.176071
C48   C     C_R   0.795845 0.312623 0.630815 -0.217080
C49   C     C_R   0.640840 0.363211 0.629073 -0.080290
C50   C     C_R   0.480248 0.366146 0.674483 -0.201636
H16   H     H_    0.344056 0.188448 0.902216 0.128291
H17   H     H_    0.903248 0.092522 0.824376 0.122603
H18   H     H_    0.064478 0.132216 0.727621 0.128884
H19   H     H_    0.069637 0.210952 0.643702 0.128843
H20   H     H_    0.919813 0.309482 0.595721 0.122391
H21   H     H_    0.360717 0.405218 0.673877 0.121279
H22   H     H_    0.198270 0.364009 0.769082 0.156478
H23   H     H_    0.192674 0.285423 0.853067 0.142559
H24   H     H_    0.848422 0.133788 0.426577 0.113856
C51   C     C_R   0.533022 0.406304 0.250817 -0.140770
C52   C     C_R   0.473019 0.419382 0.187259 -0.123849
C53   C     C_R   0.461495 0.355727 0.122880 -0.112864
C54   C     C_R   0.509775 0.278518 0.121576 -0.135194
C55   C     C_R   0.569243 0.263170 0.185440 0.068193
C56   C     C_R   0.581193 0.328429 0.251456 0.070932
C57   C     C_R   0.620346 0.184742 0.183994 -0.184632
C58   C     C_R   0.683407 0.171629 0.248623 0.070793
C59   C     C_R   0.695348 0.236888 0.314639 0.068985
C60   C     C_R   0.644278 0.315319 0.316082 -0.184627
C61   C     C_R   0.731584 0.093755 0.249262 -0.140004
C62   C     C_R   0.791570 0.080677 0.312823 -0.124744
C63   C     C_R   0.803074 0.144332 0.377204 -0.117928
C64   C     C_R   0.754796 0.221540 0.378507 -0.135757
H25   H     H_    0.542736 0.458054 0.299128 0.101784
H26   H     H_    0.436586 0.479350 0.187874 0.119170
H27   H     H_    0.416131 0.366273 0.073510 0.119659
H28   H     H_    0.501248 0.231374 0.069826 0.102400
H29   H     H_    0.721887 0.042004 0.200950 0.101418
H30   H     H_    0.828006 0.020709 0.312207 0.117587
H31   H     H_    0.763306 0.268683 0.430257 0.100305
O11   O     O_R   0.775200 0.060470 0.937800 -0.539010
O12   O     O_R   0.441110 0.093720 0.087350 -0.537998
O13   O     O_R   0.266330 0.939630 0.062280 -0.539109
C65   C     C_R   0.609848 0.116571 0.115053 0.699388
O14   O     O_R   0.445750 0.069950 0.939820 -0.548678
O15   O     O_R   0.271000 0.915700 0.913700 -0.535836
C66   C     C_R   0.614981 0.085317 0.918394 0.706062
O16   O     O_R   0.770530 0.084400 0.086380 -0.535984
O17   O     O_3   0.602830 0.949510 0.991680 -0.368773
V3    V     V_3+5 0.329710 0.009370 0.001550 1.414149
O18   O     O_R   0.940990 0.906170 0.912570 -0.539020
C67   C     C_R   0.109983 0.883670 0.884813 0.694824
O19   O     O_R   0.936350 0.929940 0.060100 -0.547035
C68   C     C_R   0.104344 0.914676 0.081612 0.705386
V4    V     V_3+5 0.829160 0.990450 0.998310 1.414843
O20   O     O_3   0.105910 0.050480 0.008320 -0.368182
C69   C     C_1   0.895373 0.502693 0.812619 0.269675
N1    N     N_1   0.848432 0.439464 0.812924 -0.364326

loop_
_geom_bond_atom_site_label_1
_geom_bond_atom_site_label_2
_ccdc_geom_bond_type
C41   H18   S    
C51   C52   A    
C22   C23   A    
C57   C58   A    
C46   C47   A    
C59   C60   A    
C1    O6    A    
O14   C66   A    
C61   C62   A    
C34   H13   S    
O12   V3    S    
C26   C27   A    
O19   C68   A    
C12   C15   A    
C2    C60   S    
C16   H6    S    
C26   H11   S    
C13   C14   A    
C35   C36   A    
C30   H14   S    
O17   V4    S    
C35   C40   A    
C8    C9    A    
C15   C16   A    
O12   C65   A    
O13   C68   A    
O5    C3    A    
C17   C18   A    
C50   H21   S    
V2    O10   S    
C56   C60   A    
O17   V3    S    
C5    C6    A    
O18   V4    S    
O11   C66   A    
O18   C67   A    
C45   C50   A    
C51   H25   S    
C36   C66   S    
O8    V2    S    
C39   C44   A    
C15   H5    S    
C41   C42   A    
C11   C67   S    
C43   C44   A    
O1    V2    S    
C10   C14   A    
C4    C14   S    
O7    V1    S    
C46   H22   S    
C61   H29   S    
C52   C53   A    
C38   C41   A    
C39   C40   A    
C13   C18   A    
O16   V4    S    
O15   C67   A    
O9    C4    A    
C53   H27   S    
H1    C17   S    
C42   C43   A    
O13   V3    S    
O19   V4    S    
C29   C34   A    
C6    C69   S    
C32   C33   A    
C19   C20   A    
C49   C50   A    
C20   C21   A    
C32   H12   S    
C59   C64   A    
C8    H4    S    
C58   C61   A    
C12   C13   A    
C27   C32   A    
C18   H7    S    
O2    C1    A    
C48   C49   A    
C16   C17   A    
C55   C57   A    
C33   C68   S    
C25   H10   S    
C28   C29   A    
C19   H8    S    
C21   H9    S    
C24   C31   A    
C40   C47   A    
C11   C12   A    
H24   C63   S    
C54   H28   S    
O3    C4    A    
C57   C65   S    
O15   V3    S    
C7    H3    S    
C21   C22   A    
C62   C63   A    
O6    V2    S    
O9    V2    S    
C37   H17   S    
C9    C11   A    
C5    H2    S    
C23   C24   A    
O2    V1    S    
C55   C56   A    
C33   C34   A    
O4    C2    A    
C27   C28   A    
C29   C30   A    
C64   H31   S    
O1    C2    A    
C35   H16   S    
C25   C26   A    
O11   V4    S    
C45   C46   A    
O5    V1    S    
C52   H26   S    
O8    C3    A    
C48   H20   S    
C62   H30   S    
C63   C64   A    
C37   C38   A    
C6    C7    A    
V3    O20   S    
O4    V1    S    
O3    V1    S    
V1    O10   S    
C54   C55   A    
O14   V3    S    
C3    C20   S    
C5    C10   A    
C22   C25   A    
C23   C28   A    
C38   C39   A    
C47   H23   S    
O7    V2    S    
C58   C59   A    
C1    C49   S    
C42   H19   S    
C36   C37   A    
C19   C24   A    
C44   C45   A    
C7    C8    A    
C30   C31   A    
C43   C48   A    
V4    O20   S    
C31   H15   S    
C9    C10   A    
C65   O16   A    
C53   C54   A    
C51   C56   A    
C69   N1    T    
