data_str_m9_o18_o20_f0_sra.sym.53
_audit_creation_date              2012-12-11T15:28:41-0500
_audit_creation_method            fapswitch 2.2
_symmetry_space_group_name_H-M    P1
_symmetry_Int_Tables_number       1
_space_group_crystal_system       triclinic
_cell_length_a                    6.957143
_cell_length_b                    19.61696
_cell_length_c                    23.332514
_cell_angle_alpha                 95.993051
_cell_angle_beta                  91.097211
_cell_angle_gamma                 88.684878
_cell_volume                      3165.68709061

loop_
_atom_site_label
_atom_site_type_symbol
_atom_type_description
_atom_site_fract_x
_atom_site_fract_y
_atom_site_fract_z
_atom_type_partial_charge
O1    O     O_R   0.617180 0.809390 0.808140 -0.512545
O2    O     O_R   0.382820 0.190610 0.191860 -0.512545
O3    O     O_R   0.293300 0.672410 0.795490 -0.539738
O4    O     O_R   0.706700 0.327590 0.204510 -0.539738
O5    O     O_R   0.117220 0.690610 0.691850 -0.523779
O6    O     O_R   0.882780 0.309390 0.308150 -0.523779
C1    C     C_R   0.464846 0.647258 0.804705 0.696859
C2    C     C_R   0.535154 0.352742 0.195295 0.696860
O7    O     O_R   0.287840 0.807750 0.814460 -0.527273
O8    O     O_R   0.712160 0.192250 0.185540 -0.527273
O9    O     O_R   0.111720 0.826910 0.710960 -0.538590
O10   O     O_R   0.888280 0.173090 0.289040 -0.538590
C3    C     C_R   0.456398 0.830809 0.833147 0.725245
C4    C     C_R   0.543601 0.169190 0.166853 0.725244
O11   O     O_R   0.622680 0.673080 0.789040 -0.537252
O12   O     O_R   0.377320 0.326920 0.210960 -0.537252
O13   O     O_3   0.448820 0.756130 0.716020 -0.360031
O14   O     O_3   0.551180 0.243870 0.283980 -0.360031
V1    V     V_3+5 0.176220 0.748860 0.756300 1.410964
V2    V     V_3+5 0.823780 0.251140 0.243700 1.410964
O15   O     O_R   0.781670 0.827580 0.704500 -0.526815
O16   O     O_R   0.218330 0.172420 0.295500 -0.526815
C5    C     C_R   0.948190 0.851765 0.694146 0.764413
C6    C     C_R   0.051810 0.148235 0.305854 0.764413
O17   O     O_R   0.787130 0.692240 0.685530 -0.529946
O18   O     O_R   0.212870 0.307760 0.314470 -0.529946
C7    C     C_R   0.956099 0.669153 0.666844 0.697503
C8    C     C_R   0.043901 0.330847 0.333156 0.697503
V3    V     V_3+5 0.675510 0.751130 0.743690 1.433835
V4    V     V_3+5 0.324490 0.248870 0.256310 1.433835
O19   O     O_3   0.952780 0.743870 0.783980 -0.358808
O20   O     O_3   0.047220 0.256130 0.216020 -0.358808
C9    C     C_1   0.966432 0.617087 0.614795 -0.217269
C10   C     C_1   0.033568 0.382913 0.385205 -0.217269
C11   C     C_1   0.977704 0.573617 0.571942 -0.012812
C12   C     C_1   0.022296 0.426383 0.428058 -0.012812
C13   C     C_1   0.993201 0.521848 0.521319 -0.010504
C14   C     C_1   0.006799 0.478152 0.478681 -0.010504
C15   C     C_R   0.949818 0.914339 0.664137 -0.143806
C16   C     C_R   0.050182 0.085661 0.335863 -0.143806
C17   C     C_R   0.904968 0.037276 0.666491 -0.240002
C18   C     C_R   0.095033 0.962724 0.333509 -0.240003
C19   C     C_R   0.914240 0.978271 0.695269 0.451595
C20   C     C_R   0.085761 0.021729 0.304731 0.451595
C21   C     C_R   0.982523 0.910265 0.604547 -0.296322
C22   C     C_R   0.017476 0.089735 0.395453 -0.296322
C23   C     C_R   0.976081 0.969958 0.574491 0.095397
C24   C     C_R   0.023918 0.030042 0.425509 0.095397
C25   C     C_R   0.935727 0.033728 0.606975 0.074477
C26   C     C_R   0.064273 0.966272 0.393025 0.074477
C27   C     C_R   0.005978 0.968718 0.513545 0.072206
C28   C     C_R   0.994021 0.031282 0.486455 0.072206
C29   C     C_R   0.952605 0.092915 0.521219 -0.185342
C30   C     C_R   0.047394 0.907084 0.478781 -0.185342
C31   C     C_R   0.924630 0.093899 0.580035 -0.178023
C32   C     C_R   0.075369 0.906101 0.419965 -0.178022
H1    H     H_    0.893218 0.142644 0.604800 0.122283
H2    H     H_    0.106782 0.857356 0.395200 0.122283
H3    H     H_    0.990653 0.140271 0.416916 0.115905
H4    H     H_    0.009346 0.859729 0.583084 0.115904
H5    H     H_    0.872560 0.086120 0.690959 0.130001
H6    H     H_    0.127441 0.913879 0.309041 0.130001
H7    H     H_    0.940170 0.141836 0.504312 0.121569
H8    H     H_    0.059830 0.858164 0.495688 0.121569
C33   C     C_R   0.485291 0.583781 0.833717 -0.068845
C34   C     C_R   0.514709 0.416219 0.166283 -0.068845
C35   C     C_R   0.591308 0.465067 0.833316 -0.188922
C36   C     C_R   0.408691 0.534933 0.166684 -0.188922
C37   C     C_R   0.555198 0.522359 0.803363 0.078915
C38   C     C_R   0.444801 0.477640 0.196637 0.078916
C39   C     C_R   0.454186 0.586419 0.893383 -0.246446
C40   C     C_R   0.545814 0.413581 0.106616 -0.246445
C41   C     C_R   0.495970 0.528955 0.924546 0.085414
C42   C     C_R   0.504030 0.471045 0.075454 0.085414
C43   C     C_R   0.564468 0.467981 0.892906 0.115812
C44   C     C_R   0.435532 0.532019 0.107094 0.115812
C45   C     C_R   0.475759 0.530031 0.985899 0.063655
C46   C     C_R   0.524241 0.469969 0.014101 0.063656
C47   C     C_R   0.590255 0.410812 0.979950 -0.186629
C48   C     C_R   0.409745 0.589188 0.020050 -0.186629
C49   C     C_R   0.609262 0.410015 0.920812 -0.193895
C50   C     C_R   0.390738 0.589985 0.079188 -0.193895
H9    H     H_    0.661585 0.363298 0.896599 0.123359
H10   H     H_    0.338415 0.636702 0.103401 0.123359
H11   H     H_    0.596202 0.365110 0.085688 0.104514
H12   H     H_    0.403798 0.634890 0.914312 0.104514
H13   H     H_    0.644087 0.417800 0.810025 0.109937
H14   H     H_    0.355912 0.582200 0.189975 0.109937
H15   H     H_    0.629600 0.363800 0.997575 0.123087
H16   H     H_    0.370399 0.636200 0.002425 0.123087
C51   C     C_1   0.466934 0.882920 0.885174 -0.208734
C52   C     C_1   0.533066 0.117080 0.114826 -0.208734
C53   C     C_1   0.478397 0.926431 0.928000 0.000624
C54   C     C_1   0.521603 0.073569 0.072000 0.000624
C55   C     C_1   0.493482 0.978173 0.978656 -0.003432
C56   C     C_1   0.506518 0.021826 0.021344 -0.003432
O21   O     O_3   0.124121 0.017349 0.246532 -0.558657
C57   C     C_3   0.953826 0.999313 0.215446 -0.251975
H17   H     H_    0.836352 0.037966 0.225615 0.135411
H18   H     H_    0.906731 0.947415 0.223639 0.136590
H19   H     H_    0.982638 0.997906 0.168734 0.168334
O22   O     O_3   0.875881 0.982651 0.753468 -0.558657
C58   C     C_3   0.046177 0.000687 0.784554 -0.251975
H20   H     H_    0.093273 0.052584 0.776360 0.136590
H21   H     H_    0.163649 0.962033 0.774385 0.135412
H22   H     H_    0.017365 0.002095 0.831266 0.168334
C59   C     C_3   0.403732 0.483357 0.260618 -0.378527
C60   C     C_3   0.589819 0.487151 0.296994 -0.314299
C61   C     C_3   0.546424 0.491444 0.361158 -0.742018
H23   H     H_    0.452657 0.536845 0.374033 0.226239
H24   H     H_    0.473929 0.444311 0.371151 0.231951
H25   H     H_    0.682631 0.496483 0.386585 0.223428
H26   H     H_    0.682906 0.441215 0.285544 0.195489
H27   H     H_    0.670183 0.533280 0.288460 0.194968
H28   H     H_    0.314868 0.530207 0.273224 0.169712
H29   H     H_    0.316817 0.439540 0.270715 0.181541
C62   C     C_3   0.596268 0.516643 0.739382 -0.378528
C63   C     C_3   0.410180 0.512849 0.703006 -0.314298
C64   C     C_3   0.453575 0.508556 0.638841 -0.742017
H30   H     H_    0.526070 0.555689 0.628849 0.231951
H31   H     H_    0.547344 0.463155 0.625967 0.226238
H32   H     H_    0.317369 0.503516 0.613415 0.223428
H33   H     H_    0.329817 0.466720 0.711540 0.194968
H34   H     H_    0.317093 0.558784 0.714456 0.195489
H35   H     H_    0.683182 0.560460 0.729285 0.181541
H36   H     H_    0.685132 0.469792 0.726776 0.169712

loop_
_geom_bond_atom_site_label_1
_geom_bond_atom_site_label_2
_ccdc_geom_bond_type
C21   H4    S    
C2    C34   S    
O6    C8    A    
C22   H3    S    
O13   V3    S    
C55   C56   T    
C17   H5    S    
O4    C2    A    
V1    O19   S    
O21   C57   S    
C23   C25   A    
C45   C46   A    
C7    C9    S    
C16   C22   A    
O9    V1    S    
C42   C44   A    
C11   C13   S    
O3    C1    A    
C38   C59   S    
C61   H24   S    
C9    C11   T    
C33   C37   A    
C45   C48   A    
C1    C33   S    
O12   V4    S    
C60   C61   S    
O9    C5    A    
O7    C3    A    
C63   C64   S    
O13   V1    S    
O5    C7    A    
O15   C5    A    
O7    V1    S    
C34   C40   A    
O8    V2    S    
C37   C62   S    
C59   C60   S    
O3    V1    S    
O14   V4    S    
C62   H36   S    
C18   H6    S    
C10   C12   T    
C15   C21   A    
C21   C23   A    
C8    C10   S    
C53   C55   S    
C3    C51   S    
C17   C19   A    
C18   C20   A    
C17   C25   A    
C49   H9    S    
O11   V3    S    
C30   C32   A    
C29   C31   A    
C40   H11   S    
O17   V3    S    
C22   C24   A    
C27   C28   A    
C48   C50   A    
O8    C4    A    
C61   H25   S    
C44   C50   A    
C39   C41   A    
C46   C47   A    
C43   C49   A    
C15   C19   A    
C1    O11   A    
C25   C31   A    
O15   V3    S    
C26   C32   A    
C35   C37   A    
C60   H26   S    
C60   H27   S    
C13   C14   T    
C51   C53   T    
C39   H12   S    
C20   O21   S    
C24   C28   A    
C59   H28   S    
O10   V2    S    
O1    V3    S    
C58   H21   S    
C63   H34   S    
C36   C44   A    
C54   C56   S    
C4    C52   S    
C64   H31   S    
C18   C26   A    
C40   C42   A    
O18   V4    S    
C50   H10   S    
C31   H1    S    
C36   H14   S    
O16   C6    A    
O1    C3    A    
C41   C43   A    
C28   C29   A    
C47   C49   A    
V2    O20   S    
C64   H32   S    
O16   V4    S    
C35   H13   S    
C23   C27   A    
C64   H30   S    
O5    V1    S    
O17   C7    A    
C57   H19   S    
O6    V2    S    
O10   C6    A    
O18   C8    A    
O2    V4    S    
C27   C30   A    
C12   C14   S    
C19   O22   S    
V3    O19   S    
C33   C39   A    
C62   C63   S    
V4    O20   S    
C29   H7    S    
C52   C54   T    
C34   C38   A    
C30   H8    S    
C5    C15   S    
C24   C26   A    
C6    C16   S    
C32   H2    S    
C58   H22   S    
O14   V2    S    
C63   H33   S    
C48   H16   S    
O22   C58   S    
O2    C4    A    
C57   H18   S    
C59   H29   S    
C47   H15   S    
O4    V2    S    
C16   C20   A    
C35   C43   A    
C2    O12   A    
C57   H17   S    
C42   C46   A    
C58   H20   S    
C36   C38   A    
C41   C45   A    
C61   H23   S    
C62   H35   S    
