data_str_m4_o4_o14_f0_acs.sym.83
_audit_creation_date              2012-12-11T15:43:16-0500
_audit_creation_method            fapswitch 2.2
_symmetry_space_group_name_H-M    P1
_symmetry_Int_Tables_number       1
_space_group_crystal_system       triclinic
_cell_length_a                    19.370265
_cell_length_b                    11.089398
_cell_length_c                    18.862846
_cell_angle_alpha                 89.270933
_cell_angle_beta                  90.505995
_cell_angle_gamma                 89.916614
_cell_volume                      4051.33468084

loop_
_atom_site_label
_atom_site_type_symbol
_atom_type_description
_atom_site_fract_x
_atom_site_fract_y
_atom_site_fract_z
_atom_type_partial_charge
C1    C     C_R   0.730247 0.378257 0.146834 0.557020
C2    C     C_R   0.271450 0.375696 0.854358 0.536669
C3    C     C_R   0.230245 0.878252 0.146832 0.559402
C4    C     C_R   0.771452 0.875692 0.854360 0.535688
C5    C     C_R   0.524477 0.369274 0.912119 -0.048385
C6    C     C_R   0.544463 0.389487 0.055047 -0.086846
C7    C     C_R   0.024471 0.869280 0.912124 -0.048400
C8    C     C_R   0.044462 0.889488 0.055051 -0.087010
C9    C     C_R   0.021147 0.981448 0.941256 -0.062415
C10   C     C_R   0.037787 0.991395 0.012217 -0.111471
C11   C     C_R   0.521149 0.481443 0.941250 -0.062234
C12   C     C_R   0.537786 0.491393 0.012212 -0.111711
C13   C     C_R   0.762672 0.905853 0.928534 -0.011054
C14   C     C_R   0.254209 0.932788 0.080651 -0.020390
C15   C     C_R   0.262670 0.405859 0.928531 -0.011295
C16   C     C_R   0.754211 0.432802 0.080657 -0.021162
C17   C     C_R   0.706281 0.968394 0.955351 -0.010716
C18   C     C_R   0.310382 0.887648 0.042721 -0.051072
C19   C     C_R   0.206278 0.468397 0.955348 -0.010151
C20   C     C_R   0.810386 0.387668 0.042730 -0.051319
C21   C     C_R   0.698248 0.971915 0.027816 -0.001102
C22   C     C_R   0.314978 0.903721 0.969762 -0.016857
C23   C     C_R   0.198245 0.471918 0.027814 -0.001809
C24   C     C_R   0.814983 0.403735 0.969770 -0.016637
C25   C     C_R   0.812641 0.900506 0.048635 0.236471
C26   C     C_R   0.208455 0.013510 0.971048 0.242748
C27   C     C_R   0.312640 0.400515 0.048630 0.237079
C28   C     C_R   0.708456 0.513516 0.971051 0.242831
C29   C     C_R   0.818448 0.879613 0.975596 -0.119493
C30   C     C_R   0.209131 0.010983 0.044761 -0.113496
C31   C     C_R   0.318446 0.379621 0.975592 -0.119926
C32   C     C_R   0.709132 0.510992 0.044764 -0.113740
C33   C     C_3   0.629921 0.958903 0.944913 -0.232014
C34   C     C_3   0.341345 0.765099 0.040051 -0.198666
C35   C     C_3   0.129917 0.458904 0.944912 -0.231148
C36   C     C_3   0.841352 0.265120 0.040068 -0.198627
C37   C     C_3   0.624100 0.943770 0.025515 0.145589
C38   C     C_3   0.349386 0.784186 0.960795 0.144826
C39   C     C_3   0.124097 0.443774 0.025514 0.144743
C40   C     C_3   0.849391 0.284197 0.960813 0.145176
C41   C     C_R   0.748542 0.933166 0.075681 0.063339
C42   C     C_R   0.259523 0.954711 0.932095 0.074524
C43   C     C_R   0.248541 0.433172 0.075679 0.063489
C44   C     C_R   0.759526 0.454718 0.932099 0.074607
C45   C     C_R   0.532926 0.157621 0.146288 0.550394
C46   C     C_R   0.465397 0.153648 0.854123 0.535895
C47   C     C_R   0.032924 0.657622 0.146289 0.546345
C48   C     C_R   0.965395 0.653649 0.854124 0.538702
C49   C     C_R   0.502663 0.163233 0.578711 -0.007355
C50   C     C_R   0.521199 0.163178 0.430880 0.047078
C51   C     C_R   0.981704 0.663446 0.570285 0.053542
C52   C     C_R   0.001407 0.668505 0.422654 -0.006221
C53   C     C_R   0.514461 0.055761 0.542268 0.024971
C54   C     C_R   0.523436 0.056380 0.470266 -0.008201
C55   C     C_R   0.961814 0.566527 0.527897 0.003834
C56   C     C_R   0.972004 0.568272 0.455765 0.024434
C57   C     C_R   0.521759 0.272925 0.468020 -0.162748
C58   C     C_R   0.513038 0.272900 0.542033 -0.169835
C59   C     C_R   0.012896 0.772880 0.463265 -0.164366
C60   C     C_R   0.003801 0.769937 0.536935 -0.163826
C61   C     C_3   0.473667 0.940921 0.539030 0.267409
C62   C     C_3   0.484522 0.942022 0.459806 0.255457
C63   C     C_3   0.981766 0.436679 0.534646 0.263242
C64   C     C_3   0.993541 0.438721 0.455642 0.270130
C65   C     C_R   0.760610 0.901428 0.572029 0.014107
C66   C     C_R   0.235821 0.886303 0.431384 0.040373
C67   C     C_R   0.250931 0.429066 0.579166 0.020884
C68   C     C_R   0.737050 0.392151 0.430364 0.024194
C69   C     C_R   0.819378 0.915166 0.530272 0.040584
C70   C     C_R   0.180703 0.934535 0.468668 0.015677
C71   C     C_R   0.297587 0.502737 0.542328 0.020367
C72   C     C_R   0.681727 0.439980 0.467716 0.026314
C73   C     C_R   0.815589 0.920847 0.457670 0.015537
C74   C     C_R   0.183388 0.946575 0.540950 0.016558
C75   C     C_R   0.295057 0.510754 0.469763 0.029321
C76   C     C_R   0.683864 0.450768 0.540032 0.015465
C77   C     C_R   0.692838 0.885505 0.464276 -0.164531
C78   C     C_R   0.292278 0.841783 0.544726 -0.156293
C79   C     C_R   0.193245 0.387393 0.467363 -0.157960
C80   C     C_R   0.792689 0.346340 0.543911 -0.164575
C81   C     C_R   0.697422 0.878677 0.538245 -0.175942
C82   C     C_R   0.289120 0.829534 0.470651 -0.101212
C83   C     C_R   0.194722 0.381145 0.541567 -0.119812
C84   C     C_R   0.790309 0.336083 0.469782 -0.137188
C85   C     C_3   0.875410 0.007033 0.534079 -0.257582
C86   C     C_3   0.143842 0.051246 0.456969 -0.265206
C87   C     C_3   0.375084 0.504377 0.542254 -0.266183
C88   C     C_3   0.643639 0.555726 0.456651 -0.267505
C89   C     C_R   0.741084 0.970657 0.148143 0.580782
C90   C     C_R   0.261387 0.977159 0.855431 0.580702
C91   C     C_R   0.241083 0.470660 0.148141 0.582224
C92   C     C_R   0.761389 0.477164 0.855434 0.580848
C93   C     C_3   0.873649 0.009838 0.453883 -0.252377
C94   C     C_3   0.146584 0.065239 0.536445 -0.254090
C95   C     C_3   0.371607 0.512571 0.462358 -0.275082
C96   C     C_3   0.645250 0.567919 0.536449 -0.244800
C97   C     C_R   0.751339 0.917015 0.423719 0.016548
C98   C     C_R   0.242518 0.912134 0.579315 0.014801
C99   C     C_R   0.246396 0.446709 0.430659 0.017306
C100  C     C_R   0.742693 0.415343 0.578619 0.018533
C101  C     C_R   0.727127 0.371593 0.354820 0.559457
C102  C     C_R   0.270580 0.379179 0.648034 0.548585
C103  C     C_R   0.226421 0.869306 0.355489 0.570745
C104  C     C_R   0.771699 0.875904 0.646650 0.546044
C105  C     C_R   0.537067 0.156386 0.355774 0.589699
C106  C     C_R   0.467607 0.157022 0.646874 0.545383
C107  C     C_R   0.033613 0.657002 0.353692 0.561375
C108  C     C_R   0.964644 0.656937 0.645106 0.574383
C109  C     C_R   0.741227 0.971654 0.354185 0.550641
C110  C     C_R   0.257881 0.970712 0.646526 0.544009
C111  C     C_R   0.240450 0.475559 0.355725 0.550649
C112  C     C_R   0.757894 0.471358 0.646397 0.544455
C113  C     C_R   0.487547 0.159612 0.927534 -0.015840
C114  C     C_R   0.504047 0.175491 0.074674 0.023367
C115  C     C_R   0.987544 0.659615 0.927537 -0.015656
C116  C     C_R   0.004043 0.675493 0.074677 0.023176
C117  C     C_R   0.513058 0.266885 0.955763 0.000357
C118  C     C_R   0.521812 0.276329 0.030001 0.041802
C119  C     C_R   0.013053 0.766889 0.955766 0.000472
C120  C     C_R   0.021808 0.776331 0.030005 0.042057
C121  C     C_R   0.469393 0.078068 0.045425 -0.161341
C122  C     C_R   0.465000 0.067123 0.972894 -0.165923
C123  C     C_R   0.969388 0.578071 0.045428 -0.161809
C124  C     C_R   0.964997 0.567126 0.972897 -0.166038
Cr1   Cr    Cr6+3 0.772010 0.169670 0.250090 1.029311
Cr2   Cr    Cr6+3 0.227990 0.169670 0.749910 1.014555
Cr3   Cr    Cr6+3 0.272010 0.669670 0.250090 1.022649
Cr4   Cr    Cr6+3 0.727990 0.669670 0.749910 1.016565
Cr5   Cr    Cr6+3 0.615000 0.323260 0.249260 0.999366
Cr6   Cr    Cr6+3 0.385000 0.323260 0.750740 0.988063
Cr7   Cr    Cr6+3 0.115000 0.823260 0.249260 1.002799
Cr8   Cr    Cr6+3 0.885000 0.823260 0.750740 0.985814
Cr9   Cr    Cr6+3 0.616710 0.010760 0.250840 1.004532
Cr10  Cr    Cr6+3 0.383290 0.010760 0.749160 1.019921
Cr11  Cr    Cr6+3 0.116710 0.510760 0.250840 1.017068
Cr12  Cr    Cr6+3 0.883290 0.510760 0.749160 1.010132
H1    H     H_    0.450699 0.005309 0.078779 0.131336
H2    H     H_    0.442017 0.986602 0.952044 0.136572
H3    H     H_    0.950694 0.505314 0.078783 0.131063
H4    H     H_    0.942016 0.486603 0.952046 0.136568
H5    H     H_    0.526569 0.358040 0.439918 0.131422
H6    H     H_    0.509766 0.357887 0.569311 0.127667
H7    H     H_    0.034798 0.852946 0.439359 0.138760
H8    H     H_    0.017445 0.847910 0.567958 0.118656
H9    H     H_    0.939563 0.376997 0.552202 0.143661
H10   H     H_    0.047845 0.424034 0.440563 0.160775
H11   H     H_    0.419088 0.951934 0.554791 0.164786
H12   H     H_    0.516684 0.866736 0.440076 0.140664
H13   H     H_    0.642408 0.876948 0.439804 0.139047
H14   H     H_    0.336244 0.805277 0.573595 0.140394
H15   H     H_    0.152416 0.342344 0.438781 0.129596
H16   H     H_    0.835664 0.308265 0.573330 0.116121
H17   H     H_    0.651652 0.858934 0.568810 0.184960
H18   H     H_    0.329525 0.780846 0.444131 0.173410
H19   H     H_    0.155709 0.329733 0.568935 0.198809
H20   H     H_    0.830877 0.288657 0.443309 0.194770
H21   H     H_    0.924025 0.970696 0.556839 0.147701
H22   H     H_    0.090580 0.039714 0.435949 0.143977
H23   H     H_    0.397807 0.418038 0.561197 0.169360
H24   H     H_    0.590785 0.542445 0.434871 0.140009
H25   H     H_    0.857679 0.092549 0.558041 0.134623
H26   H     H_    0.175688 0.118613 0.427887 0.148191
H27   H     H_    0.396558 0.586736 0.567139 0.158672
H28   H     H_    0.674972 0.625013 0.428536 0.147370
H29   H     H_    0.858754 0.098946 0.432018 0.176274
H30   H     H_    0.180687 0.139756 0.552794 0.161556
H31   H     H_    0.391205 0.599494 0.440819 0.150078
H32   H     H_    0.677045 0.644817 0.554212 0.175413
H33   H     H_    0.920559 0.970555 0.429789 0.142869
H34   H     H_    0.094966 0.062328 0.561719 0.144851
H35   H     H_    0.391790 0.430883 0.435860 0.147872
H36   H     H_    0.593335 0.561149 0.560845 0.158614
H37   H     H_    0.531622 0.366289 0.855533 0.143980
H38   H     H_    0.556471 0.410682 0.108683 0.163301
H39   H     H_    0.031616 0.866298 0.855537 0.143935
H40   H     H_    0.056471 0.910683 0.108687 0.163569
H41   H     H_    0.016255 0.060595 0.907447 0.100284
H42   H     H_    0.043346 0.078852 0.034723 0.101802
H43   H     H_    0.516255 0.560589 0.907440 0.101418
H44   H     H_    0.543341 0.578852 0.034717 0.101829
H45   H     H_    0.866304 0.842609 0.956003 0.155561
H46   H     H_    0.166443 0.052470 0.071978 0.163567
H47   H     H_    0.366302 0.342619 0.955998 0.155532
H48   H     H_    0.666441 0.552475 0.071980 0.163348
H49   H     H_    0.111354 0.385162 0.911694 0.114896
H50   H     H_    0.803537 0.193462 0.053834 0.178188
H51   H     H_    0.611357 0.885162 0.911693 0.114632
H52   H     H_    0.303529 0.693441 0.053813 0.178167
H53   H     H_    0.609465 0.046929 0.925605 0.119873
H54   H     H_    0.391529 0.761966 0.068873 0.057064
H55   H     H_    0.109461 0.546929 0.925604 0.120682
H56   H     H_    0.891535 0.261990 0.068891 0.057822
H57   H     H_    0.594910 0.013383 0.052570 0.141463
H58   H     H_    0.404904 0.791023 0.945689 0.078028
H59   H     H_    0.094907 0.513388 0.052569 0.141419
H60   H     H_    0.904909 0.291027 0.945706 0.077917
O1    O     O_R   0.787520 0.042810 0.170440 -0.527236
O2    O     O_R   0.212480 0.042810 0.829560 -0.482750
O3    O     O_R   0.287520 0.542810 0.170440 -0.528314
O4    O     O_R   0.712480 0.542810 0.829560 -0.482003
O5    O     O_R   0.556610 0.252880 0.323980 -0.515833
O6    O     O_R   0.443390 0.252880 0.676020 -0.512455
O7    O     O_R   0.056610 0.752880 0.323980 -0.510501
O8    O     O_R   0.943390 0.752880 0.676020 -0.518542
O9    O     O_R   0.545950 0.051210 0.330860 -0.493138
O10   O     O_R   0.454050 0.051210 0.669140 -0.489930
O11   O     O_R   0.045950 0.551210 0.330860 -0.498290
O12   O     O_R   0.954050 0.551210 0.669140 -0.474284
O13   O     O_R   0.681390 0.959480 0.325510 -0.519552
O14   O     O_R   0.318610 0.959480 0.674490 -0.511315
O15   O     O_R   0.181390 0.459480 0.325510 -0.512275
O16   O     O_R   0.818610 0.459480 0.674490 -0.516736
O17   O     O_3   0.667900 0.167900 0.250060 -0.270777
O18   O     O_3   0.332100 0.167900 0.749940 -0.262450
O19   O     O_3   0.167900 0.667900 0.250060 -0.271094
O20   O     O_3   0.832100 0.667900 0.749940 -0.265001
O21   O     O_R   0.765640 0.292100 0.175020 -0.503709
O22   O     O_R   0.234360 0.292100 0.824980 -0.528669
O23   O     O_R   0.265640 0.792100 0.175020 -0.504626
O24   O     O_R   0.734360 0.792100 0.824980 -0.528973
O25   O     O_R   0.670190 0.408840 0.168540 -0.546998
O26   O     O_R   0.329810 0.408840 0.831460 -0.541503
O27   O     O_R   0.170190 0.908840 0.168540 -0.545601
O28   O     O_R   0.829810 0.908840 0.831460 -0.542073
O29   O     O_R   0.556620 0.251410 0.175160 -0.516243
O30   O     O_R   0.443380 0.251410 0.824840 -0.521901
O31   O     O_R   0.056620 0.751410 0.175160 -0.517473
O32   O     O_R   0.943380 0.751410 0.824840 -0.521753
O33   O     O_R   0.545960 0.049620 0.170320 -0.555506
O34   O     O_R   0.454040 0.049620 0.829680 -0.528255
O35   O     O_R   0.045960 0.549620 0.170320 -0.555252
O36   O     O_R   0.954040 0.549620 0.829680 -0.528249
O37   O     O_R   0.681390 0.958010 0.176690 -0.513266
O38   O     O_R   0.318610 0.958010 0.823310 -0.527659
O39   O     O_R   0.181390 0.458010 0.176690 -0.511909
O40   O     O_R   0.818610 0.458010 0.823310 -0.528532
O41   O     O_R   0.787510 0.044390 0.330970 -0.517569
O42   O     O_R   0.212490 0.044390 0.669030 -0.521687
O43   O     O_R   0.287510 0.544390 0.330970 -0.515207
O44   O     O_R   0.712490 0.544390 0.669030 -0.519665
O45   O     O_R   0.765630 0.293570 0.323840 -0.489907
O46   O     O_R   0.234370 0.293570 0.676160 -0.501651
O47   O     O_R   0.265630 0.793570 0.323840 -0.492819
O48   O     O_R   0.734370 0.793570 0.676160 -0.500297
O49   O     O_R   0.670190 0.410420 0.329080 -0.524625
O50   O     O_R   0.329810 0.410420 0.670920 -0.528056
O51   O     O_R   0.170190 0.910420 0.329080 -0.524155
O52   O     O_R   0.829810 0.910420 0.670920 -0.524750
F1    F     F_    0.507787 0.846283 0.572729 -0.680700
F2    F     F_    0.423716 0.960634 0.422056 -0.663316
F3    F     F_    0.042125 0.421468 0.573288 -0.676919
F4    F     F_    0.946989 0.368282 0.418906 -0.678504
O53   O     O_3   0.868769 0.887131 0.093475 -0.549794
C125  C     C_3   0.906852 0.995541 0.091126 -0.092190
H61   H     H_    0.917369 0.024734 0.035970 0.111641
H62   H     H_    0.952583 0.985460 0.125673 0.121585
H63   H     H_    0.882370 0.073187 0.114736 0.140621
O54   O     O_3   0.148922 0.046338 0.936886 -0.570882
C126  C     C_3   0.142591 0.171308 0.931139 -0.076010
H64   H     H_    0.186007 0.221824 0.955252 0.162470
H65   H     H_    0.093107 0.197784 0.954387 0.153639
H66   H     H_    0.135901 0.195776 0.874540 0.164791
O55   O     O_3   0.368770 0.387143 0.093467 -0.548403
C127  C     C_3   0.406851 0.495556 0.091116 -0.092457
H67   H     H_    0.417365 0.524751 0.035959 0.111768
H68   H     H_    0.452584 0.485478 0.125659 0.120563
H69   H     H_    0.382368 0.573196 0.114730 0.139689
O56   O     O_3   0.648923 0.546337 0.936888 -0.570923
C128  C     C_3   0.642589 0.671306 0.931136 -0.075751
H70   H     H_    0.686006 0.721826 0.955246 0.162301
H71   H     H_    0.593105 0.697783 0.954384 0.153741
H72   H     H_    0.635898 0.695769 0.874536 0.165341
O57   O     O_3   0.615673 0.822356 0.048082 -0.601744
C129  C     C_3   0.560793 0.808360 0.095561 -0.126093
H73   H     H_    0.511038 0.833901 0.070255 0.099231
H74   H     H_    0.571295 0.854411 0.145629 0.198858
H75   H     H_    0.557639 0.712932 0.112389 0.094264
O58   O     O_3   0.307785 0.704568 0.921126 -0.567932
C130  C     C_3   0.342296 0.673043 0.858535 -0.095541
H76   H     H_    0.383866 0.606773 0.871009 0.128697
H77   H     H_    0.364996 0.751967 0.830446 0.127007
H78   H     H_    0.304423 0.632470 0.821532 0.168258
O59   O     O_3   0.115670 0.322361 0.048084 -0.602318
C131  C     C_3   0.060789 0.308367 0.095563 -0.124075
H79   H     H_    0.011035 0.333914 0.070257 0.098818
H80   H     H_    0.071292 0.354414 0.145631 0.200544
H81   H     H_    0.057631 0.212939 0.112389 0.096084
O60   O     O_3   0.807789 0.204570 0.921152 -0.567261
C132  C     C_3   0.842297 0.173036 0.858563 -0.097937
H82   H     H_    0.883865 0.106763 0.871040 0.128470
H83   H     H_    0.864998 0.251955 0.830470 0.124412
H84   H     H_    0.804421 0.132462 0.821564 0.166679

loop_
_geom_bond_atom_site_label_1
_geom_bond_atom_site_label_2
_ccdc_geom_bond_type
Cr10  O14   S    
Cr11  O15   S    
C102  O50   A    
C73   C93   S    
C75   C95   S    
Cr5   O49   S    
C79   C99   A    
C131  H79   S    
C22   C38   S    
C23   C43   A    
C33   H53   S    
C129  H73   S    
C103  O51   A    
C125  H62   S    
Cr1   O17   S    
C113  C122  A    
C70   C74   A    
C96   H32   S    
Cr8   O20   S    
C107  O11   A    
Cr6   O6    S    
C59   C60   A    
C30   H46   S    
C109  O13   A    
C25   C29   A    
C47   C116  S    
C27   C31   A    
C7    C119  A    
C28   C32   A    
C68   C101  S    
C25   C41   A    
C6    H38   S    
C39   H59   S    
C28   C44   A    
C17   C21   A    
C37   H57   S    
C19   C23   A    
C66   C82   A    
C78   C82   A    
C16   C20   A    
C45   O29   A    
C128  H71   S    
Cr4   O48   S    
C11   H43   S    
Cr2   O42   S    
C9    H41   S    
C64   H10   S    
C50   C57   A    
C66   C103  S    
C131  H81   S    
C126  H65   S    
C106  O10   A    
C49   C106  S    
C76   C100  A    
C104  O48   A    
C76   C96   S    
C84   H20   S    
Cr3   O19   S    
C66   C70   A    
C49   C53   A    
C87   H23   S    
Cr6   O18   S    
C51   C55   A    
C130  H77   S    
C111  O43   A    
C62   F2    S    
Cr6   O30   S    
C8    C10   A    
C5    C117  A    
C2    O22   A    
C19   C35   S    
C94   H34   S    
Cr2   O22   S    
C41   C89   S    
C67   C83   A    
C116  C123  A    
Cr9   O13   S    
C108  O12   A    
C123  C124  A    
C74   C98   A    
C53   C54   A    
C1    O25   A    
O53   C125  S    
C48   O32   A    
C83   H19   S    
C123  H3    S    
C81   H17   S    
C89   O37   A    
Cr12  O16   S    
C53   C61   S    
C45   C114  S    
C127  H67   S    
C112  O44   A    
C87   C95   S    
Cr2   O46   S    
C50   C105  S    
C56   C64   S    
C77   C97   A    
C102  O46   A    
C9    C10   A    
Cr4   O24   S    
Cr5   O5    S    
Cr2   O2    S    
C88   H24   S    
C59   H7    S    
C62   H12   S    
Cr9   O33   S    
C34   H54   S    
Cr3   O47   S    
C25   O53   S    
C125  H63   S    
C104  O52   A    
C88   H28   S    
C116  C120  A    
C42   C90   S    
C107  O7    A    
Cr7   O31   S    
C97   C109  S    
Cr11  O35   S    
C105  O5    A    
C99   C111  S    
C75   C99   A    
C132  H82   S    
Cr10  O38   S    
Cr4   O20   S    
C113  C117  A    
C127  H68   S    
C12   H44   S    
C26   C30   A    
C115  C119  A    
C69   C85   S    
C26   C42   A    
Cr11  O11   S    
C3    O27   A    
C46   C113  S    
C36   H56   S    
C5    H37   S    
C95   H31   S    
C110  O42   A    
C15   C31   A    
C16   C32   A    
C89   O1    A    
C13   C17   A    
C131  H80   S    
O54   C126  S    
C117  C118  A    
C57   C58   A    
C127  H69   S    
Cr12  O40   S    
C129  H74   S    
Cr10  O34   S    
Cr5   O17   S    
C61   C62   S    
C63   C64   S    
C47   O31   A    
C61   F1    S    
Cr5   O29   S    
O59   C131  S    
O58   C130  S    
Cr7   O27   S    
C51   C60   A    
C92   O4    A    
C63   H9    S    
C63   F3    S    
C55   C56   A    
C88   C96   S    
Cr3   O43   S    
C98   C110  S    
C129  H75   S    
C85   H25   S    
C74   C94   S    
C80   C84   A    
C101  O49   A    
C94   H30   S    
Cr3   O23   S    
O55   C127  S    
C15   C19   A    
C93   H33   S    
C50   C54   A    
C85   H21   S    
C13   C29   A    
C5    C11   A    
Cr8   O32   S    
C6    C12   A    
Cr10  O10   S    
C2    O26   A    
C132  H84   S    
C80   H16   S    
Cr2   O18   S    
C114  C121  A    
C52   C107  S    
C4    O24   A    
C35   H55   S    
C130  H76   S    
C69   C73   A    
Cr7   O7    S    
C18   C22   A    
C128  H70   S    
C46   O34   A    
C110  O14   A    
C17   C33   S    
Cr8   O8    S    
C68   C84   A    
Cr6   O26   S    
C122  H2    S    
C77   H13   S    
Cr12  O12   S    
Cr8   O52   S    
C54   C62   S    
C121  H1    S    
C33   C37   S    
C38   H58   S    
Cr3   O3    S    
C35   C39   S    
Cr4   O4    S    
Cr7   O19   S    
C125  H61   S    
C58   H6    S    
C65   C81   A    
C26   O54   S    
C77   C81   A    
C27   O55   S    
C8    H40   S    
C1    C16   S    
Cr9   O37   S    
C2    C15   S    
C121  C122  A    
C3    C14   S    
Cr7   O51   S    
C71   C87   S    
C100  C112  S    
C24   C44   A    
Cr11  O39   S    
Cr1   O41   S    
C115  C124  A    
Cr8   O28   S    
C124  H4    S    
C119  C120  A    
C105  O9    A    
Cr4   O44   S    
Cr10  O18   S    
C57   H5    S    
C61   H11   S    
C60   H8    S    
C79   C83   A    
C65   C69   A    
C40   O60   S    
C67   C71   A    
C92   O40   A    
C111  O15   A    
C20   C36   S    
C27   C43   A    
C21   C37   S    
O56   C128  S    
C3    O23   A    
C128  H72   S    
C132  H83   S    
C1    O21   A    
C95   H35   S    
Cr1   O21   S    
C87   H27   S    
C91   O39   A    
C14   C18   A    
C72   C76   A    
C126  H66   S    
Cr6   O50   S    
C73   C97   A    
Cr12  O36   S    
C29   H45   S    
C112  O16   A    
C47   O35   A    
Cr9   O9    S    
C90   O38   A    
C130  H78   S    
C4    C13   S    
C86   C94   S    
C37   O57   S    
C38   O58   S    
Cr11  O19   S    
C20   C24   A    
C39   O59   S    
C51   C108  S    
C7    H39   S    
C78   C98   A    
C103  O47   A    
Cr1   O45   S    
C86   H26   S    
C101  O45   A    
C68   C72   A    
C91   O3    A    
C93   H29   S    
C64   F4    S    
C80   C100  A    
C45   O33   A    
C14   C30   A    
C72   C88   S    
C10   H42   S    
C36   C40   S    
Cr5   O25   S    
C4    O28   A    
C43   C91   S    
C49   C58   A    
C55   C63   S    
C48   O36   A    
C52   C59   A    
C106  O6    A    
C85   C93   S    
C35   H49   S    
O57   C129  S    
C46   O30   A    
C33   H51   S    
C34   H52   S    
C18   C34   S    
C114  C118  A    
C48   C115  S    
C44   C92   S    
C21   C41   A    
C126  H64   S    
C70   C86   S    
C78   H14   S    
C79   H15   S    
C40   H60   S    
C7    C9    A    
C8    C120  A    
C31   H47   S    
C34   C38   S    
C32   H48   S    
C11   C12   A    
C86   H22   S    
C90   O2    A    
C109  O41   A    
C28   O56   S    
Cr9   O17   S    
O60   C132  S    
C108  O8    A    
C71   C75   A    
C22   C42   A    
C23   C39   S    
C24   C40   S    
C36   H50   S    
Cr1   O1    S    
C82   H18   S    
C96   H36   S    
C65   C104  S    
C6    C118  A    
C52   C56   A    
C67   C102  S    
Cr12  O20   S    
