data_str_m2_o5_o29_f0_pcu.sym.46
_audit_creation_date              2013-03-05T16:36:14-0500
_audit_creation_method            fapswitch 2.2
_symmetry_space_group_name_H-M    P1
_symmetry_Int_Tables_number       1
_space_group_crystal_system       triclinic
_cell_length_a                    27.844933
_cell_length_b                    9.070388
_cell_length_c                    7.779718
_cell_angle_alpha                 90.116306
_cell_angle_beta                  89.996351
_cell_angle_gamma                 90.003072
_cell_volume                      1964.87533483

loop_
_atom_site_label
_atom_site_type_symbol
_atom_site_description
_atom_site_fract_x
_atom_site_fract_y
_atom_site_fract_z
_atom_type_partial_charge
O1    O     O_R   0.500000 0.288390 0.642760 -0.576044
O2    O     O_R   0.500000 0.711610 0.357240 -0.576030
O3    O     O_R   0.500000 0.711610 0.642760 -0.586463
O4    O     O_R   0.500000 0.288390 0.357240 -0.586459
C1    C     C_R   0.500001 0.220031 0.499902 0.820872
C2    C     C_R   0.500004 0.779969 0.500098 0.820942
O5    O     O_R   0.430260 0.500000 0.642770 -0.544439
O6    O     O_R   0.569740 0.500000 0.357230 -0.544771
O7    O     O_R   0.569740 0.500000 0.642770 -0.544929
O8    O     O_R   0.430260 0.500000 0.357230 -0.544584
C3    C     C_R   0.407271 0.500005 0.500007 0.850993
C4    C     C_R   0.592720 0.499992 0.499994 0.851738
Cu1   Cu    Cu3+1 0.500000 0.500000 0.669080 1.049620
Cu2   Cu    Cu3+1 0.500000 0.500000 0.330920 1.049631
C5    C     C_R   0.177935 0.370397 0.474930 0.554985
C6    C     C_R   0.822047 0.629407 0.525672 0.555062
C7    C     C_R   0.177918 0.629778 0.524973 0.555010
C8    C     C_R   0.822063 0.370197 0.474424 0.555095
O9    O     O_2   0.202717 0.244414 0.448834 -0.532371
O10   O     O_2   0.797272 0.755298 0.552442 -0.532590
O11   O     O_2   0.202683 0.755797 0.551071 -0.532352
O12   O     O_2   0.797303 0.244272 0.447648 -0.532568
N1    N     N_R   0.202021 0.500105 0.499953 -0.441862
N2    N     N_R   0.797956 0.499787 0.500041 -0.441742
C9    C     C_R   0.278683 0.572025 0.369072 -0.185614
C10   C     C_R   0.721278 0.426643 0.629978 -0.185128
C11   C     C_R   0.278663 0.428252 0.630955 -0.185990
C12   C     C_R   0.721304 0.572906 0.369968 -0.185567
C13   C     C_R   0.328890 0.575035 0.369730 0.405158
C14   C     C_R   0.671072 0.423662 0.629257 0.405015
C15   C     C_R   0.328874 0.425215 0.630342 0.405295
C16   C     C_R   0.671095 0.575984 0.370656 0.405181
C17   C     C_R   0.253540 0.500129 0.499996 0.212951
C18   C     C_R   0.746431 0.499770 0.499989 0.212395
C19   C     C_R   0.101871 0.500026 0.499970 -0.044556
C20   C     C_R   0.898111 0.499859 0.500042 -0.044530
C21   C     C_R   0.127522 0.367930 0.474848 -0.026681
C22   C     C_R   0.872460 0.631880 0.525698 -0.026629
C23   C     C_R   0.127504 0.632165 0.525075 -0.026681
C24   C     C_R   0.872477 0.367798 0.474397 -0.026631
C25   C     C_R   0.102494 0.236448 0.449734 -0.145952
C26   C     C_R   0.897489 0.763291 0.551333 -0.146009
C27   C     C_R   0.102457 0.763605 0.550199 -0.145964
C28   C     C_R   0.897524 0.236426 0.448758 -0.146019
C29   C     C_R   0.354408 0.500082 0.500027 -0.254424
C30   C     C_R   0.645569 0.499881 0.499970 -0.253882
H1    H     H_    0.259130 0.373401 0.732870 0.177190
H2    H     H_    0.740831 0.628732 0.268758 0.177627
H3    H     H_    0.259171 0.626946 0.267174 0.177425
H4    H     H_    0.740779 0.370729 0.731167 0.177894
H5    H     H_    0.121380 0.133353 0.429973 0.185084
H6    H     H_    0.878603 0.866320 0.571604 0.185260
H7    H     H_    0.121329 0.866730 0.569941 0.185049
H8    H     H_    0.878653 0.133369 0.428500 0.185223
C31   C     C_R   0.974449 0.365327 0.473974 0.044658
C32   C     C_R   0.025532 0.634585 0.525832 0.044668
C33   C     C_R   0.974431 0.634514 0.526066 0.044656
C34   C     C_R   0.025551 0.365340 0.474166 0.044665
C35   C     C_R   0.949229 0.499900 0.500028 0.069220
C36   C     C_R   0.050752 0.499983 0.499989 0.069175
C37   C     C_R   0.947358 0.234842 0.448449 -0.206384
C38   C     C_R   0.052623 0.765166 0.550657 -0.206208
C39   C     C_R   0.947322 0.764955 0.551619 -0.206398
C40   C     C_R   0.052660 0.234805 0.449309 -0.206220
H9    H     H_    0.963288 0.128394 0.427287 0.131470
H10   H     H_    0.036692 0.871696 0.571179 0.131197
H11   H     H_    0.963237 0.871425 0.572782 0.131486
H12   H     H_    0.036744 0.128251 0.428788 0.131212
C41   C     C_1   0.500004 0.065412 0.499866 -0.190706
C42   C     C_1   0.500005 0.934588 0.500134 -0.190677
N3    N     N_1   0.500000 0.500000 0.076820 -0.021721
N4    N     N_1   0.500000 0.500000 0.923180 -0.021720
O13   O     O_3   0.352821 0.352625 0.760785 -0.538026
C43   C     C_3   0.356904 0.202597 0.715263 -0.255785
H13   H     H_    0.377104 0.188341 0.592730 0.130484
H14   H     H_    0.320983 0.149307 0.705941 0.173270
H15   H     H_    0.377335 0.144857 0.817376 0.189428
O14   O     O_3   0.647140 0.649931 0.241277 -0.538592
C44   C     C_3   0.642950 0.799398 0.289150 -0.256917
H16   H     H_    0.678837 0.852778 0.299522 0.173696
H17   H     H_    0.622689 0.812133 0.411785 0.130273
H18   H     H_    0.622531 0.858226 0.187855 0.189724
O15   O     O_3   0.352839 0.647751 0.239366 -0.537965
C45   C     C_3   0.357377 0.797425 0.285930 -0.255693
H19   H     H_    0.377680 0.855332 0.183591 0.189451
H20   H     H_    0.377930 0.810504 0.407874 0.130270
H21   H     H_    0.321608 0.851382 0.296974 0.172993
O16   O     O_3   0.647112 0.349642 0.758582 -0.538504
C46   C     C_3   0.642372 0.200589 0.709570 -0.256842
H22   H     H_    0.621684 0.189216 0.587706 0.130062
H23   H     H_    0.622120 0.141611 0.811183 0.189776
H24   H     H_    0.678075 0.146413 0.697119 0.173290

loop_
_geom_bond_atom_site_label_1
_geom_bond_atom_site_label_2
_geom_bond_distance
_ccdc_geom_bond_type
C31   C35   1.422411 A    
Cu2   N3    1.976826 S    
C45   H21   1.112996 S    
C20   C35   1.423391 A    
C11   C17   1.398295 A    
C5    O9    1.349928 S    
C7    N1    1.367800 A    
C43   H14   1.113165 S    
O1    C1    1.271553 A    
C40   H12   1.074861 S    
C19   C21   1.408210 A    
C45   H20   1.114098 S    
C22   C26   1.394697 A    
C10   H4    1.083275 S    
C7    C23   1.403940 A    
C33   C35   1.422409 A    
C34   C36   1.422400 A    
C32   C33   1.422905 A    
O13   C43   1.410036 S    
C8    C24   1.403944 A    
C5    C21   1.403924 A    
O7    Cu1   1.952647 S    
C27   H7    1.083530 S    
N1    C17   1.434557 S    
C43   H15   1.109416 S    
C1    C41   1.402452 S    
C8    N2    1.367865 A    
C46   H23   1.109389 S    
C24   C28   1.394701 A    
O3    Cu1   1.930689 S    
C6    O10   1.349929 S    
O3    C2    1.272423 A    
C5    N1    1.367794 A    
C12   C18   1.398429 A    
C6    N2    1.367856 A    
Cu1   Cu2   2.630790 S    
C21   C25   1.394669 A    
O2    C2    1.271554 A    
C10   C18   1.398483 A    
C33   C39   1.417135 A    
C9    C13   1.398288 A    
C39   H11   1.074911 S    
C43   H13   1.114119 S    
C38   H10   1.074873 S    
C11   C15   1.398400 A    
C12   C16   1.398356 A    
C45   H19   1.109494 S    
C4    C30   1.471558 S    
O8    Cu2   1.952650 S    
C44   H17   1.114172 S    
O14   C44   1.410061 S    
C23   C27   1.394665 A    
C34   C40   1.417114 A    
N2    C18   1.434719 S    
C32   C36   1.422402 A    
C13   C29   1.413344 A    
C19   C36   1.423414 A    
C19   C23   1.408212 A    
C28   H8    1.083561 S    
O5    C3    1.281955 A    
O15   C45   1.410060 S    
C20   C24   1.408206 A    
O6    C4    1.281840 A    
C9    C17   1.398364 A    
C46   H24   1.113108 S    
C10   C14   1.398260 A    
C32   C38   1.417105 A    
C3    C29   1.471972 S    
O1    Cu1   1.929864 S    
C14   O16   1.382285 S    
C11   H1    1.083290 S    
C2    C42   1.402452 S    
C12   H2    1.083297 S    
O6    Cu2   1.952673 S    
C8    O12   1.349925 S    
C16   C30   1.412962 A    
C14   C30   1.413111 A    
O4    C1    1.272422 A    
C44   H18   1.109417 S    
C13   O15   1.382351 S    
Cu1   N4    1.976826 S    
C28   C37   1.387702 A    
C20   C22   1.408206 A    
N3    N4    1.195277 T    
C31   C37   1.417127 A    
O4    Cu2   1.930690 S    
C41   C42   1.186636 T    
O2    Cu2   1.929863 S    
O7    C4    1.281856 A    
C9    H3    1.083270 S    
C15   O13   1.382335 S    
O8    C3    1.281980 A    
C16   O14   1.382316 S    
C44   H16   1.113224 S    
C37   H9    1.074928 S    
O5    Cu1   1.952676 S    
O16   C46   1.410155 S    
C15   C29   1.413190 A    
C31   C34   1.422910 A    
C6    C22   1.403916 A    
C25   C40   1.387702 A    
C46   H22   1.114001 S    
C26   C39   1.387688 A    
C25   H5    1.083555 S    
C27   C38   1.387710 A    
C26   H6    1.083589 S    
C7    O11   1.349930 S    
