data_str_m9_o18_o22_f0_sra.sym.20
_audit_creation_date              2012-12-11T15:29:36-0500
_audit_creation_method            fapswitch 2.2
_symmetry_space_group_name_H-M    P1
_symmetry_Int_Tables_number       1
_space_group_crystal_system       triclinic
_cell_length_a                    21.417713
_cell_length_b                    7.246581
_cell_length_c                    14.770083
_cell_angle_alpha                 90.493927
_cell_angle_beta                  74.404017
_cell_angle_gamma                 89.859587
_cell_volume                      2207.88178748

loop_
_atom_site_label
_atom_site_type_symbol
_atom_type_description
_atom_site_fract_x
_atom_site_fract_y
_atom_site_fract_z
_atom_type_partial_charge
O1    O     O_R   0.464160 0.506670 0.130070 -0.535424
O2    O     O_R   0.535840 0.006670 0.869930 -0.535456
O3    O     O_R   0.589710 0.179080 0.006710 -0.545545
O4    O     O_R   0.410290 0.679080 0.993290 -0.545324
C1    C     C_R   0.616329 0.343943 0.001944 0.675520
C2    C     C_R   0.383647 0.844219 0.998117 0.676364
O5    O     O_R   0.467940 0.177220 0.138010 -0.538825
O6    O     O_R   0.532060 0.677220 0.861990 -0.538935
O7    O     O_R   0.413200 0.002810 0.002170 -0.540518
O8    O     O_R   0.586800 0.502810 0.997830 -0.540260
C3    C     C_R   0.456245 0.346480 0.174333 0.684461
C4    C     C_R   0.543791 0.844515 0.825570 0.684573
O9    O     O_3   0.482180 0.337850 0.955280 -0.376763
O10   O     O_3   0.517820 0.837850 0.044720 -0.376995
V1    V     V_3+5 0.503310 0.064600 0.008300 1.397793
V2    V     V_3+5 0.496690 0.564600 0.991700 1.398871
C5    C     C_R   0.571534 0.847640 0.723855 -0.026496
C6    C     C_R   0.428356 0.358982 0.275837 -0.026328
C7    C     C_R   0.928432 0.870110 0.276292 -0.032970
C8    C     C_R   0.071720 0.358734 0.723999 -0.032984
C9    C     C_R   0.560405 0.796336 0.567436 -0.162907
C10   C     C_R   0.439102 0.433660 0.430285 -0.161522
C11   C     C_R   0.532664 0.809995 0.663902 -0.171529
C12   C     C_R   0.466945 0.409685 0.334328 -0.173244
C13   C     C_R   0.638347 0.871029 0.687501 -0.216243
C14   C     C_R   0.361774 0.332715 0.313018 -0.215255
C15   C     C_R   0.668212 0.853384 0.589819 0.083376
C16   C     C_R   0.331834 0.359621 0.410103 0.082823
C17   C     C_R   0.627615 0.815882 0.530094 0.140735
C18   C     C_R   0.372106 0.410571 0.468425 0.139654
C19   C     C_R   0.736748 0.868453 0.549819 0.062758
C20   C     C_R   0.263515 0.340562 0.450771 0.060268
C21   C     C_R   0.763347 0.846019 0.450443 0.055872
C22   C     C_R   0.236748 0.373588 0.549352 0.056691
C23   C     C_R   0.720554 0.809262 0.394455 -0.194476
C24   C     C_R   0.279234 0.423012 0.604034 -0.181662
C25   C     C_R   0.654246 0.795150 0.433658 -0.203730
C26   C     C_R   0.345361 0.440525 0.564217 -0.203239
C27   C     C_R   0.779574 0.904337 0.605857 -0.192917
C28   C     C_R   0.221071 0.290263 0.396166 -0.192409
C29   C     C_R   0.845867 0.918764 0.566646 -0.206184
C30   C     C_R   0.154925 0.273145 0.435948 -0.204732
C31   C     C_R   0.872453 0.899262 0.470147 0.146134
C32   C     C_R   0.128119 0.304389 0.531627 0.142709
C33   C     C_R   0.831853 0.861931 0.410402 0.077133
C34   C     C_R   0.168387 0.355433 0.589941 0.076726
C35   C     C_R   0.939617 0.919863 0.432777 -0.160653
C36   C     C_R   0.061061 0.282500 0.569668 -0.159946
C37   C     C_R   0.967304 0.907517 0.336264 -0.178317
C38   C     C_R   0.033140 0.307877 0.665516 -0.181834
C39   C     C_R   0.861669 0.845635 0.312655 -0.217236
C40   C     C_R   0.138375 0.383718 0.686911 -0.197073
H1    H     H_    0.623457 0.766071 0.387810 0.124507
H2    H     H_    0.375905 0.479460 0.609037 0.122091
H3    H     H_    0.834575 0.819994 0.262121 0.134622
H4    H     H_    0.165186 0.420735 0.736415 0.115871
H5    H     H_    0.018944 0.928793 0.308198 0.097869
H6    H     H_    0.981568 0.286426 0.694260 0.098733
H7    H     H_    0.876674 0.947312 0.612531 0.119162
H8    H     H_    0.124404 0.233717 0.391174 0.118882
H9    H     H_    0.529394 0.767014 0.521991 0.112326
H10   H     H_    0.469865 0.473020 0.474661 0.112648
H11   H     H_    0.480989 0.789397 0.691961 0.101729
H12   H     H_    0.518468 0.431933 0.305527 0.102310
H13   H     H_    0.665420 0.897077 0.738014 0.089540
H14   H     H_    0.334942 0.295976 0.263499 0.089081
H15   H     H_    0.736518 0.789525 0.319481 0.147980
H16   H     H_    0.263177 0.450073 0.678431 0.132629
H17   H     H_    0.763659 0.922946 0.680897 0.117716
H18   H     H_    0.237184 0.262043 0.321875 0.118656
H19   H     H_    0.970626 0.949001 0.478248 0.111300
H20   H     H_    0.030301 0.243012 0.525308 0.112086
C41   C     C_3   0.212144 0.659729 0.997734 -0.397367
C42   C     C_3   0.788073 0.160087 0.002891 -0.394410
H21   H     H_    0.183106 0.583473 0.059935 0.177876
H22   H     H_    0.817224 0.080901 0.940883 0.176112
H23   H     H_    0.205926 0.587669 0.933865 0.177173
H24   H     H_    0.794402 0.091110 0.066936 0.179611
C43   C     C_3   0.284352 0.653041 0.996885 -0.321818
C44   C     C_3   0.715873 0.152980 0.003753 -0.322211
H25   H     H_    0.312125 0.577169 0.932759 0.159632
H26   H     H_    0.688199 0.080136 0.068062 0.161706
H27   H     H_    0.289416 0.573994 0.058856 0.156113
H28   H     H_    0.710946 0.070940 0.941974 0.153338
H29   H     H_    0.169241 0.884859 0.154008 0.115043
H30   H     H_    0.830733 0.377804 0.846082 0.114148
H31   H     H_    0.276801 0.878413 0.152361 0.133212
H32   H     H_    0.723201 0.370592 0.847705 0.132242
C45   C     C_3   0.198427 0.956134 0.090225 -0.308803
C46   C     C_3   0.801393 0.452049 0.909661 -0.306622
C47   C     C_3   0.230437 0.962115 0.912788 0.526793
C48   C     C_3   0.769359 0.466589 0.087043 0.518909
C49   C     C_3   0.187448 0.862353 0.000712 0.011222
C50   C     C_3   0.812508 0.362750 0.999397 0.013529
H33   H     H_    0.224490 0.893239 0.848009 0.029635
H34   H     H_    0.775450 0.401030 0.152014 0.030510
C51   C     C_3   0.312380 0.850862 0.998871 0.038946
C52   C     C_3   0.687577 0.350489 0.001255 0.038844
C53   C     C_3   0.271255 0.950651 0.088772 -0.325465
C54   C     C_3   0.728577 0.446071 0.911097 -0.321290
C55   C     C_3   0.303219 0.955208 0.912020 -0.354178
C56   C     C_3   0.696580 0.459179 0.087846 -0.356050
H35   H     H_    0.331719 0.885319 0.846471 0.080321
H36   H     H_    0.668219 0.392378 0.153591 0.080795
H37   H     H_    0.322378 0.097956 0.911391 0.181371
H38   H     H_    0.677153 0.601838 0.088132 0.180233
H39   H     H_    0.181577 0.102154 0.095305 0.181327
H40   H     H_    0.817970 0.597921 0.904236 0.182520
H41   H     H_    0.288966 0.094197 0.091957 0.146816
H42   H     H_    0.710603 0.589335 0.907495 0.149337
O11   O     O_R   0.913210 0.208550 0.002110 -0.548420
O12   O     O_R   0.086790 0.708550 0.997890 -0.548536
O13   O     O_R   0.032060 0.539960 0.861980 -0.546826
O14   O     O_R   0.967940 0.039960 0.138020 -0.545555
C57   C     C_R   0.043785 0.371564 0.825489 0.699248
C58   C     C_R   0.956163 0.873547 0.174594 0.697853
O15   O     O_R   0.910290 0.538020 0.993280 -0.507665
O16   O     O_R   0.089710 0.038020 0.006720 -0.507176
O17   O     O_R   0.964160 0.712340 0.130090 -0.530744
O18   O     O_R   0.035840 0.212340 0.869910 -0.528945
C59   C     C_R   0.883934 0.370037 0.998219 0.665970
C60   C     C_R   0.116053 0.869749 0.001840 0.667403
O19   O     O_3   0.017820 0.379210 0.044690 -0.377962
O20   O     O_3   0.982180 0.879210 0.955310 -0.378210
V3    V     V_3+5 0.996690 0.652500 0.991710 1.464462
V4    V     V_3+5 0.003310 0.152500 0.008290 1.468300
F1    F     F_    0.211192 0.144665 0.911046 -0.704742
F2    F     F_    0.788271 0.649339 0.088246 -0.711829

loop_
_geom_bond_atom_site_label_1
_geom_bond_atom_site_label_2
_ccdc_geom_bond_type
C32   C36   A    
C3    C6    S    
C54   H42   S    
O11   C59   A    
C21   C33   A    
C42   C50   S    
O1    C3    A    
C41   C49   S    
C44   H28   S    
O2    C4    A    
C2    O7    A    
C27   C29   A    
O5    C3    A    
C5    C11   A    
C28   H18   S    
C45   C53   S    
C6    C12   A    
C23   C25   A    
C36   H20   S    
C36   C38   A    
O14   V4    S    
O18   V4    S    
O13   V3    S    
C33   C39   A    
C53   H41   S    
C34   C40   A    
C48   H34   S    
C37   H5    S    
C15   C17   A    
C18   C26   A    
O16   C60   A    
O15   C59   A    
C8    C38   A    
C6    C14   A    
C4    C5    S    
C19   C21   A    
C22   C34   A    
C9    H9    S    
C48   C56   S    
C25   H1    S    
C11   H11   S    
O6    V2    S    
C42   C44   S    
C29   C31   A    
C30   C32   A    
C47   C55   S    
C48   F2    S    
C46   C54   S    
C51   C53   S    
C32   C34   A    
C46   C50   S    
H31   C53   S    
C55   H37   S    
C15   C19   A    
C14   H14   S    
C2    C51   S    
C16   C20   A    
C13   H13   S    
C49   C60   S    
C29   H7    S    
C44   H26   S    
H30   C46   S    
C30   H8    S    
C43   H25   S    
H29   C45   S    
O19   V4    S    
O5    V1    S    
C52   C56   S    
C9    C17   A    
C47   C49   S    
C38   H6    S    
O4    V2    S    
O12   C60   A    
C10   H10   S    
C7    C37   A    
C26   H2    S    
C23   H15   S    
O6    C4    A    
C45   H39   S    
O11   V4    S    
C48   C50   S    
C27   H17   S    
O1    V2    S    
C56   H36   S    
O2    V1    S    
C31   C33   A    
C35   H19   S    
O12   V3    S    
H32   C54   S    
C47   F1    S    
O17   V3    S    
O4    C2    A    
C52   C54   S    
C9    C11   A    
C10   C12   A    
C13   C15   A    
C41   H21   S    
O3    V1    S    
C55   H35   S    
C10   C18   A    
C44   C52   S    
C43   C51   S    
O3    C1    A    
C8    C57   S    
O14   C58   A    
C24   H16   S    
C35   C37   A    
C41   C43   S    
C14   C16   A    
C58   O17   A    
C5    C13   A    
C24   C26   A    
C42   H22   S    
O7    V1    S    
C46   H40   S    
C16   C18   A    
C8    C40   A    
O8    V2    S    
C43   H27   S    
C31   C35   A    
C7    C58   S    
C28   C30   A    
C21   C23   A    
C22   C24   A    
C19   C27   A    
C56   H38   S    
C39   H3    S    
C20   C28   A    
C45   C49   S    
C47   H33   S    
C50   C59   S    
C7    C39   A    
C1    O8    A    
C1    C52   S    
C12   H12   S    
C57   O18   A    
C42   H24   S    
O9    V2    S    
C17   C25   A    
C41   H23   S    
O10   V1    S    
O16   V4    S    
O15   V3    S    
C51   C55   S    
C40   H4    S    
C20   C22   A    
O20   V3    S    
O13   C57   A    
