data_str_m12_o9_o11_f0_bcu.sym.40
_audit_creation_date              2012-12-11T17:39:34-0500
_audit_creation_method            fapswitch 2.2
_symmetry_space_group_name_H-M    P1
_symmetry_Int_Tables_number       1
_space_group_crystal_system       triclinic
_cell_length_a                    15.079753
_cell_length_b                    15.108103
_cell_length_c                    14.945908
_cell_angle_alpha                 108.627611
_cell_angle_beta                  110.075425
_cell_angle_gamma                 109.983294
_cell_volume                      2611.97853548

loop_
_atom_site_label
_atom_site_type_symbol
_atom_type_description
_atom_site_fract_x
_atom_site_fract_y
_atom_site_fract_z
_atom_type_partial_charge
C1    C     C_R   0.912024 0.965122 0.726089 0.539040
C2    C     C_R   0.909284 0.703388 0.506696 -0.135051
C3    C     C_R   0.749986 0.779187 0.187020 -0.137032
C4    C     C_R   0.093890 0.314963 0.558315 -0.096918
C5    C     C_R   0.258368 0.944221 0.533714 -0.115041
C6    C     C_R   0.722409 0.677267 0.177424 0.162255
C7    C     C_R   0.287519 0.966574 0.461280 0.038752
C8    C     C_R   0.000259 0.701196 0.565770 0.038192
C9    C     C_R   0.996908 0.055836 0.191400 0.071203
C10   C     C_R   0.469986 0.590591 0.267709 -0.098976
C11   C     C_R   0.464151 0.684390 0.285622 -0.101642
C12   C     C_R   0.003308 0.325774 0.543474 -0.121853
C13   C     C_R   0.428739 0.723518 0.357153 0.120454
C14   C     C_R   0.392460 0.662328 0.404385 -0.162218
C15   C     C_R   0.395214 0.566532 0.383294 -0.023227
C16   C     C_R   0.305597 0.206951 0.795761 0.483615
C17   C     C_R   0.435251 0.531434 0.316160 -0.049096
C18   C     C_R   0.357346 0.847974 0.404916 -0.249407
C19   C     C_R   0.366058 0.949712 0.436012 0.070806
C20   C     C_R   0.450997 0.035422 0.443918 0.027546
C21   C     C_R   0.529052 0.019033 0.427572 -0.228980
C22   C     C_R   0.527771 0.921877 0.408269 0.075887
C23   C     C_R   0.367430 0.301668 0.797897 0.006817
C24   C     C_R   0.437959 0.831832 0.389382 0.015286
C25   C     C_R   0.460879 0.186181 0.404065 -0.280343
C26   C     C_R   0.477269 0.290674 0.435379 -0.307057
C27   C     C_R   0.502880 0.356825 0.541118 0.837592
C28   C     C_R   0.693863 0.986377 0.395118 -0.083576
C29   C     C_R   0.512609 0.318655 0.615760 -0.289677
C30   C     C_R   0.495619 0.213941 0.584667 -0.225644
C31   C     C_R   0.468445 0.146535 0.478074 0.141543
C32   C     C_R   0.805199 0.183632 0.187087 -0.282227
C33   C     C_R   0.880120 0.275924 0.289878 0.770649
C34   C     C_R   0.630789 0.928933 0.425931 -0.197974
C35   C     C_R   0.842384 0.322169 0.354738 -0.059037
C36   C     C_R   0.728887 0.277825 0.312947 -0.193660
C37   C     C_R   0.654547 0.184685 0.210543 -0.073530
C38   C     C_R   0.692652 0.137225 0.147869 -0.197874
C39   C     C_R   0.918197 0.510781 0.478537 -0.242800
C40   C     C_R   0.301099 0.297775 0.705045 -0.125553
C41   C     C_R   0.995933 0.608582 0.574749 0.069011
C42   C     C_R   0.074332 0.614921 0.665612 0.021630
C43   C     C_R   0.074778 0.519693 0.654190 -0.246444
C44   C     C_R   0.998956 0.422313 0.554918 0.115963
C45   C     C_R   0.749040 0.687616 0.279395 -0.149761
C46   C     C_R   0.920269 0.418280 0.465685 0.092303
C47   C     C_R   0.266205 0.751104 0.823936 -0.166359
C48   C     C_R   0.341597 0.849992 0.921405 -0.120409
C49   C     C_R   0.306139 0.916855 0.967208 -0.058517
C50   C     C_R   0.195110 0.884665 0.916110 -0.090553
C51   C     C_R   0.119361 0.785662 0.819011 -0.144608
C52   C     C_R   0.695451 0.905403 0.494329 0.559621
C53   C     C_R   0.154287 0.718267 0.771252 0.114558
C54   C     C_2   0.526832 0.483048 0.886894 0.584282
C55   C     C_2   0.484766 0.381041 0.870316 -0.305951
C56   C     C_R   0.249511 0.030957 0.436507 -0.113441
C57   C     C_2   0.636213 0.568233 0.981033 -0.301746
C58   C     C_2   0.662224 0.573820 0.078024 -0.209163
C59   C     C_R   0.407541 0.262618 0.131428 -0.086394
C60   C     C_R   0.302071 0.204590 0.111692 -0.184020
C61   C     C_R   0.219262 0.223158 0.057722 0.114863
C62   C     C_R   0.244050 0.301374 0.024783 -0.143949
C63   C     C_R   0.349403 0.357841 0.043048 -0.116931
C64   C     C_R   0.912363 0.223017 0.480023 0.512465
C65   C     C_R   0.431130 0.338931 0.097016 -0.100815
C66   C     C_R   0.097119 0.157404 0.124721 -0.204329
C67   C     C_R   0.091540 0.791130 0.593416 -0.103393
C68   C     C_R   0.995654 0.087151 0.107214 0.078742
C69   C     C_R   0.899491 0.046694 0.007257 -0.005963
C70   C     C_R   0.911813 0.073657 0.929969 -0.233065
C71   C     C_R   0.011286 0.102807 0.933186 0.077517
C72   C     C_R   0.107589 0.161236 0.036948 0.033701
C73   C     C_R   0.770535 0.852135 0.933517 -0.181143
C74   C     C_R   0.663780 0.763255 0.867929 -0.088134
C75   C     C_R   0.574314 0.778908 0.835594 -0.069959
C76   C     C_R   0.094281 0.061364 0.813164 -0.194393
C77   C     C_R   0.591507 0.883397 0.866348 -0.128239
C78   C     C_R   0.908072 0.000372 0.198757 -0.145037
C79   C     C_R   0.698125 0.972065 0.928050 -0.160780
C80   C     C_R   0.788739 0.957633 0.964345 0.105958
C81   C     C_R   0.006467 0.046864 0.828880 -0.167118
C82   C     C_R   0.089839 0.090085 0.287892 -0.104858
F1    F     F_    0.518887 0.458221 0.571508 -0.718238
F2    F     F_    0.988963 0.319649 0.326269 -0.717885
H1    H     H_    0.257278 0.061988 0.382281 0.112659
H2    H     H_    0.490813 0.728283 0.246428 0.106902
H3    H     H_    0.178287 0.378909 0.601005 0.140633
H4    H     H_    0.366271 0.690656 0.461118 0.115016
H5    H     H_    0.368750 0.520865 0.421161 0.147220
H6    H     H_    0.287918 0.782033 0.393575 0.135063
H7    H     H_    0.597812 0.087795 0.441231 0.171727
H8    H     H_    0.441079 0.135663 0.321883 0.145239
H9    H     H_    0.470231 0.320317 0.377683 0.147234
H10   H     H_    0.533670 0.370362 0.697831 0.164025
H11   H     H_    0.503205 0.185240 0.643175 0.151789
H12   H     H_    0.176311 0.818483 0.646671 0.113527
H13   H     H_    0.634582 0.064809 0.068911 0.139499
H14   H     H_    0.835146 0.148441 0.138501 0.152262
H15   H     H_    0.698361 0.313424 0.361362 0.137159
H16   H     H_    0.567514 0.148756 0.180105 0.101645
H17   H     H_    0.860493 0.507439 0.407869 0.129925
H18   H     H_    0.133533 0.520924 0.722147 0.137981
H19   H     H_    0.295437 0.701202 0.788683 0.117328
H20   H     H_    0.427665 0.875066 0.961174 0.106474
H21   H     H_    0.364621 0.993537 0.042338 0.091594
H22   H     H_    0.167680 0.936454 0.951690 0.111729
H23   H     H_    0.824600 0.979137 0.150304 0.113048
H24   H     H_    0.664836 0.005570 0.330903 0.168021
H25   H     H_    0.033557 0.761850 0.780819 0.120337
H26   H     H_    0.536593 0.359119 0.918104 0.098256
H27   H     H_    0.678110 0.640042 0.977490 0.134653
H28   H     H_    0.620993 0.503502 0.083976 0.118524
H29   H     H_    0.512889 0.383218 0.112461 0.084965
H30   H     H_    0.471015 0.248519 0.173501 0.096456
H31   H     H_    0.284757 0.144592 0.137689 0.104440
H32   H     H_    0.181542 0.317136 0.983602 0.120373
H33   H     H_    0.368001 0.416892 0.016151 0.119703
H34   H     H_    0.173633 0.148342 0.318959 0.092452
H35   H     H_    0.327238 0.343456 0.667226 0.185965
H36   H     H_    0.170831 0.202210 0.203825 0.125453
H37   H     H_    0.839289 0.045999 0.854993 0.168664
H38   H     H_    0.839005 0.838395 0.954652 0.119285
H39   H     H_    0.650531 0.681999 0.839068 0.142056
H40   H     H_    0.491718 0.710013 0.784262 0.119466
H41   H     H_    0.522328 0.895358 0.838878 0.112512
H42   H     H_    0.710169 0.051583 0.943860 0.117841
H43   H     H_    0.180005 0.110978 0.871981 0.203226
H44   H     H_    0.736881 0.623986 0.300372 0.099174
H45   H     H_    0.825476 0.650479 0.481827 0.119535
H46   H     H_    0.831261 0.882820 0.774081 0.316304
H47   H     H_    0.423784 0.212258 0.907301 0.309735
H48   H     H_    0.499267 0.592766 0.863852 0.304331
H49   H     H_    0.607018 0.843523 0.547386 0.319971
H50   H     H_    0.810824 0.260158 0.507735 0.307770
H51   H     H_    0.737694 0.799727 0.122613 0.106349
H52   H     H_    0.277891 0.897984 0.571308 0.103138
H53   H     H_    0.439927 0.458812 0.302367 0.118417
H54   H     H_    0.502952 0.564923 0.217278 0.106974
N1    N     N_R   0.941940 0.944580 0.650780 -0.073719
N2    N     N_R   0.204460 0.150250 0.707090 -0.078510
N3    N     N_R   0.794270 0.003240 0.446420 -0.069174
N4    N     N_R   0.204920 0.207570 0.650770 -0.096019
N5    N     N_R   0.793810 0.945920 0.502740 -0.091910
N6    N     N_R   0.943620 0.152590 0.446420 -0.071040
N7    N     N_R   0.055110 0.000900 0.707100 -0.066320
N8    N     N_R   0.795080 0.792430 0.349230 -0.045142
N9    N     N_R   0.206190 0.054080 0.497260 -0.049163
N10   N     N_R   0.056380 0.847410 0.553580 -0.044829
N11   N     N_R   0.944890 0.999100 0.292900 -0.043971
N12   N     N_R   0.058060 0.055420 0.349220 -0.043478
N13   N     N_R   0.943200 0.791100 0.497260 -0.043922
N14   N     N_R   0.795540 0.849750 0.292910 -0.057106
N15   N     N_R   0.205730 0.996760 0.553580 -0.038681
N16   N     N_R   0.056800 0.208900 0.502740 -0.067363
Ni1   Ni    Ni4+2 0.869690 0.869690 0.500000 0.272382
Ni2   Ni    Ni4+2 0.130310 0.130310 0.500000 0.210257
Ni3   Ni    Ni4+2 0.129250 0.998840 0.629170 0.248931
Ni4   Ni    Ni4+2 0.870750 0.001160 0.370830 0.217993
O1    O     O_3   0.814857 0.892471 0.708950 -0.715264
O2    O     O_3   0.345267 0.160433 0.852715 -0.778040
O3    O     O_3   0.461452 0.512719 0.827711 -0.777757
O4    O     O_3   0.660354 0.832738 0.527854 -0.691031
O5    O     O_3   0.807568 0.196137 0.457259 -0.801407

loop_
_geom_bond_atom_site_label_1
_geom_bond_atom_site_label_2
_ccdc_geom_bond_type
C25   C31   A    
C5    H52   S    
C66   C68   A    
C63   C65   A    
C6    C45   A    
C40   N4    A    
C27   C29   A    
C41   C42   A    
C6    C58   S    
C4    N16   A    
C35   C36   A    
N10   N13   A    
C3    C6    A    
H49   O4    S    
C57   C58   D    
C39   C41   A    
C4    H3    S    
C57   H27   S    
C9    C78   A    
C3    N14   A    
C37   C38   A    
C58   H28   S    
C36   C37   A    
N2    N4    A    
C38   H13   S    
C42   C53   S    
C30   C31   A    
C12   C64   A    
C5    N15   A    
C16   O2    S    
C45   H44   S    
C1    C81   A    
C23   C40   A    
C48   H20   S    
C2    H45   S    
H50   O5    S    
C30   H11   S    
C18   C19   A    
C73   C74   A    
H48   O3    S    
C66   C72   A    
N8    Ni1   S    
C19   C20   A    
C68   C69   A    
C70   C71   A    
C32   C38   A    
C4    C12   A    
C29   C30   A    
N11   Ni4   S    
N16   Ni2   S    
C61   C62   A    
C1    N1    A    
C9    C82   A    
C47   C53   A    
C26   H9    S    
C74   H39   S    
C28   C34   A    
C59   C60   A    
C51   H25   S    
C66   H36   S    
C13   C14   A    
N15   Ni3   S    
C16   N2    A    
C7    C56   A    
C64   O5    S    
C44   C46   A    
C39   H17   S    
C77   C79   A    
C22   C34   S    
N14   Ni4   S    
C52   N5    A    
C47   H19   S    
C74   C75   A    
C45   N8    A    
C18   H6    S    
C1    O1    S    
C8    C41   S    
C5    C7    A    
C49   H21   S    
C64   N6    A    
C25   C26   A    
C75   H40   S    
C13   C24   S    
C78   H23   S    
C51   C53   A    
C43   C44   A    
C62   H32   S    
C62   C63   A    
N2    Ni3   S    
C15   H5    S    
N7    Ni3   S    
N5    Ni1   S    
C47   C48   A    
C3    H51   S    
N1    Ni1   S    
C50   C51   A    
C26   C27   A    
N9    Ni2   S    
C75   C77   A    
C82   N12   A    
C39   C46   A    
N8    N14   A    
C61   C72   S    
C48   C49   A    
C79   H42   S    
C76   N7    A    
C73   H38   S    
C16   C23   A    
C7    C19   S    
C55   H26   S    
C67   H12   S    
C18   C24   A    
C42   C43   A    
C82   H34   S    
N6    Ni4   S    
C10   C17   A    
C77   H41   S    
C21   H7    S    
C2    N13   A    
C15   C17   A    
C54   C55   D    
N1    N7    A    
C25   H8    S    
C65   H29   S    
C2    C8    A    
C60   H31   S    
C76   C81   A    
C23   C55   S    
N12   Ni2   S    
C10   H54   S    
C34   C52   A    
N13   Ni1   S    
H46   O1    S    
C32   C33   A    
C56   N9    A    
N3    N5    A    
C9    C68   S    
C14   H4    S    
C71   C72   A    
C12   C44   S    
N11   N12   A    
C59   C65   A    
C11   C13   A    
C70   H37   S    
C56   H1    S    
C29   H10   S    
C28   H24   S    
C59   H30   S    
C63   H33   S    
C27   F1    S    
C33   C35   A    
C73   C80   A    
C32   H14   S    
C36   H15   S    
C22   C24   A    
N10   Ni3   S    
C54   O3    S    
N6    N16   A    
C69   C70   A    
N9    N15   A    
C33   F2    S    
C43   H18   S    
C10   C11   A    
C79   C80   A    
N3    Ni4   S    
C40   H35   S    
C20   C21   A    
C8    C67   A    
C49   C50   A    
C67   N10   A    
C50   H22   S    
C76   H43   S    
C14   C15   A    
C60   C61   A    
C69   C80   S    
C17   H53   S    
C28   N3    A    
C11   H2    S    
N4    Ni2   S    
C21   C22   A    
C35   C46   S    
H47   O2    S    
C54   C57   S    
C37   H16   S    
C78   N11   A    
C52   O4    S    
C71   C81   S    
C20   C31   S    
