data_str_m9_o11_o16_f0_sra.sym.166
_audit_creation_date              2012-12-11T14:17:33-0500
_audit_creation_method            fapswitch 2.2
_symmetry_space_group_name_H-M    P1
_symmetry_Int_Tables_number       1
_space_group_crystal_system       triclinic
_cell_length_a                    6.952721
_cell_length_b                    13.702195
_cell_length_c                    20.434159
_cell_angle_alpha                 102.533904
_cell_angle_beta                  90.337829
_cell_angle_gamma                 90.524651
_cell_volume                      1900.1758903

loop_
_atom_site_label
_atom_site_type_symbol
_atom_type_description
_atom_site_fract_x
_atom_site_fract_y
_atom_site_fract_z
_atom_type_partial_charge
O1    O     O_R   0.506860 0.599390 0.449240 -0.543396
O2    O     O_R   0.180220 0.594600 0.586780 -0.544267
O3    O     O_R   0.004500 0.400610 0.550760 -0.542728
C1    C     C_R   0.349331 0.613373 0.614374 0.736136
O4    O     O_R   0.177490 0.611290 0.451970 -0.543515
O5    O     O_R   0.001750 0.417420 0.414990 -0.540103
C2    C     C_R   0.346321 0.637241 0.434790 0.688717
O6    O     O_R   0.509610 0.582580 0.585010 -0.546381
O7    O     O_3   0.337420 0.436370 0.488020 -0.370002
V1    V     V_3+5 0.064680 0.511800 0.502220 1.437794
O8    O     O_R   0.671710 0.405400 0.413220 -0.542200
C3    C     C_R   0.839422 0.384451 0.386402 0.801571
O9    O     O_R   0.674440 0.388710 0.548030 -0.535846
C4    C     C_R   0.843438 0.361907 0.563852 0.767863
V2    V     V_3+5 0.564010 0.488200 0.497780 1.447771
O10   O     O_3   0.841140 0.563630 0.511980 -0.380636
C5    C     C_R   0.920111 0.110159 0.603642 -0.200790
H1    H     H_    0.937141 0.984475 0.678865 0.138834
H2    H     H_    0.947896 0.033439 0.578497 0.150193
C6    C     C_R   0.855075 0.280832 0.599210 -0.102742
C7    C     C_R   0.847380 0.304304 0.920950 -0.149387
C8    C     C_R   0.844082 0.379543 0.885660 -0.127873
C9    C     C_R   0.852323 0.356586 0.816294 -0.144397
C10   C     C_R   0.861287 0.256312 0.779573 0.070017
C11   C     C_R   0.867217 0.176942 0.815498 -0.003011
C12   C     C_R   0.867385 0.233532 0.708037 0.083713
C13   C     C_R   0.902025 0.134649 0.673637 0.069403
C14   C     C_R   0.912072 0.058701 0.708237 -0.164794
C15   C     C_R   0.880736 0.075481 0.777474 0.066796
C16   C     C_R   0.839693 0.305654 0.669065 -0.232109
C17   C     C_R   0.897585 0.182274 0.565508 -0.019587
C18   C     C_R   0.860388 0.204131 0.887640 -0.070131
H3    H     H_    0.804186 0.382056 0.691172 0.096158
H4    H     H_    0.842242 0.324605 0.975245 0.101246
H5    H     H_    0.856325 0.419924 0.793040 0.104022
H6    H     H_    0.837200 0.456831 0.912429 0.117404
C19   C     C_2   0.005148 0.288391 0.285561 -0.130010
C20   C     C_2   0.841687 0.315909 0.319618 -0.268881
H7    H     H_    0.142140 0.316584 0.308116 0.132899
H8    H     H_    0.703120 0.288091 0.298878 0.121012
C21   C     C_2   0.014122 0.220162 0.217951 -0.135880
C22   C     C_2   0.859271 0.183389 0.180327 -0.307006
H9    H     H_    0.156894 0.200366 0.198495 0.132631
H10   H     H_    0.715286 0.202342 0.198253 0.126888
C23   C     C_2   0.216907 0.754720 0.794673 -0.146512
C24   C     C_2   0.360196 0.819011 0.818827 -0.299997
H11   H     H_    0.094583 0.749153 0.826483 0.135914
H12   H     H_    0.482656 0.825115 0.788034 0.140122
C25   C     C_2   0.210500 0.693214 0.724650 -0.139623
C26   C     C_2   0.363091 0.676059 0.683168 -0.311791
H13   H     H_    0.072565 0.659006 0.707394 0.136306
H14   H     H_    0.505020 0.703690 0.700571 0.130230
C27   C     C_R   0.374955 0.887647 0.388461 -0.133682
H15   H     H_    0.370934 0.837249 0.480784 0.110753
H16   H     H_    0.386205 0.013162 0.306471 0.132876
H17   H     H_    0.384511 0.965607 0.414062 0.142058
C28   C     C_R   0.355649 0.713967 0.394917 -0.036379
C29   C     C_R   0.345253 0.686149 0.071062 -0.166780
C30   C     C_R   0.336810 0.610081 0.106182 -0.120005
C31   C     C_R   0.340607 0.632267 0.176043 -0.158366
C32   C     C_R   0.352980 0.732427 0.212991 0.079441
C33   C     C_R   0.361001 0.810247 0.176522 0.066718
C34   C     C_R   0.357772 0.757924 0.284741 0.074634
C35   C     C_R   0.369982 0.860353 0.318121 0.126578
C36   C     C_R   0.377121 0.934994 0.281252 -0.196628
C37   C     C_R   0.372840 0.910554 0.211666 -0.193329
C38   C     C_R   0.350932 0.685542 0.324818 -0.216498
C39   C     C_R   0.367501 0.814888 0.426571 -0.153945
C40   C     C_R   0.357248 0.785972 0.105377 -0.073689
H18   H     H_    0.341547 0.606519 0.303428 0.091564
H19   H     H_    0.342419 0.667116 0.016739 0.102220
H20   H     H_    0.333600 0.569101 0.199419 0.105811
H21   H     H_    0.327386 0.532982 0.079000 0.118797
H22   H     H_    0.378928 0.971348 0.185573 0.117103
O11   O     O_R   0.203230 0.917310 0.915020 -0.543686
O12   O     O_R   0.535500 0.888690 0.048040 -0.539853
O13   O     O_R   0.711080 0.082610 0.085000 -0.542414
C41   C     C_R   0.366768 0.863224 0.065617 0.688916
O14   O     O_R   0.532630 0.905370 0.913230 -0.549282
O15   O     O_R   0.708190 0.099410 0.949230 -0.543767
C42   C     C_R   0.363584 0.883170 0.886935 0.736507
O16   O     O_R   0.206120 0.900510 0.050790 -0.538698
O17   O     O_3   0.375360 0.063570 0.011990 -0.371852
V3    V     V_3+5 0.648170 0.988200 0.997780 1.406537
O18   O     O_R   0.038240 0.111390 0.951940 -0.543322
C43   C     C_R   0.869866 0.132747 0.931489 0.667283
O19   O     O_R   0.041120 0.094710 0.086750 -0.541367
C44   C     C_R   0.872853 0.115704 0.113508 0.752505
V4    V     V_3+5 0.148810 0.011930 0.002180 1.411330
O20   O     O_3   0.871750 0.936430 0.988010 -0.373326
C45   C     C_2   0.916296 0.151157 0.491233 0.723201
O21   O     O_2   0.848112 0.201691 0.454553 -0.577360
O22   O     O_R   0.009509 0.062028 0.462934 -0.671559
H23   H     H_    0.012482 0.048467 0.412149 0.296372
C46   C     C_3   0.854809 0.984513 0.808353 -0.317574
C47   C     C_3   0.843296 0.882064 0.760039 -0.816819
H24   H     H_    0.724742 0.879856 0.723047 0.222849
H25   H     H_    0.981247 0.864556 0.733398 0.243961
H26   H     H_    0.815482 0.823487 0.788803 0.214703
H27   H     H_    0.976167 0.981632 0.842800 0.203041
H28   H     H_    0.716906 0.992785 0.835530 0.194373

loop_
_geom_bond_atom_site_label_1
_geom_bond_atom_site_label_2
_ccdc_geom_bond_type
O19   C44   A    
O22   H23   S    
C21   C22   D    
C46   C47   S    
O15   V3    S    
O12   V3    S    
C6    C16   A    
O18   C43   A    
C12   C13   A    
O16   V4    S    
C22   H10   S    
C14   C15   A    
C10   C12   A    
O5    C3    A    
O14   V3    S    
C27   C35   A    
C29   H19   S    
H15   C39   S    
C31   H20   S    
V2    O10   S    
C37   H22   S    
C47   H26   S    
C32   C34   A    
C27   C39   A    
O15   C43   A    
O8    V2    S    
O13   C44   A    
C25   H13   S    
C47   H25   S    
C26   H14   S    
C9    C10   A    
O1    V2    S    
O7    V1    S    
C30   H21   S    
C1    O6    A    
C11   C18   A    
C30   C31   A    
O9    C4    A    
C3    C20   S    
C21   H9    S    
C40   C41   S    
V3    O20   S    
C28   C38   A    
H16   C36   S    
C34   C38   A    
C23   H11   S    
C11   C15   A    
O17   V4    S    
C7    C18   A    
C24   H12   S    
C33   C37   A    
C5    C13   A    
C4    C6    S    
H1    C14   S    
C10   C11   A    
C45   O21   D    
O4    C2    A    
O18   V4    S    
C46   H27   S    
O11   C42   A    
C7    H4    S    
O13   V3    S    
C29   C30   A    
C23   C24   D    
C33   C40   A    
C1    C26   S    
C31   C32   A    
O2    C1    A    
C19   C20   D    
C45   O22   S    
C24   C42   S    
C41   O16   A    
O17   V3    S    
C23   C25   S    
C18   C43   S    
C47   H24   S    
O3    C4    A    
C12   C16   A    
O6    V2    S    
C17   C45   S    
O19   V4    S    
C5    C17   A    
C22   C44   S    
C28   C39   A    
O2    V1    S    
C15   C46   S    
C27   H17   S    
C16   H3    S    
O1    C2    A    
O12   C41   A    
O5    V1    S    
O8    C3    A    
C29   C40   A    
C8    H6    S    
O14   C42   A    
C38   H18   S    
C35   C36   A    
O9    V2    S    
O7    V2    S    
O4    V1    S    
C19   H7    S    
O3    V1    S    
V1    O10   S    
C20   H8    S    
C5    H2    S    
C36   C37   A    
C19   C21   S    
C32   C33   A    
C9    H5    S    
O11   V4    S    
C34   C35   A    
C25   C26   D    
C13   C14   A    
C8    C9    A    
V4    O20   S    
C7    C8    A    
C2    C28   S    
C46   H28   S    
C6    C17   A    
