data_str_m2_o16_o19_f0_pcu.sym.165
_audit_creation_date              2012-12-10T17:33:43-0500
_audit_creation_method            fapswitch 2.2
_symmetry_space_group_name_H-M    P1
_symmetry_Int_Tables_number       1
_space_group_crystal_system       triclinic
_cell_length_a                    11.690129
_cell_length_b                    12.332268
_cell_length_c                    13.123792
_cell_angle_alpha                 116.569724
_cell_angle_beta                  77.520859
_cell_angle_gamma                 101.367611
_cell_volume                      1641.24318668

loop_
_atom_site_label
_atom_site_type_symbol
_atom_type_description
_atom_site_fract_x
_atom_site_fract_y
_atom_site_fract_z
_atom_type_partial_charge
C1    C     C_R   0.506678 0.854553 0.286224 0.852927
C2    C     C_R   0.471704 0.228837 0.837379 -0.056682
C3    C     C_R   0.551838 0.815704 0.078178 0.454455
C4    C     C_R   0.547061 0.737663 0.961639 -0.334109
C5    C     C_R   0.496781 0.617026 0.927582 -0.022293
C6    C     C_R   0.464961 0.566632 0.009614 0.002332
C7    C     C_R   0.444761 0.648278 0.127773 -0.093454
C8    C     C_R   0.453694 0.439023 0.979403 0.113950
C9    C     C_R   0.407755 0.395198 0.064559 0.098674
C10   C     C_R   0.367869 0.475835 0.175713 -0.377829
C11   C     C_R   0.371755 0.601150 0.204468 0.495204
C12   C     C_R   0.715810 0.000017 0.500091 0.807192
C13   C     C_R   0.495122 0.354394 0.868865 -0.149602
C14   C     C_R   0.425868 0.186902 0.922724 -0.210086
C15   C     C_R   0.498001 0.772408 0.163011 -0.198994
C16   C     C_R   0.692033 0.347079 0.329871 -0.289351
C17   C     C_R   0.333818 0.750939 0.638461 0.089306
C18   C     C_R   0.287860 0.642828 0.652546 -0.097562
C19   C     C_R   0.347355 0.540040 0.590111 -0.165964
C20   C     C_R   0.454655 0.543645 0.518965 -0.088525
C21   C     C_R   0.493824 0.651416 0.500373 0.225404
C22   C     C_R   0.523027 0.442400 0.464647 -0.094774
C23   C     C_R   0.486895 0.145360 0.714137 0.799466
C24   C     C_R   0.624049 0.445570 0.383493 0.092008
C25   C     C_R   0.656464 0.546887 0.357242 0.374658
C26   C     C_R   0.593592 0.648408 0.417420 -0.264844
C27   C     C_R   0.497738 0.339234 0.491005 0.041709
C28   C     C_R   0.661392 0.248089 0.358199 0.058433
C29   C     C_R   0.284112 0.001012 0.501182 0.854914
C30   C     C_1   0.837422 0.000817 0.501273 -0.169426
C31   C     C_1   0.939953 0.001980 0.502262 0.011522
C32   C     C_1   0.059854 0.003159 0.502917 0.008540
C33   C     C_1   0.162426 0.002869 0.502570 -0.158621
C34   C     C_R   0.396771 0.269907 0.036305 -0.179376
Cu1   Cu    Cu3+1 0.526510 0.098270 0.475420 0.965975
Cu2   Cu    Cu3+1 0.473490 0.901730 0.524580 0.958438
H1    H     H_    0.412336 0.090688 0.902353 0.135975
H2    H     H_    0.768996 0.346202 0.266593 0.171255
H3    H     H_    0.425702 0.331649 0.555018 0.159662
H4    H     H_    0.307983 0.457384 0.598694 0.209992
H5    H     H_    0.627155 0.723156 0.395910 0.205085
H6    H     H_    0.327602 0.439501 0.238155 0.139250
H7    H     H_    0.361526 0.235769 0.101271 0.135563
H8    H     H_    0.546410 0.384705 0.805640 0.154236
H9    H     H_    0.581459 0.771007 0.896158 0.138231
H10   H     H_    0.713670 0.172270 0.316413 0.151098
N1    N     N_R   0.566700 0.246290 0.438210 -0.184240
N2    N     N_R   0.434010 0.754320 0.561170 -0.209741
O1    O     O_R   0.533340 0.972510 0.318140 -0.543091
O2    O     O_R   0.488570 0.806530 0.359650 -0.570908
O3    O     O_R   0.685190 0.083000 0.479260 -0.574794
O4    O     O_R   0.640410 0.917020 0.520770 -0.599327
O5    O     O_R   0.511430 0.193470 0.640350 -0.572639
O6    O     O_R   0.466660 0.027490 0.681860 -0.612746
O7    O     O_R   0.359590 0.082980 0.479230 -0.588648
O8    O     O_R   0.314810 0.917000 0.520740 -0.534231
O9    O     O_3   0.761669 0.554604 0.286458 -0.630084
C35   C     C_3   0.742686 0.562796 0.187308 0.051180
H11   H     H_    0.817784 0.624366 0.167062 0.180698
H12   H     H_    0.660954 0.603103 0.198395 0.118777
C36   C     C_3   0.740906 0.436556 0.085816 -0.360789
H13   H     H_    0.810236 0.386818 0.086375 0.234883
H14   H     H_    0.653760 0.383571 0.094907 0.210045
C37   C     C_3   0.762941 0.445929 0.970925 -0.867511
H15   H     H_    0.702494 0.505044 0.971248 0.250121
H16   H     H_    0.748523 0.353628 0.900145 0.256595
H17   H     H_    0.855302 0.485330 0.954667 0.273767
C38   C     C_2   0.270249 0.859242 0.706712 0.375568
H18   H     H_    0.308310 0.936824 0.775247 0.064914
O10   O     O_2   0.170678 0.859004 0.691729 -0.581467
C39   C     C_2   0.178993 0.636234 0.734519 0.401348
H19   H     H_    0.137028 0.717275 0.793165 0.088781
O11   O     O_2   0.134729 0.539501 0.738336 -0.521857
O12   O     O_3   0.616900 0.930701 0.111161 -0.603492
C40   C     C_3   0.595121 0.998983 0.055890 0.060459
H20   H     H_    0.574523 0.090281 0.123604 0.160232
H21   H     H_    0.517158 0.960049 0.009049 0.119979
C41   C     C_3   0.706869 0.016881 0.976334 -0.343135
H22   H     H_    0.777170 0.074150 0.029292 0.219563
H23   H     H_    0.738906 0.927398 0.916892 0.228984
C42   C     C_3   0.684968 0.078469 0.905303 -0.920351
H24   H     H_    0.619464 0.019536 0.847171 0.259059
H25   H     H_    0.768599 0.093970 0.851959 0.267892
H26   H     H_    0.652085 0.167814 0.962820 0.260152
C43   C     C_2   0.463043 0.554927 0.810581 0.328340
H27   H     H_    0.512599 0.580198 0.742831 0.069976
O13   O     O_2   0.376108 0.479510 0.790488 -0.526970
O14   O     O_3   0.299109 0.676948 0.299702 -0.583357
C44   C     C_3   0.194402 0.611418 0.331916 0.050266
H28   H     H_    0.213613 0.571966 0.387049 0.157352
H29   H     H_    0.157268 0.537776 0.255010 0.145385
C45   C     C_3   0.099227 0.696088 0.400611 -0.332620
H30   H     H_    0.130447 0.768205 0.480116 0.277500
H31   H     H_    0.080497 0.738726 0.348058 0.221054
C46   C     C_3   0.985750 0.626971 0.435060 -0.829490
H32   H     H_    0.954048 0.549880 0.357699 0.276960
H33   H     H_    0.916484 0.689644 0.480112 0.272384
H34   H     H_    0.001265 0.590694 0.494034 0.255314

loop_
_geom_bond_atom_site_label_1
_geom_bond_atom_site_label_2
_ccdc_geom_bond_type
C16   C28   A    
C21   C26   A    
C28   N1    A    
C8    C13   A    
Cu1   O5    S    
C19   C20   A    
C17   N2    A    
Cu1   N1    S    
C12   O3    A    
C42   H24   S    
C46   H34   S    
C3    C15   A    
C43   H27   S    
C7    C11   A    
C28   H10   S    
C5    C6    A    
C41   H23   S    
C10   H6    S    
C35   H12   S    
C29   C33   S    
C18   C19   A    
C36   H14   S    
C2    C13   A    
C42   H25   S    
C46   H32   S    
C27   H3    S    
C8    C9    A    
Cu1   O1    S    
C1    C15   S    
C44   H29   S    
C1    O2    A    
Cu2   O4    S    
C21   N2    A    
C5    C43   S    
C35   C36   S    
C7    C15   A    
C16   C24   A    
C25   O9    S    
C12   O4    A    
C23   O5    A    
C4    H9    S    
C43   O13   D    
O12   C40   S    
Cu1   O7    S    
C37   H17   S    
C24   C25   A    
C10   C11   A    
C39   O11   D    
C41   H22   S    
C38   H18   S    
C6    C8    A    
C29   O7    A    
C35   H11   S    
C45   C46   S    
C3    O12   S    
Cu1   Cu2   S    
C37   H16   S    
C36   C37   S    
C40   H20   S    
Cu2   O8    S    
C31   C32   S    
C11   O14   S    
C45   H31   S    
C17   C18   A    
C20   C21   A    
C44   C45   S    
C40   H21   S    
C20   C22   A    
C22   C27   A    
Cu1   O3    S    
C9    C34   A    
C22   C24   A    
C3    C4    A    
C42   H26   S    
Cu2   O2    S    
C23   O6    A    
C9    C10   A    
C27   N1    A    
C18   C39   S    
C17   C38   S    
C12   C30   S    
C34   H7    S    
C4    C5    A    
C14   C34   A    
C46   H33   S    
C6    C7    A    
C29   O8    A    
C32   C33   T    
C25   C26   A    
C39   H19   S    
C37   H15   S    
C14   H1    S    
C41   C42   S    
O9    C35   S    
C30   C31   T    
C45   H30   S    
Cu2   N2    S    
C36   H13   S    
C2    C14   A    
C40   C41   S    
Cu2   O6    S    
C19   H4    S    
O14   C44   S    
C38   O10   D    
C2    C23   S    
C44   H28   S    
C1    O1    A    
C13   H8    S    
C26   H5    S    
C16   H2    S    
