data_str_m3_o18_o19_f0_pcu.sym.72
_audit_creation_date              2012-12-10T18:29:44-0500
_audit_creation_method            fapswitch 2.2
_symmetry_space_group_name_H-M    P1
_symmetry_Int_Tables_number       1
_space_group_crystal_system       triclinic
_cell_length_a                    11.531946
_cell_length_b                    14.983483
_cell_length_c                    15.266124
_cell_angle_alpha                 82.409542
_cell_angle_beta                  90.423366
_cell_angle_gamma                 104.657573
_cell_volume                      2528.67344268

loop_
_atom_site_label
_atom_site_type_symbol
_atom_type_description
_atom_site_fract_x
_atom_site_fract_y
_atom_site_fract_z
_atom_type_partial_charge
C1    C     C_R   0.484589 0.441965 0.663076 0.896252
C2    C     C_R   0.708664 0.671235 0.985316 0.538266
C3    C     C_R   0.682648 0.842646 0.637404 -0.381674
C4    C     C_R   0.314382 0.152763 0.368949 -0.414249
C5    C     C_R   0.651370 0.752804 0.614242 0.622222
C6    C     C_R   0.349898 0.245151 0.385638 0.618084
C7    C     C_R   0.508788 0.793976 0.513871 -0.061151
C8    C     C_R   0.484992 0.205926 0.493288 -0.096894
C9    C     C_R   0.532344 0.884067 0.538498 0.016818
C10   C     C_R   0.458951 0.113334 0.475011 0.017365
C11   C     C_R   0.627500 0.909290 0.596221 0.045967
C12   C     C_R   0.519805 0.558273 0.336945 0.901133
C13   C     C_R   0.364819 0.086380 0.416430 0.043619
C14   C     C_R   0.469904 0.950642 0.503760 -0.067636
C15   C     C_R   0.518596 0.046436 0.514967 -0.061860
C16   C     C_R   0.718298 0.501471 0.499377 0.881118
C17   C     C_R   0.281793 0.498870 0.499447 0.878437
C18   C     C_R   0.625676 0.071952 0.563987 0.497380
C19   C     C_R   0.360263 0.923880 0.458834 0.462729
C20   C     C_R   0.672998 0.001575 0.608283 -0.288071
C21   C     C_R   0.314635 0.992916 0.410745 -0.304964
C22   C     C_1   0.839559 0.503608 0.498026 -0.197523
C23   C     C_R   0.521470 0.347940 0.936758 -0.113844
C24   C     C_1   0.160723 0.497356 0.497553 -0.214379
C25   C     C_1   0.941273 0.502023 0.496939 -0.004870
C26   C     C_1   0.058949 0.498856 0.496704 -0.020519
C27   C     C_R   0.486515 0.407350 0.757735 -0.250648
C28   C     C_R   0.558684 0.593133 0.244410 -0.250519
C29   C     C_R   0.453089 0.284198 0.883077 0.429614
C30   C     C_R   0.672279 0.714134 0.132101 0.390611
C31   C     C_R   0.434797 0.313972 0.793640 0.337330
C32   C     C_R   0.608152 0.688259 0.213747 0.367659
C33   C     C_R   0.545986 0.470689 0.812411 -0.304905
C34   C     C_R   0.666765 0.646696 0.073967 -0.122538
C35   C     C_R   0.561134 0.526895 0.189102 -0.296243
C36   C     C_R   0.564181 0.443595 0.901349 -0.014635
C37   C     C_R   0.614780 0.551529 0.104977 -0.022536
C38   C     C_3   0.525590 0.193001 0.142894 0.079623
C39   C     C_3   0.647718 0.188053 0.180752 -0.369745
C40   C     C_3   0.637571 0.156326 0.280143 -0.903498
C41   C     C_3   0.878822 0.768584 0.909900 0.088009
C42   C     C_3   0.964383 0.721229 0.965543 -0.410907
C43   C     C_3   0.090641 0.749196 0.924314 -0.920328
C44   C     C_3   0.746765 0.194541 0.633508 0.036776
C45   C     C_R   0.616666 0.510682 0.957243 0.061249
C46   C     C_3   0.657471 0.181632 0.711613 -0.382709
C47   C     C_3   0.720041 0.223806 0.790551 -0.894930
C48   C     C_3   0.234172 0.795528 0.402966 0.042470
C49   C     C_3   0.097736 0.776630 0.411429 -0.300882
C50   C     C_3   0.036187 0.729249 0.334831 -0.994714
C51   C     C_3   0.490271 0.779491 0.253849 0.079403
C52   C     C_3   0.485426 0.841269 0.165639 -0.308615
C53   C     C_3   0.376185 0.881521 0.162508 -1.010354
C54   C     C_3   0.261593 0.262517 0.719217 0.109060
C55   C     C_3   0.212752 0.206976 0.643986 -0.281940
C56   C     C_R   0.606806 0.482935 0.048583 0.062669
C57   C     C_3   0.088814 0.218176 0.618078 -1.005846
C58   C     C_3   0.278518 0.179720 0.938448 0.142825
C59   C     C_3   0.251360 0.141526 0.036012 -0.331427
C60   C     C_3   0.116979 0.116357 0.057213 -1.013168
C61   C     C_3   0.834389 0.832435 0.158650 0.155459
C62   C     C_3   0.841450 0.926848 0.189264 -0.300746
C63   C     C_3   0.942976 0.951223 0.253656 -1.005327
C64   C     C_3   0.178449 0.291395 0.339243 0.082933
C65   C     C_3   0.135032 0.283258 0.244912 -0.373968
C66   C     C_3   0.998363 0.257646 0.242285 -0.953631
C67   C     C_R   0.585913 0.387617 0.080986 -0.378446
C68   C     C_3   0.822697 0.703596 0.647414 0.062162
C69   C     C_3   0.867213 0.621974 0.693866 -0.328457
C70   C     C_3   0.002620 0.638772 0.682176 -0.934658
C71   C     C_R   0.673841 0.604991 0.926463 -0.360168
C72   C     C_R   0.545794 0.318535 0.025389 0.518808
H1    H     H_    0.515428 0.455113 0.211086 0.212312
H2    H     H_    0.246483 0.132304 0.321009 0.154964
H3    H     H_    0.466679 0.121055 0.152029 0.164812
H4    H     H_    0.478595 0.233198 0.180099 0.121028
H5    H     H_    0.682747 0.137929 0.147820 0.232372
H6    H     H_    0.713278 0.257028 0.167586 0.222824
H7    H     H_    0.606509 0.207237 0.314548 0.276869
H8    H     H_    0.726597 0.151571 0.305435 0.270827
H9    H     H_    0.573657 0.086659 0.294901 0.260446
H10   H     H_    0.923899 0.843833 0.893718 0.172633
H11   H     H_    0.862797 0.741653 0.845503 0.124496
H12   H     H_    0.576348 0.542413 0.784119 0.228700
H13   H     H_    0.968943 0.740721 0.033250 0.220398
H14   H     H_    0.930510 0.644331 0.970685 0.213741
H15   H     H_    0.089008 0.728871 0.856953 0.267244
H16   H     H_    0.149390 0.713306 0.965551 0.267632
H17   H     H_    0.128703 0.825561 0.920593 0.263981
H18   H     H_    0.789416 0.270276 0.617626 0.187296
H19   H     H_    0.821575 0.162666 0.652215 0.142428
H20   H     H_    0.585173 0.216154 0.691686 0.258023
H21   H     H_    0.616069 0.106533 0.732716 0.231130
H22   H     H_    0.794937 0.192099 0.811064 0.253718
H23   H     H_    0.605095 0.368714 0.149125 0.157271
H24   H     H_    0.655164 0.210211 0.847069 0.298529
H25   H     H_    0.755539 0.300300 0.773421 0.251726
H26   H     H_    0.256586 0.727862 0.401320 0.162046
H27   H     H_    0.267724 0.838472 0.338824 0.119113
H28   H     H_    0.065889 0.730756 0.474195 0.230047
H29   H     H_    0.071872 0.842845 0.413300 0.209324
H30   H     H_    0.062944 0.775281 0.271209 0.259699
H31   H     H_    0.937458 0.714174 0.344526 0.267056
H32   H     H_    0.060491 0.662482 0.332128 0.271765
H33   H     H_    0.479489 0.819349 0.308184 0.150699
H34   H     H_    0.693434 0.629049 0.857466 0.166945
H35   H     H_    0.413480 0.716243 0.260762 0.111192
H36   H     H_    0.567246 0.899875 0.156175 0.247239
H37   H     H_    0.481159 0.799600 0.110135 0.228745
H38   H     H_    0.292468 0.824805 0.174602 0.264507
H39   H     H_    0.372386 0.921352 0.096291 0.282557
H40   H     H_    0.382788 0.929750 0.212749 0.254563
H41   H     H_    0.263780 0.336906 0.697821 0.118313
H42   H     H_    0.198680 0.237233 0.776923 0.105311
H43   H     H_    0.274475 0.231473 0.585493 0.237987
H44   H     H_    0.207188 0.132041 0.664902 0.216962
H45   H     H_    0.752794 0.018389 0.646586 0.145725
H46   H     H_    0.026233 0.194726 0.676223 0.253662
H47   H     H_    0.054395 0.175284 0.564913 0.266636
H48   H     H_    0.093222 0.292137 0.593438 0.274357
H49   H     H_    0.226536 0.127849 0.897791 0.160571
H50   H     H_    0.245978 0.244319 0.924569 0.074893
H51   H     H_    0.285655 0.078590 0.052976 0.235909
H52   H     H_    0.296542 0.195342 0.077129 0.215040
H53   H     H_    0.080147 0.177851 0.039255 0.270622
H54   H     H_    0.101222 0.093349 0.129111 0.277177
H55   H     H_    0.069348 0.058925 0.020788 0.273356
H56   H     H_    0.233057 0.973950 0.374430 0.153863
H57   H     H_    0.915213 0.839523 0.116800 0.134156
H58   H     H_    0.838255 0.780806 0.217763 0.128488
H59   H     H_    0.856178 0.981664 0.130899 0.218784
H60   H     H_    0.756011 0.925342 0.223089 0.246906
H61   H     H_    0.922727 0.902328 0.316126 0.279866
H62   H     H_    0.952224 0.022938 0.269219 0.266993
H63   H     H_    0.029219 0.947203 0.224584 0.263471
H64   H     H_    0.148711 0.349171 0.363030 0.178925
H65   H     H_    0.134445 0.227336 0.384923 0.121158
H66   H     H_    0.171226 0.350769 0.202383 0.231914
H67   H     H_    0.539409 0.230210 0.546528 0.209486
H68   H     H_    0.168894 0.229373 0.217482 0.219764
H69   H     H_    0.960341 0.189975 0.283890 0.263037
H70   H     H_    0.969807 0.251356 0.173258 0.266470
H71   H     H_    0.962496 0.312286 0.266670 0.271541
H72   H     H_    0.867582 0.766596 0.677527 0.112314
H73   H     H_    0.848644 0.714718 0.575849 0.156096
H74   H     H_    0.844545 0.611814 0.765534 0.207843
H75   H     H_    0.821698 0.556848 0.667511 0.229778
H76   H     H_    0.027149 0.641340 0.611760 0.272836
H77   H     H_    0.032538 0.581053 0.721140 0.264008
H78   H     H_    0.449401 0.772394 0.461948 0.164147
H79   H     H_    0.049842 0.705376 0.705262 0.262339
H80   H     H_    0.749094 0.860682 0.686954 0.151032
N1    N     N_R   0.566020 0.731700 0.552730 -0.140948
N2    N     N_R   0.433980 0.268300 0.447270 -0.159173
O1    O     O_R   0.466720 0.383110 0.605620 -0.599463
O2    O     O_3   0.769464 0.762649 0.955181 -0.597360
O3    O     O_3   0.692293 0.164605 0.554994 -0.659981
O4    O     O_3   0.287946 0.833409 0.478332 -0.644876
O5    O     O_3   0.602270 0.756997 0.264724 -0.629505
O6    O     O_3   0.376002 0.248752 0.741034 -0.627708
O7    O     O_3   0.402139 0.192550 0.918418 -0.579599
O8    O     O_3   0.731328 0.806883 0.106944 -0.597321
O9    O     O_3   0.305561 0.314767 0.338913 -0.627523
O10   O     O_3   0.696574 0.682591 0.658651 -0.633718
O11   O     O_R   0.533280 0.616890 0.394380 -0.589471
O12   O     O_R   0.509090 0.531900 0.639510 -0.572110
O13   O     O_R   0.490910 0.468100 0.360490 -0.573342
O14   O     O_R   0.644370 0.425610 0.483050 -0.605000
O15   O     O_R   0.355630 0.574390 0.516950 -0.609526
O16   O     O_R   0.686740 0.574390 0.516930 -0.594715
O17   O     O_R   0.313260 0.425610 0.483070 -0.599785
O18   O     O_3   0.537111 0.223665 0.050802 -0.604647
Zn1   Zn    Zn3+2 0.471710 0.400660 0.477370 0.967887
Zn2   Zn    Zn3+2 0.528290 0.599340 0.522630 0.983322

loop_
_geom_bond_atom_site_label_1
_geom_bond_atom_site_label_2
_ccdc_geom_bond_type
C53   H38   S    
C15   C18   A    
C64   H64   S    
C50   H32   S    
C44   O3    S    
C45   C71   A    
C34   C37   A    
C41   C42   S    
C12   O13   A    
C66   H69   S    
C38   H4    S    
C27   C33   A    
O17   Zn1   S    
C3    H80   S    
C43   H17   S    
C12   C28   S    
C8    H67   S    
C43   H16   S    
C23   C29   A    
C60   H53   S    
C35   C37   A    
C24   C26   T    
C10   C15   A    
C49   H29   S    
C38   C39   S    
C17   O15   A    
C46   H20   S    
C55   H44   S    
C41   H11   S    
C54   H41   S    
C33   C36   A    
C7    C9    A    
C67   C72   A    
C4    C13   A    
C1    O1    A    
C46   C47   S    
C37   C56   A    
C45   C56   A    
C68   C69   S    
C22   C25   T    
C2    O2    S    
C47   H24   S    
C40   H8    S    
C42   H14   S    
C8    N2    A    
C4    H2    S    
C31   O6    S    
C61   H57   S    
C57   H47   S    
C32   O5    S    
O1    Zn1   S    
C59   C60   S    
C67   H23   S    
C69   H74   S    
C65   H68   S    
C61   C62   S    
C70   H77   S    
C64   O9    S    
C23   C72   A    
C20   H45   S    
C25   C26   S    
C44   C46   S    
C38   H3    S    
C68   O10   S    
C59   H51   S    
O14   Zn1   S    
C11   C20   A    
C58   H50   S    
C17   C24   S    
O12   Zn2   S    
C30   C34   A    
C27   C31   A    
C51   C52   S    
C39   H6    S    
C62   H60   S    
C28   C32   A    
C28   C35   A    
C4    C6    A    
C12   O11   A    
C14   C19   A    
C66   H71   S    
O11   Zn2   S    
C48   O4    S    
N1    Zn2   S    
C61   O8    S    
C63   H63   S    
O15   Zn2   S    
C9    C14   A    
C63   H62   S    
C62   C63   S    
C62   H59   S    
C29   O7    S    
C7    H78   S    
C7    N1    A    
C51   H33   S    
C40   H7    S    
C13   C21   A    
C36   C45   A    
C42   H13   S    
C21   H56   S    
C9    C11   A    
C6    N2    A    
C44   H19   S    
C61   H58   S    
C57   H48   S    
C65   H66   S    
C53   H40   S    
C51   H35   S    
C48   C49   S    
C50   H30   S    
C55   C57   S    
C69   H75   S    
C70   H76   S    
C42   C43   S    
C30   O8    S    
C2    C71   A    
C63   H61   S    
C39   C40   S    
C44   H18   S    
C52   C53   S    
O16   Zn2   S    
C59   H52   S    
C39   H5    S    
C48   H27   S    
C54   C55   S    
C35   H1    S    
C58   H49   S    
C16   C22   S    
N2    Zn1   S    
C19   C21   A    
C2    C34   A    
C19   O4    S    
C40   H9    S    
C60   H55   S    
C70   H79   S    
C3    C5    A    
C10   C13   A    
C17   O17   A    
C38   O18   S    
C66   H70   S    
C23   C36   A    
C56   C67   A    
C48   H26   S    
C5    O10   S    
C47   H25   S    
O13   Zn1   S    
C43   H15   S    
C64   C65   S    
C41   O2    S    
C60   H54   S    
C58   C59   S    
C29   C31   A    
C18   O3    S    
C49   H28   S    
C30   C32   A    
C53   H39   S    
C46   H21   S    
C55   H43   S    
C52   H37   S    
C16   O14   A    
C5    N1    A    
C41   H10   S    
C54   H42   S    
C51   O5    S    
C47   H22   S    
C68   H72   S    
C18   C20   A    
C65   C66   S    
C69   C70   S    
C33   H12   S    
C3    C11   A    
C54   O6    S    
C16   O16   A    
C50   H31   S    
C6    O9    S    
C52   H36   S    
C8    C10   A    
C49   C50   S    
C71   H34   S    
C64   H65   S    
C1    C27   S    
C14   C15   A    
C58   O7    S    
C72   O18   S    
C68   H73   S    
C1    O12   A    
C57   H46   S    
