data_str_m9_o18_o22_f0_sra.sym.43
_audit_creation_date              2012-12-11T15:29:39-0500
_audit_creation_method            fapswitch 2.2
_symmetry_space_group_name_H-M    P1
_symmetry_Int_Tables_number       1
_space_group_crystal_system       triclinic
_cell_length_a                    21.408907
_cell_length_b                    7.247103
_cell_length_c                    14.765608
_cell_angle_alpha                 90.542659
_cell_angle_beta                  74.412466
_cell_angle_gamma                 89.871498
_cell_volume                      2206.53787219

loop_
_atom_site_label
_atom_site_type_symbol
_atom_type_description
_atom_site_fract_x
_atom_site_fract_y
_atom_site_fract_z
_atom_type_partial_charge
O1    O     O_R   0.464160 0.506670 0.130070 -0.534149
O2    O     O_R   0.535840 0.006670 0.869930 -0.534664
O3    O     O_R   0.589710 0.179080 0.006710 -0.545776
O4    O     O_R   0.410290 0.679080 0.993290 -0.544686
C1    C     C_R   0.616314 0.344008 0.002120 0.648641
C2    C     C_R   0.383703 0.844618 0.997906 0.649383
O5    O     O_R   0.467940 0.177220 0.138010 -0.537079
O6    O     O_R   0.532060 0.677220 0.861990 -0.536956
O7    O     O_R   0.413200 0.002810 0.002170 -0.541482
O8    O     O_R   0.586800 0.502810 0.997830 -0.540098
C3    C     C_R   0.456390 0.346618 0.174366 0.686001
C4    C     C_R   0.543655 0.844444 0.825533 0.685928
O9    O     O_3   0.482180 0.337850 0.955280 -0.375628
O10   O     O_3   0.517820 0.837850 0.044720 -0.375535
V1    V     V_3+5 0.503310 0.064600 0.008300 1.402432
V2    V     V_3+5 0.496690 0.564600 0.991700 1.405365
C5    C     C_R   0.570890 0.847126 0.723661 -0.033885
C6    C     C_R   0.428983 0.359994 0.276009 -0.032439
C7    C     C_R   0.928121 0.870284 0.276269 -0.031029
C8    C     C_R   0.072021 0.358948 0.724035 -0.030923
C9    C     C_R   0.559074 0.791254 0.568038 -0.098561
C10   C     C_R   0.440274 0.441128 0.429356 -0.097927
C11   C     C_R   0.531767 0.807112 0.664488 -0.183392
C12   C     C_R   0.467768 0.413680 0.333581 -0.183836
C13   C     C_R   0.637532 0.871126 0.686506 -0.189627
C14   C     C_R   0.362536 0.334012 0.313971 -0.189364
C15   C     C_R   0.667194 0.851025 0.588755 0.019192
C16   C     C_R   0.332705 0.364835 0.410928 0.018898
C17   C     C_R   0.626471 0.810371 0.529246 0.091402
C18   C     C_R   0.373057 0.419276 0.468893 0.091429
C19   C     C_R   0.735715 0.866768 0.548959 0.058146
C20   C     C_R   0.264373 0.345838 0.451354 0.057957
C21   C     C_R   0.762587 0.842404 0.449885 0.021048
C22   C     C_R   0.237316 0.380741 0.549575 0.020690
C23   C     C_R   0.720193 0.801401 0.393840 -0.279648
C24   C     C_R   0.279329 0.435072 0.604122 -0.279106
C25   C     C_R   0.653114 0.785976 0.432217 0.327297
C26   C     C_R   0.346221 0.453958 0.565083 0.328184
C27   C     C_R   0.778365 0.905151 0.605136 -0.173814
C28   C     C_R   0.222089 0.293846 0.396615 -0.173511
C29   C     C_R   0.844656 0.920338 0.566294 -0.209531
C30   C     C_R   0.155977 0.275488 0.436092 -0.209146
C31   C     C_R   0.871508 0.899829 0.469948 0.141493
C32   C     C_R   0.128950 0.306542 0.531687 0.140905
C33   C     C_R   0.831178 0.860263 0.410006 0.105223
C34   C     C_R   0.168922 0.359856 0.590128 0.104987
C35   C     C_R   0.938668 0.921896 0.432963 -0.165163
C36   C     C_R   0.061969 0.281987 0.569476 -0.164455
C37   C     C_R   0.966670 0.909257 0.336538 -0.174161
C38   C     C_R   0.033789 0.306429 0.665315 -0.174894
C39   C     C_R   0.861373 0.844241 0.312256 -0.214368
C40   C     C_R   0.138579 0.386807 0.687194 -0.213993
H1    H     H_    0.834675 0.818199 0.261245 0.091942
H2    H     H_    0.164986 0.424285 0.737155 0.091580
H3    H     H_    0.018288 0.931677 0.308764 0.099868
H4    H     H_    0.982297 0.282981 0.693860 0.100171
H5    H     H_    0.875236 0.950630 0.612353 0.118451
H6    H     H_    0.125679 0.234741 0.391157 0.118167
H7    H     H_    0.527161 0.760368 0.524165 0.170881
H8    H     H_    0.471901 0.482435 0.472056 0.170076
H9    H     H_    0.480140 0.786093 0.693170 0.127294
H10   H     H_    0.519257 0.435951 0.304159 0.125030
H11   H     H_    0.664638 0.899326 0.736758 0.088390
H12   H     H_    0.335738 0.294449 0.264838 0.087925
H13   H     H_    0.737687 0.778861 0.319264 0.112835
H14   H     H_    0.261677 0.465473 0.677978 0.113312
H15   H     H_    0.762447 0.925082 0.680087 0.114384
H16   H     H_    0.238154 0.265471 0.322341 0.114634
H17   H     H_    0.969421 0.952533 0.478673 0.112353
H18   H     H_    0.031487 0.240980 0.524917 0.112665
C41   C     C_3   0.228816 0.768980 0.909548 -0.321134
C42   C     C_3   0.787578 0.159911 0.005569 -0.311795
H19   H     H_    0.211354 0.625905 0.903931 0.135427
H20   H     H_    0.816402 0.077315 0.944592 0.138278
H21   H     H_    0.223211 0.845352 0.847159 0.130535
H22   H     H_    0.793823 0.094591 0.070539 0.137267
C43   C     C_3   0.301682 0.762781 0.908193 -0.330989
C44   C     C_3   0.715295 0.153223 0.006774 -0.313967
H23   H     H_    0.330921 0.836224 0.845186 0.127931
H24   H     H_    0.687415 0.084432 0.072249 0.140624
H25   H     H_    0.318589 0.616710 0.901890 0.139797
H26   H     H_    0.710034 0.067531 0.946278 0.133547
H27   H     H_    0.179002 0.610785 0.084398 0.143443
H28   H     H_    0.831098 0.370388 0.845587 0.121356
H29   H     H_    0.286141 0.601398 0.082744 0.138440
H30   H     H_    0.723443 0.360859 0.847463 0.127758
C45   C     C_3   0.197185 0.754158 0.086095 -0.326240
C46   C     C_3   0.801738 0.447049 0.908347 -0.325755
C47   C     C_3   0.214958 0.061270 0.005916 -0.310107
C48   C     C_3   0.770039 0.471126 0.084904 -0.321051
C49   C     C_3   0.187443 0.863503 0.000998 0.122058
C50   C     C_3   0.812632 0.362041 0.999110 0.122744
H31   H     H_    0.187049 0.133343 0.071236 0.136245
H32   H     H_    0.785901 0.617558 0.082371 0.136776
H33   H     H_    0.209577 0.143893 0.945245 0.138242
H34   H     H_    0.776318 0.412255 0.151245 0.129945
C51   C     C_3   0.312451 0.852623 0.998766 0.121377
C52   C     C_3   0.687625 0.350560 0.001337 0.120333
C53   C     C_3   0.270016 0.747869 0.084850 -0.315257
C54   C     C_3   0.728899 0.440522 0.909676 -0.315097
C55   C     C_3   0.287259 0.054909 0.004670 -0.315539
C56   C     C_3   0.697190 0.464372 0.086214 -0.330629
H35   H     H_    0.316008 0.134322 0.943449 0.142015
H36   H     H_    0.668642 0.402067 0.153124 0.128459
H37   H     H_    0.293465 0.123603 0.069449 0.132508
H38   H     H_    0.678727 0.607554 0.084229 0.141451
H39   H     H_    0.168511 0.819755 0.152816 0.121532
H40   H     H_    0.818410 0.592837 0.901687 0.141592
H41   H     H_    0.276166 0.810400 0.151028 0.127997
H42   H     H_    0.711204 0.583241 0.903708 0.137571
O11   O     O_R   0.913210 0.208550 0.002110 -0.539562
O12   O     O_R   0.086790 0.708550 0.997890 -0.538716
O13   O     O_R   0.032060 0.539960 0.861980 -0.538286
O14   O     O_R   0.967940 0.039960 0.138020 -0.538344
C57   C     C_R   0.043838 0.371550 0.825498 0.688407
C58   C     C_R   0.956119 0.873609 0.174598 0.688334
O15   O     O_R   0.910290 0.538020 0.993280 -0.544562
O16   O     O_R   0.089710 0.038020 0.006720 -0.545248
O17   O     O_R   0.964160 0.712340 0.130090 -0.535375
O18   O     O_R   0.035840 0.212340 0.869910 -0.535233
C59   C     C_R   0.883983 0.369909 0.998059 0.641081
C60   C     C_R   0.116045 0.870039 0.001992 0.641432
O19   O     O_3   0.017820 0.379210 0.044690 -0.375848
O20   O     O_3   0.982180 0.879210 0.955310 -0.376085
V3    V     V_3+5 0.996690 0.652500 0.991710 1.392617
V4    V     V_3+5 0.003310 0.152500 0.008290 1.393214
O21   O     O_3   0.612623 0.745105 0.375814 -0.659785
H43   H     H_    0.638610 0.731060 0.309516 0.279895
O22   O     O_3   0.386333 0.507895 0.619990 -0.660529
H44   H     H_    0.360245 0.527878 0.685838 0.279168

loop_
_geom_bond_atom_site_label_1
_geom_bond_atom_site_label_2
_ccdc_geom_bond_type
H27   C45   S    
C3    C6    S    
C54   H42   S    
C45   C49   S    
C44   H26   S    
O11   C59   A    
C21   C33   A    
O1    C3    A    
C42   H22   S    
O2    C4    A    
C30   H6    S    
C2    O7    A    
C27   C29   A    
C36   C38   A    
O5    C3    A    
C5    C11   A    
C6    C12   A    
C23   C25   A    
C9    H7    S    
C10   H8    S    
C46   H40   S    
C24   H14   S    
O13   V3    S    
C23   H13   S    
C53   H41   S    
C34   C40   A    
C15   C17   A    
C18   C26   A    
C13   H11   S    
C14   H12   S    
C35   H17   S    
C42   C44   S    
C48   C56   S    
C46   C50   S    
C40   H2    S    
C49   C60   S    
C6    C14   A    
C4    C5    S    
C44   C52   S    
C8    C38   A    
C19   C21   A    
C43   C51   S    
C22   C34   A    
C47   C49   S    
H30   C54   S    
O5    V1    S    
C55   H35   S    
C29   C31   A    
C30   C32   A    
O4    V2    S    
C51   C53   S    
C32   C34   A    
C48   H32   S    
C45   C53   S    
C43   H23   S    
C55   H37   S    
C15   C19   A    
C26   O22   S    
C16   C20   A    
C42   H20   S    
C41   H19   S    
O19   V4    S    
C37   H3    S    
C9    C17   A    
C38   H4    S    
C39   H1    S    
C20   C22   A    
C47   H33   S    
C2    C51   S    
O16   C60   A    
O12   C60   A    
H29   C53   S    
C7    C37   A    
C48   C50   S    
C43   H25   S    
O6    C4    A    
O11   V4    S    
C44   H24   S    
C41   C49   S    
O1    V2    S    
C56   H36   S    
O2    V1    S    
C31   C33   A    
O12   V3    S    
C46   C54   S    
O18   V4    S    
O17   V3    S    
O4    C2    A    
C52   C54   S    
C9    C11   A    
C10   C12   A    
C13   C15   A    
O21   H43   S    
C41   C43   S    
O3    V1    S    
O22   H44   S    
C12   H10   S    
C10   C18   A    
C47   C55   S    
C27   H15   S    
H28   C46   S    
C36   H18   S    
O3    C1    A    
C8    C57   S    
O14   C58   A    
C48   H34   S    
O15   C59   A    
C35   C37   A    
C14   C16   A    
C58   O17   A    
C5    C13   A    
C16   C18   A    
O7    V1    S    
C29   H5    S    
C1    O8    A    
C8    C40   A    
C52   C56   S    
C50   C59   S    
C24   C26   A    
C41   H21   S    
C31   C35   A    
C7    C58   S    
C42   C50   S    
C28   C30   A    
C21   C23   A    
C19   C27   A    
C56   H38   S    
C22   C24   A    
C20   C28   A    
C47   H31   S    
C7    C39   A    
C11   H9    S    
C45   H39   S    
C1    C52   S    
O6    V2    S    
C57   O18   A    
C28   H16   S    
O9    V2    S    
C17   C25   A    
O14   V4    S    
C33   C39   A    
O10   V1    S    
O8    V2    S    
O16   V4    S    
C25   O21   S    
O15   V3    S    
C51   C55   S    
C32   C36   A    
O20   V3    S    
O13   C57   A    
