data_str_m2_o14_o16_f0_pcu.sym.196
_audit_creation_date              2012-12-10T17:18:56-0500
_audit_creation_method            fapswitch 2.2
_symmetry_space_group_name_H-M    P1
_symmetry_Int_Tables_number       1
_space_group_crystal_system       triclinic
_cell_length_a                    9.611974
_cell_length_b                    10.785342
_cell_length_c                    13.436838
_cell_angle_alpha                 92.068255
_cell_angle_beta                  71.680869
_cell_angle_gamma                 91.931342
_cell_volume                      1321.1521271

loop_
_atom_site_label
_atom_site_type_symbol
_atom_type_description
_atom_site_fract_x
_atom_site_fract_y
_atom_site_fract_z
_atom_type_partial_charge
C1    C     C_R   0.502789 0.737180 0.499278 0.840748
C2    C     C_R   0.444030 0.492884 0.976816 0.092258
C3    C     C_R   0.470790 0.537403 0.873991 0.085883
C4    C     C_R   0.549955 0.517833 0.029500 0.091960
C5    C     C_R   0.677013 0.591173 0.980769 0.181531
C6    C     C_R   0.694961 0.642119 0.883558 -0.230434
C7    C     C_R   0.593445 0.616247 0.831234 -0.177971
C8    C     C_R   0.529609 0.478459 0.131817 -0.237433
C9    C     C_R   0.756721 0.579793 0.134485 -0.147080
C10   C     C_R   0.369294 0.508946 0.818595 -0.177010
C11   C     C_R   0.340523 0.863487 0.689189 -0.142917
C12   C     C_R   0.419913 0.506408 0.701175 0.780754
C13   C     C_R   0.242168 0.920274 0.775873 -0.170684
C14   C     C_R   0.202837 0.041536 0.770130 -0.145519
C15   C     C_R   0.267152 0.109610 0.679742 0.241065
C16   C     C_R   0.385548 0.059415 0.595913 0.038721
C17   C     C_R   0.410290 0.930712 0.597719 0.013302
C18   C     C_R   0.504609 0.871086 0.507980 -0.142025
C19   C     C_R   0.593456 0.939490 0.424229 0.255938
C20   C     C_R   0.585544 0.067239 0.428424 -0.216704
C21   C     C_R   0.482786 0.128230 0.511642 -0.126074
C22   C     C_R   0.910498 0.335774 0.362264 -0.137920
C23   C     C_R   0.492677 0.263031 0.509167 0.821151
C24   C     C_R   0.007545 0.252399 0.297628 -0.192475
C25   C     C_R   0.149307 0.248957 0.300496 -0.213908
C26   C     C_R   0.195347 0.329832 0.367122 -0.125905
C27   C     C_R   0.100005 0.416055 0.435095 0.237828
C28   C     C_R   0.951185 0.417630 0.433781 0.216318
C29   C     C_R   0.903268 0.582101 0.559320 -0.035416
C30   C     C_R   0.051636 0.583408 0.557799 -0.023258
C31   C     C_R   0.579591 0.500953 0.299887 0.794891
C32   C     C_R   0.781410 0.618052 0.032292 -0.138420
C33   C     C_R   0.627108 0.514860 0.186000 -0.048824
C34   C     C_R   0.225998 0.466989 0.876724 -0.010118
C35   C     C_R   0.200970 0.421988 0.977004 -0.205673
C36   C     C_R   0.309744 0.429352 0.024424 -0.202636
Cu1   Cu    Cu3+1 0.359340 0.500010 0.500010 0.992660
Cu2   Cu    Cu3+1 0.640660 0.499990 0.499990 0.967019
H1    H     H_    0.834170 0.607607 0.175214 0.183142
H2    H     H_    0.363414 0.767024 0.695104 0.134425
H3    H     H_    0.189925 0.867785 0.845542 0.168612
H4    H     H_    0.114783 0.080260 0.834332 0.180427
H5    H     H_    0.658194 0.119588 0.364445 0.155612
H6    H     H_    0.829820 0.649923 0.607680 0.128205
H7    H     H_    0.805894 0.332865 0.351436 0.190303
H8    H     H_    0.972571 0.190750 0.244173 0.170554
H9    H     H_    0.225345 0.184634 0.249236 0.162277
H10   H     H_    0.307643 0.321882 0.359947 0.191077
H11   H     H_    0.785578 0.705733 0.849115 0.140598
H12   H     H_    0.089397 0.653907 0.603045 0.162429
H13   H     H_    0.879183 0.673170 0.995133 0.148573
H14   H     H_    0.435411 0.423739 0.173960 0.133962
H15   H     H_    0.279875 0.391637 0.101466 0.147165
H16   H     H_    0.094021 0.384794 0.021180 0.172839
H17   H     H_    0.608003 0.664261 0.759281 0.147552
N1    N     N_R   0.852480 0.498790 0.499000 -0.194210
N2    N     N_R   0.148360 0.498710 0.498970 -0.183052
O1    O     O_R   0.381190 0.680360 0.500010 -0.575067
O2    O     O_R   0.618760 0.680340 0.500000 -0.563659
O3    O     O_R   0.323240 0.499990 0.650990 -0.520641
O4    O     O_R   0.560820 0.499960 0.650980 -0.576732
O5    O     O_R   0.381240 0.319660 0.500000 -0.564198
O6    O     O_R   0.618810 0.319640 0.499990 -0.590692
O7    O     O_R   0.439180 0.500040 0.349020 -0.599215
O8    O     O_R   0.676760 0.500010 0.349010 -0.596400
Br1   Br    Br    0.147450 0.242669 0.668089 -0.464927
C37   C     C_2   0.096065 0.483043 0.842411 0.905116
O9    O     O_2   0.992912 0.408589 0.867543 -0.571020
O10   O     O_R   0.085530 0.589506 0.789622 -0.788335
H18   H     H_    0.989515 0.591006 0.773795 0.315762
Br2   Br    Br    0.727075 0.862570 0.301804 -0.554104

loop_
_geom_bond_atom_site_label_1
_geom_bond_atom_site_label_2
_ccdc_geom_bond_type
C34   C37   S    
C26   C27   A    
C2    C4    A    
C31   C33   S    
C32   H13   S    
Cu1   N2    S    
C29   C30   A    
C29   N1    A    
C26   H10   S    
C8    H14   S    
C19   Br2   S    
Cu1   O1    S    
Cu2   O8    S    
C7    H17   S    
C4    C8    A    
Cu2   O4    S    
C24   H8    S    
Cu2   O2    S    
C5    C32   A    
C19   C20   A    
C13   H3    S    
Cu1   O5    S    
C30   H12   S    
C10   C34   A    
C3    C10   A    
C22   C28   A    
C14   H4    S    
C24   C25   A    
C35   H16   S    
C9    C33   A    
C12   O4    A    
C11   C13   A    
C1    C18   S    
C6    C7    A    
C10   C12   S    
Cu1   O7    S    
C5    C6    A    
C31   O7    A    
C23   O6    A    
Cu1   Cu2   S    
C17   C18   A    
C3    C7    A    
C8    C33   A    
C1    O2    A    
C29   H6    S    
C28   N1    A    
C11   H2    S    
C22   C24   A    
C20   H5    S    
Cu1   O3    S    
C16   C17   A    
C37   O9    D    
C12   O3    A    
C30   N2    A    
C1    O1    A    
C9    H1    S    
C22   H7    S    
Cu2   N1    S    
C20   C21   A    
C31   O8    A    
C34   C35   A    
C27   N2    A    
C2    C36   A    
C27   C28   A    
Cu2   O6    S    
C25   H9    S    
C14   C15   A    
C18   C19   A    
C2    C3    A    
C36   H15   S    
O10   H18   S    
C9    C32   A    
C25   C26   A    
C13   C14   A    
C15   Br1   S    
C16   C21   A    
C21   C23   S    
C23   O5    A    
C11   C17   A    
C6    H11   S    
C15   C16   A    
C4    C5    A    
C37   O10   S    
C35   C36   A    
