data_str_m3_o10_o27_f0_pcu.sym.54
_audit_creation_date              2012-12-10T16:57:48-0500
_audit_creation_method            fapswitch 2.2
_symmetry_space_group_name_H-M    P1
_symmetry_Int_Tables_number       1
_space_group_crystal_system       triclinic
_cell_length_a                    7.83333
_cell_length_b                    8.578318
_cell_length_c                    19.069705
_cell_angle_alpha                 92.086739
_cell_angle_beta                  84.760967
_cell_angle_gamma                 93.680948
_cell_volume                      1272.83544635

loop_
_atom_site_label
_atom_site_type_symbol
_atom_type_description
_atom_site_fract_x
_atom_site_fract_y
_atom_site_fract_z
_atom_type_partial_charge
C1    C     C_R   0.545537 0.794490 0.498319 0.937708
C2    C     C_R   0.611432 0.423971 0.172375 0.176351
C3    C     C_R   0.523805 0.546575 0.854381 -0.043922
C4    C     C_R   0.550409 0.559569 0.145561 -0.035900
C5    C     C_R   0.564699 0.404591 0.818981 -0.099567
C6    C     C_R   0.467159 0.671682 0.189993 -0.112085
C7    C     C_R   0.556044 0.391287 0.745796 -0.112725
C8    C     C_R   0.441885 0.646677 0.262561 -0.139639
C9    C     C_R   0.506245 0.518954 0.709710 -0.110683
C10   C     C_R   0.502137 0.511614 0.289820 -0.119209
C11   C     C_R   0.546076 0.569859 0.069916 0.356931
C12   C     C_R   0.454513 0.205557 0.502133 0.973441
C13   C     C_R   0.532219 0.560979 0.929869 0.345625
C14   C     C_3   0.433646 0.804275 0.704646 -0.771598
C15   C     C_3   0.630788 0.245236 0.274120 -0.757798
C16   C     C_3   0.439010 0.826626 0.859869 -0.796138
C17   C     C_3   0.702090 0.307743 0.121955 -0.800186
C18   C     C_2   0.606369 0.268766 0.859626 0.918021
C19   C     C_2   0.409087 0.815913 0.160073 0.940152
C20   C     C_2   0.589209 0.242220 0.706437 0.920977
C21   C     C_2   0.361843 0.766945 0.310419 0.987702
C22   C     C_2   0.006673 0.309524 0.459167 1.115544
C23   C     C_2   0.569383 0.958046 0.497747 -0.324151
C24   C     C_2   0.993049 0.690237 0.541083 1.118287
C25   C     C_2   0.430826 0.042161 0.504462 -0.326778
C26   C     C_R   0.501214 0.503850 0.634002 0.911975
C27   C     C_R   0.499546 0.500246 0.365785 0.867173
C28   C     C_R   0.470132 0.662693 0.744912 0.148701
C29   C     C_R   0.582526 0.397486 0.245139 0.160834
C30   C     C_R   0.476785 0.675794 0.818424 0.184927
H1    H     H_    0.700330 0.008563 0.491064 0.231964
H2    H     H_    0.406583 0.923668 0.827889 0.256855
H3    H     H_    0.328205 0.804937 0.899597 0.252945
H4    H     H_    0.615543 0.263816 0.081674 0.242127
H5    H     H_    0.819762 0.366128 0.095401 0.260086
H6    H     H_    0.744652 0.204620 0.147081 0.259818
H7    H     H_    0.545229 0.135100 0.944352 0.343726
H8    H     H_    0.460792 0.989916 0.091467 0.345970
H9    H     H_    0.762482 0.089490 0.668272 0.338756
H10   H     H_    0.386494 0.979951 0.357445 0.332402
H11   H     H_    0.118188 0.175502 0.381214 0.333541
H12   H     H_    0.299887 0.991621 0.511205 0.231406
H13   H     H_    0.879884 0.823107 0.619061 0.324988
H14   H     H_    0.442092 0.786342 0.646847 0.223167
H15   H     H_    0.302724 0.841537 0.721632 0.267464
H16   H     H_    0.530988 0.899590 0.715094 0.253823
H17   H     H_    0.584052 0.228600 0.330070 0.227908
H18   H     H_    0.571175 0.145138 0.244669 0.267683
H19   H     H_    0.772602 0.239507 0.269064 0.262168
H20   H     H_    0.553179 0.868340 0.887311 0.247743
N1    N     N_R   0.385444 0.553616 0.973137 -0.119534
N2    N     N_R   0.693051 0.579640 0.026581 -0.129877
N3    N     N_R   0.392364 0.557763 0.042348 -0.145638
N4    N     N_R   0.686183 0.574954 0.957241 -0.144027
N5    N     N_2   0.950330 0.457950 0.481240 -0.180867
N6    N     N_2   0.049670 0.542050 0.518760 -0.183070
O1    O     O_R   0.389250 0.738570 0.504600 -0.625612
O2    O     O_R   0.500921 0.225146 0.919772 -0.797711
O3    O     O_2   0.268951 0.864324 0.180321 -0.589263
O4    O     O_R   0.514858 0.895267 0.108170 -0.799241
O5    O     O_2   0.473237 0.171956 0.677315 -0.656697
O6    O     O_R   0.754656 0.188235 0.698944 -0.714592
O7    O     O_2   0.212802 0.745577 0.335000 -0.541636
O8    O     O_R   0.456364 0.905359 0.325932 -0.827213
O9    O     O_2   0.978224 0.199636 0.498470 -0.627691
O10   O     O_R   0.085557 0.287155 0.391173 -0.793188
O11   O     O_2   0.021983 0.800651 0.502106 -0.609932
O12   O     O_R   0.610750 0.261430 0.495400 -0.625640
O13   O     O_R   0.913227 0.711719 0.608973 -0.798146
O14   O     O_R   0.678400 0.711620 0.492580 -0.613467
O15   O     O_R   0.321600 0.288380 0.507420 -0.612747
O16   O     O_R   0.355380 0.513500 0.607880 -0.608369
O17   O     O_R   0.644620 0.486500 0.392120 -0.610512
O18   O     O_R   0.644530 0.486550 0.595850 -0.593857
O19   O     O_R   0.355470 0.513450 0.404150 -0.579433
O20   O     O_2   0.733853 0.197282 0.841448 -0.563907
Zn1   Zn    Zn3+2 0.306930 0.517990 0.508030 1.040355
Zn2   Zn    Zn3+2 0.693070 0.482010 0.491970 1.033001

loop_
_geom_bond_atom_site_label_1
_geom_bond_atom_site_label_2
_ccdc_geom_bond_type
C10   C27   S    
N5    N6    D    
O14   Zn2   S    
C26   O16   A    
C15   H17   S    
C14   H16   S    
C6    C19   S    
C12   O12   A    
C2    C29   A    
C16   H20   S    
C16   C30   S    
C20   O5    D    
C22   O10   S    
C21   O8    S    
C11   N2    A    
C24   O11   D    
C13   N1    A    
C18   O2    S    
C9    C26   S    
O17   Zn2   S    
C17   H6    S    
H7    O2    S    
C3    C13   S    
C23   C25   D    
H13   O13   S    
C2    C17   S    
C15   H18   S    
C27   O19   A    
N2    N4    A    
C24   O13   S    
C15   C29   S    
C14   H15   S    
O12   Zn2   S    
O1    Zn1   S    
C4    C6    A    
C5    C7    A    
N5    Zn2   S    
C6    C8    A    
C5    C18   S    
C19   O3    D    
N6    Zn1   S    
N1    N3    A    
C23   H1    S    
C3    C30   A    
C2    C4    A    
C22   O9    D    
O16   Zn1   S    
C1    O1    A    
C16   H3    S    
C8    C21   S    
C4    C11   S    
O19   Zn1   S    
H11   O10   S    
H8    O4    S    
C12   O15   A    
C1    C23   S    
C16   H2    S    
C17   H4    S    
O15   Zn1   S    
C14   H14   S    
C13   N4    A    
C7    C9    A    
H9    O6    S    
C18   O20   D    
C3    C5    A    
C11   N3    A    
C25   H12   S    
C22   N5    S    
C19   O4    S    
C24   N6    S    
C1    O14   A    
H10   O8    S    
C12   C25   S    
C28   C30   A    
C10   C29   A    
C26   O18   A    
C15   H19   S    
C20   O6    S    
C21   O7    D    
C8    C10   A    
C7    C20   S    
O18   Zn2   S    
C17   H5    S    
C14   C28   S    
C27   O17   A    
C9    C28   A    
