data_str_m3_o10_o14_f0_pcu.sym.73
_audit_creation_date              2012-12-10T16:50:11-0500
_audit_creation_method            fapswitch 2.2
_symmetry_space_group_name_H-M    P1
_symmetry_Int_Tables_number       1
_space_group_crystal_system       triclinic
_cell_length_a                    7.889773
_cell_length_b                    8.548421
_cell_length_c                    10.593458
_cell_angle_alpha                 92.519982
_cell_angle_beta                  84.850417
_cell_angle_gamma                 93.423553
_cell_volume                      709.787311971

loop_
_atom_site_label
_atom_site_type_symbol
_atom_type_description
_atom_site_fract_x
_atom_site_fract_y
_atom_site_fract_z
_atom_type_partial_charge
C1    C     C_R   0.545111 0.794177 0.496961 0.937820
C2    C     C_R   0.454913 0.205836 0.502469 0.924817
C3    C     C_R   0.499945 0.502378 0.261045 0.821758
C4    C     C_R   0.437852 0.792256 0.882873 -0.092245
C5    C     C_R   0.398498 0.927172 0.955850 -0.140266
C6    C     C_R   0.390381 0.925299 0.087604 -0.129835
C7    C     C_R   0.422941 0.788841 0.146639 -0.156566
C8    C     C_R   0.461882 0.650787 0.073870 0.082874
C9    C     C_R   0.466836 0.652007 0.941447 0.096530
C10   C     C_R   0.505188 0.512720 0.871499 -0.061185
C11   C     C_R   0.548399 0.378622 0.927878 -0.206780
C12   C     C_R   0.546915 0.378225 0.056975 -0.204336
C13   C     C_R   0.500847 0.511508 0.128820 -0.065748
C14   C     C_2   0.568798 0.957825 0.495779 -0.355075
C15   C     C_2   0.431406 0.042185 0.502220 -0.402088
C16   C     C_R   0.501133 0.502944 0.739019 0.852544
H1    H     H_    0.580763 0.273716 0.871713 0.147129
H2    H     H_    0.123645 0.901315 0.716307 0.351204
H3    H     H_    0.448094 0.799314 0.780826 0.164146
H4    H     H_    0.375157 0.033532 0.910014 0.136414
H5    H     H_    0.360533 0.030216 0.144218 0.139233
H6    H     H_    0.418715 0.793124 0.248910 0.147669
H7    H     H_    0.578985 0.273186 0.101329 0.148081
H8    H     H_    0.698871 0.008470 0.490337 0.220102
H9    H     H_    0.301463 0.991788 0.506826 0.232997
H10   H     H_    0.006638 0.363179 0.420397 0.149098
N1    N     N_2   0.950330 0.457950 0.466250 -0.132878
N2    N     N_2   0.049670 0.542050 0.533750 0.117758
O1    O     O_R   0.389250 0.738570 0.508280 -0.572156
O2    O     O_2   0.838199 0.721301 0.685585 -0.296374
O3    O     O_3   0.153758 0.793487 0.688702 -0.544465
O4    O     O_R   0.678390 0.711630 0.486650 -0.531779
O5    O     O_R   0.355400 0.513470 0.694050 -0.587920
O6    O     O_R   0.644540 0.486530 0.672420 -0.567290
O7    O     O_R   0.321610 0.288370 0.513350 -0.642933
O8    O     O_R   0.610750 0.261430 0.491720 -0.625651
O9    O     O_R   0.355460 0.513470 0.327580 -0.638207
O10   O     O_R   0.644600 0.486530 0.305950 -0.614501
O11   O     O_2   0.988743 0.836306 0.494478 -0.339594
S1    S     S_3+6 0.998838 0.724742 0.598997 0.146148
Zn1   Zn    Zn3+2 0.306930 0.517990 0.514440 1.046471
Zn2   Zn    Zn3+2 0.693070 0.482010 0.485560 1.045080

loop_
_geom_bond_atom_site_label_1
_geom_bond_atom_site_label_2
_ccdc_geom_bond_type
C2    O7    A    
C8    C9    A    
C11   C12   A    
C6    C7    A    
C1    C14   S    
C16   O5    A    
C7    H6    S    
C9    C10   A    
O8    Zn2   S    
O6    Zn2   S    
O5    Zn1   S    
C1    O1    A    
O2    S1    D    
C7    C8    A    
C5    H4    S    
C10   C16   S    
C12   C13   A    
C2    C15   S    
C6    H5    S    
N1    Zn2   S    
H10   N1    S    
C8    C13   A    
O1    Zn1   S    
O10   Zn2   S    
O9    Zn1   S    
C5    C6    A    
O7    Zn1   S    
C15   H9    S    
C10   C11   A    
N2    S1    S    
C2    O8    A    
N2    Zn1   S    
N1    N2    D    
O3    S1    S    
C3    O9    A    
C14   H8    S    
O11   S1    D    
O4    Zn2   S    
C14   C15   D    
C11   H1    S    
C12   H7    S    
H2    O3    S    
C16   O6    A    
C4    C9    A    
C4    H3    S    
C1    O4    A    
C3    O10   A    
C4    C5    A    
C3    C13   S    
