data_str_m2_o40_o40_f0_fof.sym.46
_audit_creation_date              2012-10-26T17:12:28-0400
_audit_creation_method            fapswitch 2.2
_symmetry_space_group_name_H-M    P1
_symmetry_Int_Tables_number       1
_space_group_crystal_system       triclinic
_cell_length_a                    16.687732
_cell_length_b                    16.74423
_cell_length_c                    16.785292
_cell_angle_alpha                 67.777177
_cell_angle_beta                  67.968027
_cell_angle_gamma                 68.00525
_cell_volume                      3874.0145593

loop_
_atom_site_label
_atom_site_type_symbol
_atom_type_description
_atom_site_fract_x
_atom_site_fract_y
_atom_site_fract_z
_atom_type_partial_charge
C1    C     C_R   0.031777 0.827848 0.563323 0.611954
C2    C     C_R   0.031308 0.563744 0.827789 0.583922
C3    C     C_R   0.172264 0.967547 0.437088 0.612857
C4    C     C_R   0.827754 0.030471 0.563634 0.585408
C5    C     C_R   0.520557 0.921061 0.740926 0.104816
C6    C     C_R   0.550542 0.932262 0.292790 0.118469
C7    C     C_R   0.074068 0.703657 0.449322 0.112038
C8    C     C_R   0.935232 0.295235 0.548441 0.120435
C9    C     C_R   0.700555 0.443969 0.104137 0.113710
C10   C     C_R   0.247521 0.494820 0.081334 0.104882
C11   C     C_R   0.302808 0.904705 0.553329 0.103134
C12   C     C_R   0.969429 0.172211 0.436091 0.579515
C13   C     C_R   0.696363 0.068025 0.455605 0.115758
C14   C     C_R   0.497585 0.246537 0.080171 0.107039
C15   C     C_R   0.445511 0.700435 0.097852 0.108237
C16   C     C_R   0.937639 0.549308 0.294130 0.114896
C17   C     C_R   0.071140 0.449750 0.704424 0.115904
C18   C     C_R   0.558634 0.981884 0.554485 0.025770
C19   C     C_R   0.464740 0.952318 0.463500 0.025768
C20   C     C_R   0.028868 0.541764 0.541625 0.025740
C21   C     C_R   0.983521 0.455320 0.454857 0.024029
C22   C     C_R   0.528740 0.527163 0.077817 0.024017
C23   C     C_R   0.827650 0.563176 0.032972 0.561797
C24   C     C_R   0.431409 0.429562 0.062699 0.024870
C25   C     C_R   0.587809 0.999619 0.460701 -0.002170
C26   C     C_R   0.433347 0.936393 0.557239 0.000409
C27   C     C_R   0.019472 0.453962 0.584337 -0.002268
C28   C     C_R   0.993830 0.542842 0.411868 -0.004867
C29   C     C_R   0.436641 0.565856 0.080654 -0.001750
C30   C     C_R   0.517983 0.385666 0.075516 -0.003456
C31   C     C_R   0.547221 0.974036 0.417492 -0.005256
C32   C     C_R   0.485740 0.943337 0.603617 -0.000106
C33   C     C_R   0.387188 0.515650 0.075474 -0.000462
C34   C     C_R   0.168447 0.430749 0.986708 0.593205
C35   C     C_R   0.567685 0.435027 0.082100 -0.006989
C36   C     C_R   0.991934 0.412674 0.542847 -0.002493
C37   C     C_R   0.021506 0.584006 0.453308 -0.000563
C38   C     C_R   0.471712 0.908507 0.696668 -0.129700
C39   C     C_R   0.591661 0.958996 0.333304 -0.143454
C40   C     C_R   0.050620 0.661979 0.406331 -0.133169
C41   C     C_R   0.962101 0.335236 0.590259 -0.130062
C42   C     C_R   0.652982 0.394703 0.097899 -0.089482
C43   C     C_R   0.293237 0.543764 0.091482 -0.133512
C44   C     C_R   0.353287 0.909871 0.601075 -0.129923
C45   C     C_R   0.569347 0.016278 0.830610 0.600901
C46   C     C_R   0.654340 0.045483 0.412189 -0.130275
C47   C     C_R   0.546992 0.292131 0.090010 -0.132330
C48   C     C_R   0.396232 0.652004 0.092991 -0.132136
C49   C     C_R   0.965454 0.590478 0.333880 -0.141189
C50   C     C_R   0.046938 0.407049 0.662997 -0.130830
C51   C     C_R   0.578187 0.978332 0.693792 0.014545
C52   C     C_R   0.456268 0.943210 0.324435 0.021828
C53   C     C_R   0.056202 0.675179 0.543976 0.015158
C54   C     C_R   0.951357 0.323730 0.453929 0.024563
C55   C     C_R   0.671590 0.539248 0.077808 -0.005238
C56   C     C_R   0.435932 0.969540 0.172116 0.595119
C57   C     C_R   0.296350 0.424623 0.039523 0.016750
C58   C     C_R   0.328168 0.932554 0.458276 0.015158
C59   C     C_R   0.677824 0.037784 0.549978 0.023760
C60   C     C_R   0.426178 0.295322 0.039206 0.017592
C61   C     C_R   0.540496 0.671062 0.074717 0.018238
C62   C     C_R   0.952069 0.454786 0.323062 0.017755
C63   C     C_R   0.054715 0.544526 0.675516 0.024093
C64   C     C_R   0.611335 0.014668 0.735943 0.014750
C65   C     C_R   0.403087 0.947973 0.272013 -0.000126
C66   C     C_R   0.054229 0.727430 0.595480 0.035253
C67   C     C_R   0.430744 0.168313 0.986824 0.587956
C68   C     C_R   0.949514 0.272483 0.403154 -0.000181
C69   C     C_R   0.726550 0.594479 0.062090 -0.021155
C70   C     C_R   0.260111 0.389344 0.998729 0.004216
C71   C     C_R   0.273051 0.943654 0.404904 0.033057
C72   C     C_R   0.727968 0.046027 0.597474 0.005043
C73   C     C_R   0.389830 0.259612 0.998765 0.004429
C74   C     C_R   0.595074 0.726151 0.060933 0.007974
C75   C     C_R   0.949383 0.404203 0.272172 0.030966
C76   C     C_R   0.053104 0.596427 0.727502 -0.007443
C77   C     C_R   0.684404 0.052579 0.685299 0.042197
C78   C     C_R   0.563217 0.827417 0.033161 0.606181
C79   C     C_R   0.313412 0.942514 0.314860 0.032875
C80   C     C_R   0.061037 0.685148 0.683917 0.034201
C81   C     C_R   0.940633 0.316365 0.315077 0.032736
C82   C     C_R   0.684230 0.683720 0.068120 0.055979
C83   C     C_R   0.314115 0.313963 0.967109 0.033233
C84   C     C_R   0.604326 0.000139 0.599367 -0.032927
C85   C     C_R   0.415592 0.943927 0.415039 -0.031760
C86   C     C_R   0.045738 0.587624 0.587515 -0.031275
C87   C     C_R   0.963559 0.410651 0.409992 -0.033420
C88   C     C_R   0.580853 0.579683 0.075159 -0.020123
C89   C     C_R   0.969271 0.436381 0.172144 0.598926
C90   C     C_R   0.386081 0.384574 0.043529 -0.029701
Cu1   Cu    Cu3+1 0.995180 0.995180 0.424630 0.917470
Cu2   Cu    Cu3+1 0.004820 0.004820 0.575370 0.946761
Cu3   Cu    Cu3+1 0.995180 0.424630 0.995180 0.927292
Cu4   Cu    Cu3+1 0.004820 0.575370 0.004820 0.908973
Cu5   Cu    Cu3+1 0.424630 0.995180 0.995180 0.917901
Cu6   Cu    Cu3+1 0.575370 0.004820 0.004820 0.948185
H1    H     H_    0.427339 0.865940 0.736073 0.096730
H2    H     H_    0.325057 0.682614 0.103818 0.091904
H3    H     H_    0.955873 0.662216 0.307961 0.098180
H4    H     H_    0.057634 0.335166 0.688775 0.100175
H5    H     H_    0.547070 0.799259 0.829042 0.218588
H6    H     H_    0.452777 0.873332 0.868796 0.241906
H7    H     H_    0.654168 0.909917 0.184537 0.228444
H8    H     H_    0.643035 0.818000 0.271037 0.209137
H9    H     H_    0.098482 0.812821 0.347257 0.235872
H10   H     H_    0.190323 0.727054 0.361289 0.214532
H11   H     H_    0.817718 0.277117 0.637625 0.213907
H12   H     H_    0.662285 0.956055 0.304166 0.097634
H13   H     H_    0.907263 0.188359 0.652005 0.235998
H14   H     H_    0.821730 0.356750 0.119024 0.263608
H15   H     H_    0.781479 0.435969 0.176784 0.250490
H16   H     H_    0.121037 0.574008 0.112134 0.234121
H17   H     H_    0.149600 0.486298 0.197646 0.218728
H18   H     H_    0.189781 0.887905 0.652625 0.239848
H19   H     H_    0.265380 0.792118 0.633195 0.223603
H20   H     H_    0.799067 0.105538 0.352137 0.231202
H21   H     H_    0.707797 0.190600 0.374795 0.224983
H22   H     H_    0.491177 0.147861 0.196176 0.217772
H23   H     H_    0.062608 0.687244 0.334452 0.091233
H24   H     H_    0.577830 0.120414 0.109730 0.232561
H25   H     H_    0.365666 0.738918 0.208640 0.211128
H26   H     H_    0.347148 0.814299 0.112164 0.226538
H27   H     H_    0.911670 0.652976 0.186843 0.229712
H28   H     H_    0.821391 0.640759 0.275237 0.210282
H29   H     H_    0.187224 0.360727 0.727053 0.217186
H30   H     H_    0.095473 0.347056 0.813029 0.240346
H31   H     H_    0.754675 0.137179 0.671491 0.246096
H32   H     H_    0.654762 0.150850 0.741893 0.218035
H33   H     H_    0.242212 0.992408 0.221841 0.263319
H34   H     H_    0.951062 0.309818 0.662037 0.100218
H35   H     H_    0.297994 0.878896 0.240915 0.249306
H36   H     H_    0.134349 0.690786 0.754970 0.236657
H37   H     H_    0.024139 0.755739 0.774360 0.269213
H38   H     H_    0.863985 0.247247 0.311783 0.257149
H39   H     H_    0.973365 0.226171 0.245269 0.265409
H40   H     H_    0.680938 0.765186 0.133614 0.237250
H41   H     H_    0.766569 0.680532 0.133318 0.237095
H42   H     H_    0.351837 0.265877 0.859738 0.219496
H43   H     H_    0.265848 0.352648 0.859383 0.231996
H44   H     H_    0.682651 0.323360 0.111942 0.109247
H45   H     H_    0.252235 0.598797 0.119921 0.091126
H46   H     H_    0.328055 0.892192 0.672998 0.095761
H47   H     H_    0.670512 0.069153 0.339902 0.097150
H48   H     H_    0.603445 0.251113 0.116730 0.090107
N1    N     N_3   0.519703 0.866177 0.830476 -0.586446
N2    N     N_3   0.397419 0.769156 0.142877 -0.609097
N3    N     N_3   0.879960 0.605611 0.237226 -0.615066
N4    N     N_3   0.126855 0.395142 0.763685 -0.598615
N5    N     N_3   0.711483 0.100691 0.721836 -0.575360
N6    N     N_3   0.262130 0.932305 0.268866 -0.599643
N7    N     N_3   0.081439 0.732296 0.726672 -0.601063
N8    N     N_3   0.917307 0.274602 0.269276 -0.610183
N9    N     N_3   0.728936 0.728385 0.090033 -0.567313
N10   N     N_3   0.292190 0.292777 0.903146 -0.571103
N11   N     N_3   0.607184 0.877107 0.234008 -0.608547
N12   N     N_3   0.129584 0.763452 0.395438 -0.583248
N13   N     N_3   0.876862 0.238574 0.603720 -0.607870
N14   N     N_3   0.764616 0.394503 0.155820 -0.619567
N15   N     N_3   0.154633 0.505768 0.129321 -0.572088
N16   N     N_3   0.234701 0.858006 0.602127 -0.581028
N17   N     N_3   0.749345 0.130464 0.404034 -0.613825
N18   N     N_3   0.509467 0.153581 0.127840 -0.571932
O1    O     O_R   0.124540 0.978640 0.385460 -0.474605
O2    O     O_R   0.124540 0.385460 0.978640 -0.477573
O3    O     O_R   0.021360 0.875460 0.614540 -0.475198
O4    O     O_R   0.978640 0.124540 0.385460 -0.527141
O5    O     O_R   0.013780 0.867370 0.487190 -0.495723
O6    O     O_R   0.986220 0.132630 0.512810 -0.485847
O7    O     O_R   0.867370 0.487190 0.013780 -0.520264
O8    O     O_R   0.132630 0.512810 0.986220 -0.499100
O9    O     O_R   0.487190 0.013780 0.867370 -0.498193
O10   O     O_R   0.512810 0.986220 0.132630 -0.478049
O11   O     O_R   0.512810 0.132630 0.986220 -0.497359
O12   O     O_R   0.875460 0.021360 0.614540 -0.491509
O13   O     O_R   0.487190 0.867370 0.013780 -0.486882
O14   O     O_R   0.986220 0.512810 0.132630 -0.484976
O15   O     O_R   0.013780 0.487190 0.867370 -0.476175
O16   O     O_R   0.132630 0.986220 0.512810 -0.495869
O17   O     O_R   0.867370 0.013780 0.487190 -0.490694
O18   O     O_R   0.978640 0.385460 0.124540 -0.496383
O19   O     O_R   0.021360 0.614540 0.875460 -0.522171
O20   O     O_R   0.385460 0.124540 0.978640 -0.484984
O21   O     O_R   0.614540 0.875460 0.021360 -0.484023
O22   O     O_R   0.614540 0.021360 0.875460 -0.475026
O23   O     O_R   0.385460 0.978640 0.124540 -0.527573
O24   O     O_R   0.875460 0.614540 0.021360 -0.474468

loop_
_geom_bond_atom_site_label_1
_geom_bond_atom_site_label_2
_ccdc_geom_bond_type
C25   C31   A    
C80   N7    S    
C21   C87   A    
C26   C32   A    
Cu3   Cu4   S    
C65   C79   A    
H16   N15   S    
C64   C77   A    
C23   C69   S    
Cu1   O4    S    
Cu5   Cu6   S    
H37   N7    S    
C19   C31   A    
C71   C79   A    
C26   C44   A    
C66   C80   A    
C83   N10   S    
C54   C87   A    
C22   C35   A    
C12   C68   S    
H5    N1    S    
C9    C42   A    
C24   C90   A    
C30   C35   A    
C16   N3    S    
C68   C81   A    
C28   C37   A    
Cu1   O5    S    
C52   C85   A    
C22   C29   A    
H15   N14   S    
Cu6   O22   S    
C37   C40   A    
C34   O2    A    
H6    N1    S    
C12   O4    A    
C41   H34   S    
C58   C71   A    
C54   C68   A    
C63   C76   A    
C1    O5    A    
C56   C65   S    
C29   C33   A    
C60   C73   A    
C78   O21   A    
C89   O18   A    
C55   C88   A    
C35   C42   A    
C19   C26   A    
Cu5   O13   S    
C69   C82   A    
C82   N9    S    
Cu2   O3    S    
H22   N18   S    
C7    N12   S    
Cu1   O17   S    
C18   C84   A    
C7    C40   A    
C53   C86   A    
C67   C73   S    
C2    O15   A    
C32   C38   A    
C57   C70   A    
C11   C58   A    
C34   C70   S    
C6    N11   S    
C34   O8    A    
C27   C50   A    
H24   N18   S    
C59   C72   A    
C20   C37   A    
H42   N10   S    
C15   N2    S    
H13   N13   S    
C4    O12   A    
C5    C38   A    
C56   O10   A    
Cu1   O1    S    
C36   C41   A    
C18   C25   A    
C16   C62   A    
C15   C48   A    
C74   C82   A    
C38   H1    S    
C8    N13   S    
C45   O9    A    
H11   N13   S    
Cu3   O18   S    
C11   N16   S    
C39   H12   S    
H28   N3    S    
C5    N1    S    
C57   C90   A    
C29   C48   A    
C42   H44   S    
C33   C43   A    
Cu4   O24   S    
H20   N17   S    
C10   C57   A    
C16   C49   A    
C24   C33   A    
Cu6   O11   S    
C77   N5    S    
Cu1   Cu2   S    
C21   C36   A    
Cu3   O15   S    
C75   C81   A    
Cu3   O2    S    
H21   N17   S    
C47   H48   S    
H17   N15   S    
C20   C86   A    
C2    O19   A    
C14   N18   S    
C3    C71   S    
C72   C77   A    
C70   C83   A    
C67   O20   A    
C49   H3    S    
C28   C49   A    
C30   C47   A    
C23   O7    A    
C1    O3    A    
H38   N8    S    
C17   N4    S    
C1    C66   S    
C15   C61   A    
H41   N9    S    
C11   C44   A    
C8    C41   A    
C53   C66   A    
H18   N16   S    
C55   C69   A    
C46   H47   S    
Cu2   O16   S    
C79   N6    S    
C9    C55   A    
H7    N11   S    
Cu4   O19   S    
C21   C28   A    
H27   N3    S    
C22   C88   A    
C63   C86   A    
C74   C78   S    
C78   O13   A    
C61   C74   A    
C62   C75   A    
C43   H45   S    
C18   C32   A    
C7    C53   A    
Cu6   O21   S    
C8    C54   A    
C58   C85   A    
C4    C72   S    
C2    C76   S    
Cu5   O23   S    
H35   N6    S    
Cu3   O7    S    
H30   N4    S    
C10   C43   A    
C6    C39   A    
C50   H4    S    
C3    O16   A    
C51   C64   A    
C76   C80   A    
C19   C85   A    
H29   N4    S    
H14   N14   S    
C17   C50   A    
C12   O6    A    
C23   O24   A    
Cu5   O20   S    
C13   N17   S    
C14   C47   A    
C13   C59   A    
C20   C27   A    
C60   C90   A    
C27   C36   A    
C81   N8    S    
C14   C60   A    
C62   C87   A    
C45   C64   S    
H10   N12   S    
C59   C84   A    
H43   N10   S    
H19   N16   S    
Cu2   O12   S    
C3    O1    A    
Cu4   O8    S    
H33   N6    S    
C10   N15   S    
C17   C63   A    
H40   N9    S    
C13   C46   A    
C9    N14   S    
C67   O11   A    
C51   C84   A    
C31   C39   A    
C48   H2    S    
H26   N2    S    
H8    N11   S    
C24   C30   A    
Cu2   O6    S    
C75   C89   S    
H32   N5    S    
H9    N12   S    
C56   O23   A    
C44   H46   S    
C40   H23   S    
Cu6   O10   S    
H36   N7    S    
H25   N2    S    
C5    C51   A    
C61   C88   A    
C4    O17   A    
C89   O14   A    
C6    C52   A    
Cu5   O9    S    
C25   C46   A    
C73   C83   A    
H31   N5    S    
C52   C65   A    
H39   N8    S    
C45   O22   A    
Cu4   O14   S    
