data_str_m2_o10_o28_f0_pcu.sym.220
_audit_creation_date              2012-12-10T16:50:14-0500
_audit_creation_method            fapswitch 2.2
_symmetry_space_group_name_H-M    P1
_symmetry_Int_Tables_number       1
_space_group_crystal_system       triclinic
_cell_length_a                    23.458748
_cell_length_b                    8.731223
_cell_length_c                    7.436062
_cell_angle_alpha                 102.861695
_cell_angle_beta                  94.280173
_cell_angle_gamma                 92.283629
_cell_volume                      1478.22658199

loop_
_atom_site_label
_atom_site_type_symbol
_atom_type_description
_atom_site_fract_x
_atom_site_fract_y
_atom_site_fract_z
_atom_type_partial_charge
C1    C     C_R   0.497588 0.200331 0.454059 0.856209
C2    C     C_R   0.502381 0.799667 0.545949 0.854628
C3    C     C_R   0.238195 0.585408 0.390775 0.294892
C4    C     C_R   0.764693 0.456505 0.635867 0.287425
C5    C     C_R   0.297831 0.584099 0.391591 -0.279176
C6    C     C_R   0.705270 0.462085 0.640867 -0.277209
C7    C     C_R   0.329104 0.504759 0.507006 -0.053996
C8    C     C_R   0.671357 0.495455 0.492017 -0.062234
C9    C     C_R   0.300689 0.427041 0.623125 -0.221209
C10   C     C_R   0.697498 0.525640 0.338812 -0.220661
C11   C     C_R   0.241208 0.424884 0.619957 -0.175241
C12   C     C_R   0.756758 0.524437 0.335765 -0.166021
C13   C     C_R   0.209833 0.504093 0.504901 0.341630
C14   C     C_R   0.790406 0.489162 0.482764 0.348214
C15   C     C_2   0.490548 0.033544 0.430862 -0.051153
C16   C     C_2   0.509385 0.966459 0.569189 -0.050152
C17   C     C_R   0.391180 0.500935 0.502424 0.802248
C18   C     C_R   0.608988 0.499200 0.497528 0.806282
C19   C     C_R   0.883084 0.623934 0.575570 0.573686
C20   C     C_R   0.117034 0.369584 0.412824 0.525732
C21   C     C_R   0.876232 0.364274 0.383184 0.529077
C22   C     C_R   0.123823 0.633369 0.594345 0.566818
C23   C     C_R   0.936455 0.360473 0.388698 -0.040208
C24   C     C_R   0.063596 0.636485 0.590642 -0.049069
C25   C     C_R   0.969830 0.496290 0.487584 -0.064782
C26   C     C_R   0.030243 0.499789 0.494167 -0.064757
C27   C     C_R   0.942864 0.628904 0.580292 -0.035884
C28   C     C_R   0.057221 0.366139 0.404246 -0.031873
C29   C     C_R   0.964423 0.226811 0.299453 0.241138
C30   C     C_R   0.035597 0.769970 0.680356 0.240034
C31   C     C_R   0.024201 0.231870 0.307287 -0.260675
C32   C     C_R   0.975864 0.763569 0.676160 -0.258648
Cu1   Cu    Cu3+1 0.506340 0.517380 0.684380 0.958493
Cu2   Cu    Cu3+1 0.493660 0.482620 0.315620 0.959894
H1    H     H_    0.044696 0.128391 0.238539 0.181170
H2    H     H_    0.955361 0.866471 0.746400 0.177668
H3    H     H_    0.319771 0.645673 0.302912 0.159397
H4    H     H_    0.685678 0.438118 0.759934 0.162328
H5    H     H_    0.324377 0.364909 0.712458 0.154062
H6    H     H_    0.672302 0.553366 0.223340 0.159121
H7    H     H_    0.219313 0.361555 0.706775 0.150582
H8    H     H_    0.776877 0.553616 0.220883 0.137179
H9    H     H_    0.455164 0.379097 0.948531 0.225159
H10   H     H_    0.544845 0.620878 0.051462 0.223865
N1    N     N_R   0.851379 0.492791 0.479544 -0.457337
N2    N     N_R   0.148751 0.502102 0.504858 -0.458878
N3    N     N_2   0.484110 0.456420 0.038520 -0.205733
N4    N     N_2   0.515890 0.543580 0.961480 -0.207440
O1    O     O_R   0.504120 0.286130 0.619770 -0.555311
O2    O     O_R   0.495880 0.713870 0.380230 -0.555043
O3    O     O_R   0.493410 0.256770 0.308360 -0.599743
O4    O     O_R   0.506590 0.743230 0.691640 -0.599698
O5    O     O_R   0.423230 0.514630 0.655730 -0.588590
O6    O     O_R   0.576770 0.485370 0.344270 -0.591591
O7    O     O_R   0.412530 0.485280 0.344320 -0.577466
O8    O     O_R   0.587470 0.514720 0.655680 -0.582387
O9    O     O_2   0.856625 0.749237 0.665947 -0.547832
O10   O     O_2   0.143498 0.242084 0.328068 -0.547672
O11   O     O_2   0.842458 0.241225 0.283827 -0.518709
O12   O     O_2   0.157556 0.759102 0.687059 -0.506192
N5    N     N_2   0.933228 0.085785 0.202499 -0.376795
H11   H     H_    0.949051 0.036132 0.078294 0.237880
C33   C     C_3   0.924938 0.971479 0.313736 -0.577828
H12   H     H_    0.966615 0.925546 0.351275 0.195201
H13   H     H_    0.896232 0.871496 0.233489 0.238648
H14   H     H_    0.904832 0.025042 0.441874 0.241923
N6    N     N_2   0.066740 0.911349 0.776477 -0.376379
H15   H     H_    0.051542 0.959992 0.902051 0.238642
C34   C     C_3   0.073706 0.026582 0.665674 -0.569756
H16   H     H_    0.031605 0.071720 0.631119 0.190960
H17   H     H_    0.093182 0.974154 0.535880 0.257624
H18   H     H_    0.102435 0.126942 0.744928 0.231574
N7    N     N_2   0.206920 0.671125 0.278676 -0.417256
H19   H     H_    0.228471 0.773736 0.268320 0.269593
C35   C     C_3   0.184730 0.578234 0.099264 -0.648438
H20   H     H_    0.158596 0.651905 0.025117 0.254939
H21   H     H_    0.157005 0.476530 0.113815 0.242669
H22   H     H_    0.220622 0.535190 0.016008 0.221730
N8    N     N_2   0.798848 0.424441 0.787769 -0.438784
H23   H     H_    0.783833 0.471827 0.913561 0.248752
C36   C     C_3   0.810276 0.260417 0.769625 -0.606981
H24   H     H_    0.839305 0.247433 0.889619 0.256179
H25   H     H_    0.831520 0.215223 0.641612 0.245096
H26   H     H_    0.769726 0.189158 0.766561 0.230782
N9    N     N_3   0.459968 0.944091 0.262514 -0.566589
H27   H     H_    0.419851 0.990194 0.247997 0.213139
H28   H     H_    0.482625 0.957903 0.150737 0.230261
N10   N     N_3   0.539928 0.055917 0.737603 -0.565145
H29   H     H_    0.580045 0.009836 0.752223 0.214676
H30   H     H_    0.517244 0.042085 0.849316 0.229318

loop_
_geom_bond_atom_site_label_1
_geom_bond_atom_site_label_2
_ccdc_geom_bond_type
C33   H13   S    
C5    H3    S    
C17   O5    A    
N7    H19   S    
C36   H24   S    
N9    H27   S    
C19   O9    S    
Cu1   O4    S    
Cu2   O3    S    
C32   H2    S    
C24   C26   A    
C21   O11   S    
C22   O12   S    
C13   N2    S    
Cu1   O1    S    
C15   C16   D    
C9    H5    S    
C10   H6    S    
N5    C33   S    
C12   H8    S    
C2    O2    A    
C7    C17   S    
C6    H4    S    
C1    C15   S    
C2    C16   S    
C17   O7    A    
C30   N6    S    
C3    C13   A    
C18   O8    A    
C15   N9    S    
Cu1   O8    S    
C33   H14   S    
Cu2   O7    S    
N7    C35   S    
N5    H11   S    
C10   C12   A    
C36   H25   S    
C14   N1    S    
C21   N1    A    
N9    H28   S    
Cu1   O5    S    
C29   N5    S    
Cu2   O2    S    
C34   H17   S    
N6    H15   S    
C4    N8    S    
C4    C6    A    
N8    C36   S    
C6    C8    A    
C20   C28   A    
C25   C26   A    
C8    C18   S    
N8    H23   S    
N6    C34   S    
C34   H18   S    
C35   H20   S    
C1    O3    A    
N3    N4    D    
Cu1   Cu2   S    
C9    C11   A    
C2    O4    A    
C22   N2    A    
N10   H30   S    
Cu2   O6    S    
C21   C23   A    
C31   H1    S    
C20   O10   S    
C23   C29   A    
C36   H26   S    
C19   C27   A    
C5    C7    A    
C7    C9    A    
C27   C32   A    
C28   C31   A    
C12   C14   A    
C3    C5    A    
C19   N1    A    
C25   C27   A    
C26   C28   A    
C29   C31   A    
C30   C32   A    
C11   C13   A    
C1    O1    A    
C11   H7    S    
C22   C24   A    
C23   C25   A    
C4    C14   A    
C34   H16   S    
C3    N7    S    
C35   H22   S    
C24   C30   A    
C18   O6    A    
C33   H12   S    
N10   H29   S    
C8    C10   A    
C35   H21   S    
C16   N10   S    
Cu1   N4    S    
Cu2   N3    S    
H9    N3    S    
C20   N2    A    
H10   N4    S    
