data_str_m9_o11_o16_f0_sra.sym.216
_audit_creation_date              2012-12-11T14:17:40-0500
_audit_creation_method            fapswitch 2.2
_symmetry_space_group_name_H-M    P1
_symmetry_Int_Tables_number       1
_space_group_crystal_system       triclinic
_cell_length_a                    6.949088
_cell_length_b                    13.66344
_cell_length_c                    20.393565
_cell_angle_alpha                 102.096761
_cell_angle_beta                  89.898569
_cell_angle_gamma                 90.656827
_cell_volume                      1893.21631475

loop_
_atom_site_label
_atom_site_type_symbol
_atom_type_description
_atom_site_fract_x
_atom_site_fract_y
_atom_site_fract_z
_atom_type_partial_charge
O1    O     O_R   0.506860 0.599390 0.449240 -0.538136
O2    O     O_R   0.180220 0.594600 0.586780 -0.542656
O3    O     O_R   0.004500 0.400610 0.550760 -0.541954
C1    C     C_R   0.349008 0.616009 0.613464 0.741919
O4    O     O_R   0.177490 0.611290 0.451970 -0.540047
O5    O     O_R   0.001750 0.417420 0.414990 -0.536032
C2    C     C_R   0.346646 0.637003 0.434552 0.709900
O6    O     O_R   0.509610 0.582580 0.585010 -0.541695
O7    O     O_3   0.337420 0.436370 0.488020 -0.382028
V1    V     V_3+5 0.064680 0.511800 0.502220 1.411057
O8    O     O_R   0.671710 0.405400 0.413220 -0.550912
C3    C     C_R   0.839874 0.383738 0.386673 0.738797
O9    O     O_R   0.674440 0.388710 0.548030 -0.551968
C4    C     C_R   0.842140 0.362097 0.564786 0.695805
V2    V     V_3+5 0.564010 0.488200 0.497780 1.388767
O10   O     O_3   0.841140 0.563630 0.511980 -0.369194
C5    C     C_R   0.797918 0.113013 0.613482 -0.166028
H1    H     H_    0.799673 0.162642 0.520691 0.127402
H2    H     H_    0.780597 0.988562 0.696912 0.122059
H3    H     H_    0.774186 0.035544 0.588709 0.119464
C6    C     C_R   0.844695 0.285244 0.604941 -0.048861
C7    C     C_R   0.892322 0.314823 0.928514 -0.168230
C8    C     C_R   0.899810 0.390661 0.892649 -0.119576
C9    C     C_R   0.884126 0.368291 0.822993 -0.158889
C10   C     C_R   0.859379 0.268242 0.787127 0.077166
C11   C     C_R   0.847402 0.190984 0.824458 0.067847
C12   C     C_R   0.846466 0.242265 0.715618 0.071597
C13   C     C_R   0.815721 0.140373 0.683467 0.138697
C14   C     C_R   0.803056 0.066362 0.721206 -0.204527
C15   C     C_R   0.819950 0.090960 0.790488 -0.196656
C16   C     C_R   0.862627 0.313727 0.674636 -0.218438
C17   C     C_R   0.811174 0.185188 0.574620 -0.189974
C18   C     C_R   0.865621 0.215335 0.895221 -0.075018
H4    H     H_    0.886230 0.392257 0.695063 0.097098
H5    H     H_    0.908005 0.333713 0.982578 0.103589
H6    H     H_    0.891539 0.431238 0.798945 0.106857
H7    H     H_    0.919489 0.467577 0.919020 0.119487
H8    H     H_    0.810363 0.030515 0.817250 0.119520
C19   C     C_2   0.005505 0.286568 0.285744 -0.126528
C20   C     C_2   0.842295 0.314809 0.320118 -0.316830
H9    H     H_    0.142830 0.314169 0.307957 0.135699
H10   H     H_    0.703552 0.287262 0.299702 0.126086
C21   C     C_2   0.013636 0.218376 0.218170 -0.138355
C22   C     C_2   0.858594 0.182868 0.180521 -0.307710
H11   H     H_    0.156346 0.197672 0.198655 0.131566
H12   H     H_    0.714628 0.202672 0.198506 0.127620
C23   C     C_2   0.204727 0.790470 0.782462 -0.134606
C24   C     C_2   0.363819 0.815829 0.819903 -0.307770
H13   H     H_    0.066970 0.820251 0.801971 0.132135
H14   H     H_    0.502417 0.786413 0.801696 0.127597
C25   C     C_2   0.203001 0.722061 0.714939 -0.132768
C26   C     C_2   0.360992 0.684217 0.680213 -0.312105
H15   H     H_    0.061803 0.702940 0.692901 0.134511
H16   H     H_    0.504037 0.702857 0.700231 0.125577
C27   C     C_R   0.344258 0.889587 0.389010 0.018400
H17   H     H_    0.361811 0.833981 0.480597 0.103900
H18   H     H_    0.270927 0.010273 0.301243 0.140542
C28   C     C_R   0.355384 0.714069 0.394676 -0.047319
C29   C     C_R   0.384696 0.685357 0.071545 -0.167825
C30   C     C_R   0.394355 0.609881 0.107554 -0.120892
C31   C     C_R   0.381314 0.632412 0.177269 -0.158913
C32   C     C_R   0.354563 0.732141 0.213087 0.086750
C33   C     C_R   0.339054 0.808619 0.175523 0.071346
C34   C     C_R   0.348494 0.758731 0.284805 0.064780
C35   C     C_R   0.333150 0.861533 0.317675 0.095726
C36   C     C_R   0.301716 0.933225 0.278663 -0.214893
C37   C     C_R   0.307485 0.907706 0.209252 -0.201311
C38   C     C_R   0.355440 0.686234 0.324970 -0.217558
C39   C     C_R   0.354401 0.814497 0.426306 -0.212254
C40   C     C_R   0.357484 0.784493 0.104749 -0.077383
H19   H     H_    0.355649 0.607061 0.303895 0.096213
H20   H     H_    0.400556 0.666578 0.017495 0.103591
H21   H     H_    0.396422 0.569996 0.201377 0.107054
H22   H     H_    0.416061 0.533306 0.081311 0.119585
H23   H     H_    0.287524 0.967068 0.182191 0.122855
O11   O     O_R   0.203230 0.917310 0.915020 -0.538186
O12   O     O_R   0.535500 0.888690 0.048040 -0.539060
O13   O     O_R   0.711080 0.082610 0.085000 -0.543052
C41   C     C_R   0.366253 0.862279 0.064990 0.688140
O14   O     O_R   0.532630 0.905370 0.913230 -0.549144
O15   O     O_R   0.708190 0.099410 0.949230 -0.539704
C42   C     C_R   0.364428 0.884244 0.886519 0.743693
O16   O     O_R   0.206120 0.900510 0.050790 -0.541110
O17   O     O_3   0.375360 0.063570 0.011990 -0.372603
V3    V     V_3+5 0.648170 0.988200 0.997780 1.415276
O18   O     O_R   0.038240 0.111390 0.951940 -0.540177
C43   C     C_R   0.870299 0.137752 0.935078 0.687484
O19   O     O_R   0.041120 0.094710 0.086750 -0.543912
C44   C     C_R   0.872486 0.115498 0.113600 0.742486
V4    V     V_3+5 0.148810 0.011930 0.002180 1.419071
O20   O     O_3   0.871750 0.936430 0.988010 -0.372595
C45   C     C_R   0.351872 0.995667 0.426698 0.099957
C46   C     C_R   0.478040 0.065787 0.407175 -0.168039
C47   C     C_R   0.485106 0.164664 0.443296 -0.137701
C48   C     C_R   0.376711 0.192907 0.501768 -0.062884
C49   C     C_R   0.260078 0.122774 0.523780 -0.141726
C50   C     C_R   0.243184 0.025466 0.485739 -0.131949
H24   H     H_    0.570971 0.044128 0.364013 0.120971
H25   H     H_    0.579721 0.218423 0.427210 0.118562
H26   H     H_    0.385902 0.268349 0.531122 0.148091
H27   H     H_    0.184369 0.143786 0.570779 0.137730
H28   H     H_    0.147350 0.973113 0.502995 0.107661

loop_
_geom_bond_atom_site_label_1
_geom_bond_atom_site_label_2
_ccdc_geom_bond_type
C46   C47   A    
C48   C49   A    
H18   C36   S    
C1    O6    A    
V3    O20   S    
C23   H13   S    
C7    H5    S    
C6    C16   A    
H17   C39   S    
O14   V3    S    
C1    C26   S    
C34   C38   A    
C4    C6    S    
C13   C14   A    
O5    C3    A    
V2    O10   S    
C5    H3    S    
C15   H8    S    
O16   V4    S    
C32   C34   A    
O8    V2    S    
C22   H12   S    
C8    C9    A    
O1    V2    S    
C14   C15   A    
O7    V1    S    
C2    C28   S    
C50   H28   S    
C29   H20   S    
C20   H10   S    
C36   C37   A    
O12   V3    S    
C29   C30   A    
O9    C4    A    
C47   C48   A    
O17   V4    S    
C27   C35   A    
C26   H16   S    
C45   C50   A    
O12   C41   A    
O13   C44   A    
C6    C17   A    
C33   C37   A    
C12   C16   A    
C25   C26   D    
C9    C10   A    
O14   C42   A    
O18   V4    S    
O11   C42   A    
C19   C20   D    
O4    C2    A    
C48   H26   S    
C23   C25   S    
C31   H21   S    
C10   C11   A    
C8    H7    S    
C30   C31   A    
C25   H15   S    
C3    C20   S    
O2    C1    A    
C21   C22   D    
C27   C45   S    
C11   C18   A    
C23   C24   D    
C33   C40   A    
C49   C50   A    
C32   C33   A    
C16   H4    S    
O15   C43   A    
O17   V3    S    
C24   H14   S    
C21   H11   S    
C27   C39   A    
O3    C4    A    
O13   V3    S    
C28   C38   A    
O19   V4    S    
C11   C15   A    
O6    V2    S    
O9    V2    S    
C37   H23   S    
O2    V1    S    
O18   C43   A    
C7    C18   A    
C40   C41   S    
O1    C2    A    
C5    C13   A    
O5    V1    S    
C19   C21   S    
O8    C3    A    
C28   C39   A    
C10   C12   A    
C9    H6    S    
C34   C35   A    
O7    V2    S    
O4    V1    S    
O3    V1    S    
V1    O10   S    
C41   O16   A    
V4    O20   S    
C47   H25   S    
C38   H19   S    
C30   H22   S    
C45   C46   A    
C24   C42   S    
C18   C43   S    
C31   C32   A    
C29   C40   A    
H1    C17   S    
O19   C44   A    
C19   H9    S    
C35   C36   A    
C12   C13   A    
C5    C17   A    
C7    C8    A    
C49   H27   S    
C46   H24   S    
O15   V3    S    
C22   C44   S    
O11   V4    S    
H2    C14   S    
