data_str_m3_o10_o17_f0_pcu.sym.86
_audit_creation_date              2012-12-10T16:52:10-0500
_audit_creation_method            fapswitch 2.2
_symmetry_space_group_name_H-M    P1
_symmetry_Int_Tables_number       1
_space_group_crystal_system       triclinic
_cell_length_a                    7.988976
_cell_length_b                    8.64073
_cell_length_c                    14.973433
_cell_angle_alpha                 94.224709
_cell_angle_beta                  86.793135
_cell_angle_gamma                 92.753901
_cell_volume                      1028.2001651

loop_
_atom_site_label
_atom_site_type_symbol
_atom_type_description
_atom_site_fract_x
_atom_site_fract_y
_atom_site_fract_z
_atom_type_partial_charge
C1    C     C_R   0.543978 0.793355 0.497828 0.953719
C2    C     C_R   0.577550 0.639451 0.818679 0.034782
C3    C     C_R   0.495382 0.488462 0.231467 -0.072975
C4    C     C_R   0.504624 0.511532 0.768532 -0.072988
C5    C     C_R   0.584196 0.607255 0.189839 -0.297595
C6    C     C_R   0.415809 0.392744 0.810161 -0.297626
C7    C     C_R   0.581832 0.615405 0.098478 0.126043
C8    C     C_R   0.418197 0.384582 0.901520 0.126055
C9    C     C_R   0.500262 0.495431 0.046507 0.035070
C10   C     C_R   0.499780 0.504549 0.953490 0.035075
C11   C     C_R   0.422544 0.365102 0.087211 0.102022
C12   C     C_R   0.456022 0.206645 0.502168 0.953732
C13   C     C_R   0.577501 0.634876 0.912786 0.102016
C14   C     C_R   0.657826 0.743837 0.059046 -0.216806
C15   C     C_R   0.342214 0.256146 0.940950 -0.216816
C16   C     C_3   0.364336 0.215534 0.227242 -0.453655
C17   C     C_3   0.503355 0.099390 0.221768 -0.351148
C18   C     C_3   0.448753 0.956442 0.271804 -0.859668
C19   C     C_3   0.635651 0.784463 0.772756 -0.453618
C20   C     C_3   0.496609 0.900592 0.778269 -0.351089
C21   C     C_3   0.551121 0.043531 0.728204 -0.859649
C22   C     C_3   0.016509 0.367315 0.397289 -0.172036
C23   C     C_R   0.653055 0.755361 0.967561 -0.231994
C24   C     C_3   0.909292 0.216967 0.383279 -0.354873
C25   C     C_3   0.973352 0.105784 0.307320 -1.019452
C26   C     C_3   0.983498 0.632705 0.602705 -0.172073
C27   C     C_3   0.090696 0.783075 0.616677 -0.354812
C28   C     C_3   0.026556 0.894374 0.692563 -1.019330
C29   C     C_R   0.347001 0.244613 0.032433 -0.232001
C30   C     C_2   0.566822 0.956482 0.497657 -0.386197
C31   C     C_2   0.433180 0.043518 0.502331 -0.386162
C32   C     C_R   0.502572 0.504753 0.672371 0.869082
C33   C     C_R   0.497427 0.495243 0.327629 0.869067
C34   C     C_R   0.422478 0.360533 0.181318 0.034787
H1    H     H_    0.655524 0.694220 0.229277 0.154212
H2    H     H_    0.380663 0.869869 0.227047 0.268216
H3    H     H_    0.560686 0.905947 0.296317 0.241968
H4    H     H_    0.538000 0.063082 0.150669 0.226896
H5    H     H_    0.616104 0.156098 0.252088 0.228925
H6    H     H_    0.328778 0.243709 0.298598 0.202527
H7    H     H_    0.250432 0.161407 0.198100 0.211086
H8    H     H_    0.439140 0.093982 0.703712 0.241955
H9    H     H_    0.619230 0.130135 0.772934 0.268223
H10   H     H_    0.634419 0.013736 0.668640 0.260894
H11   H     H_    0.383821 0.843865 0.747995 0.228898
H12   H     H_    0.344461 0.305792 0.770725 0.154220
H13   H     H_    0.462047 0.936914 0.849375 0.226881
H14   H     H_    0.749580 0.838591 0.801875 0.211063
H15   H     H_    0.671158 0.756303 0.701392 0.202496
H16   H     H_    0.979751 0.163333 0.243309 0.270376
H17   H     H_    0.096352 0.063972 0.322642 0.279547
H18   H     H_    0.884705 0.003086 0.300462 0.270047
H19   H     H_    0.903954 0.156369 0.446159 0.232640
H20   H     H_    0.783200 0.245429 0.365768 0.276336
H21   H     H_    0.014974 0.435938 0.337457 0.174163
H22   H     H_    0.142941 0.333293 0.405723 0.226874
H23   H     H_    0.719242 0.836955 0.099339 0.149902
H24   H     H_    0.903478 0.935997 0.677223 0.279512
H25   H     H_    0.020284 0.837001 0.756632 0.270329
H26   H     H_    0.115085 0.997177 0.699317 0.270059
H27   H     H_    0.216779 0.754648 0.634240 0.276273
H28   H     H_    0.096074 0.843574 0.553760 0.232672
H29   H     H_    0.857049 0.666693 0.594279 0.226893
H30   H     H_    0.985075 0.564117 0.662550 0.174138
H31   H     H_    0.280794 0.163030 0.900657 0.149917
H32   H     H_    0.710364 0.859621 0.941827 0.154668
H33   H     H_    0.289707 0.140344 0.058164 0.154674
H34   H     H_    0.694313 0.004650 0.496146 0.175095
H35   H     H_    0.305690 0.995351 0.503842 0.175082
H36   H     H_    0.365412 0.986240 0.331351 0.260901
N1    N     N_2   0.950330 0.457950 0.475660 -0.066110
N2    N     N_2   0.049670 0.542050 0.524340 -0.066115
O1    O     O_R   0.389250 0.738570 0.505970 -0.630278
O2    O     O_R   0.610750 0.261430 0.494030 -0.630286
O3    O     O_R   0.678390 0.711620 0.490370 -0.648417
O4    O     O_R   0.321610 0.288380 0.509630 -0.648427
O5    O     O_R   0.355420 0.513510 0.639950 -0.629713
O6    O     O_R   0.644580 0.486490 0.360050 -0.629722
O7    O     O_R   0.644560 0.486560 0.624350 -0.647153
O8    O     O_R   0.355440 0.513440 0.375650 -0.647158
Zn1   Zn    Zn3+2 0.306940 0.517990 0.510420 0.912960
Zn2   Zn    Zn3+2 0.693060 0.482010 0.489580 0.912972

loop_
_geom_bond_atom_site_label_1
_geom_bond_atom_site_label_2
_ccdc_geom_bond_type
C18   H36   S    
C12   O2    A    
C26   N2    S    
C19   C20   S    
C26   C27   S    
C23   H32   S    
C18   H3    S    
C30   C31   D    
C33   O6    A    
C3    C33   S    
C24   H20   S    
C15   H31   S    
C13   C23   A    
C17   H5    S    
C2    C13   A    
C19   H15   S    
C25   H16   S    
C26   H30   S    
C27   H27   S    
C16   C34   S    
C32   O5    A    
C21   H9    S    
C7    C14   A    
C16   C17   S    
C9    C10   A    
N2    Zn1   S    
N1    Zn2   S    
C29   H33   S    
O2    Zn2   S    
O1    Zn1   S    
C15   C29   A    
C28   H26   S    
C1    O3    A    
C24   C25   S    
C4    C6    A    
C5    C7    A    
C19   H14   S    
C22   H22   S    
C3    C34   A    
C24   H19   S    
C14   C23   A    
C2    C4    A    
C26   H29   S    
C25   H17   S    
C27   H28   S    
C21   H10   S    
O6    Zn2   S    
O5    Zn1   S    
C17   C18   S    
C33   O8    A    
C9    C11   A    
C4    C32   S    
C16   H6    S    
C8    C15   A    
C12   O4    A    
C12   C31   S    
C22   C24   S    
C22   N1    S    
C28   H25   S    
C7    C9    A    
C14   H23   S    
C6    H12   S    
C2    C19   S    
C11   C34   A    
C20   H11   S    
O8    Zn1   S    
C3    C5    A    
C10   C13   A    
O4    Zn1   S    
O7    Zn2   S    
C6    C8    A    
O3    Zn2   S    
C22   H21   S    
C28   H24   S    
C1    O1    A    
C25   H18   S    
N1    N2    D    
C32   O7    A    
C5    H1    S    
C1    C30   S    
C17   H4    S    
C20   H13   S    
C21   H8    S    
C31   H35   S    
C20   C21   S    
C11   C29   A    
C8    C10   A    
C27   C28   S    
C18   H2    S    
C16   H7    S    
C30   H34   S    
