data_str_m3_o1_o14_f0_pcu.sym.159
_audit_creation_date              2013-03-05T16:09:55-0500
_audit_creation_method            fapswitch 2.2
_symmetry_space_group_name_H-M    P1
_symmetry_Int_Tables_number       1
_space_group_crystal_system       triclinic
_cell_length_a                    10.780475
_cell_length_b                    9.918371
_cell_length_c                    10.663426
_cell_angle_alpha                 93.599062
_cell_angle_beta                  92.972461
_cell_angle_gamma                 88.138932
_cell_volume                      1135.91593584

loop_
_atom_site_label
_atom_site_type_symbol
_atom_site_description
_atom_site_fract_x
_atom_site_fract_y
_atom_site_fract_z
_atom_type_partial_charge
O1    O     O_R   0.316770 0.614620 0.499990 -0.570845
O2    O     O_R   0.683230 0.614620 0.500010 -0.587270
O3    O     O_R   0.316800 0.385290 0.500000 -0.578931
O4    O     O_R   0.683200 0.385290 0.500000 -0.623621
C1    C     C_R   0.260510 0.502837 0.504447 0.956766
C2    C     C_R   0.739864 0.498365 0.499541 0.967867
O5    O     O_R   0.500010 0.614690 0.316770 -0.590761
O6    O     O_R   0.499990 0.614690 0.683230 -0.576621
O7    O     O_R   0.500040 0.385360 0.316770 -0.583912
O8    O     O_R   0.499960 0.385360 0.683230 -0.619720
C3    C     C_R   0.490959 0.495595 0.259777 0.935865
C4    C     C_R   0.497844 0.505502 0.740052 0.883263
Zn1   Zn    Zn3+2 0.500000 0.653120 0.500000 1.087437
Zn2   Zn    Zn3+2 0.500000 0.346880 0.500000 1.014943
C5    C     C_R   0.257210 0.516594 0.097312 0.337988
C6    C     C_R   0.297316 0.652748 0.881822 0.292709
C7    C     C_R   0.158415 0.583252 0.034329 -0.160486
C8    C     C_R   0.179682 0.656671 0.931725 -0.272609
H1    H     H_    0.064063 0.575672 0.062890 0.211867
H2    H     H_    0.103953 0.716260 0.890540 0.203744
C9    C     C_R   0.394400 0.570735 0.936330 -0.092015
C10   C     C_R   0.379487 0.525772 0.055882 -0.112435
C11   C     C_R   0.486946 0.483091 0.125423 -0.053624
C12   C     C_R   0.500895 0.520349 0.874090 -0.048285
C13   C     C_R   0.598056 0.448043 0.067691 0.074041
C14   C     C_R   0.602977 0.460908 0.938893 0.058283
C15   C     C_R   0.071986 0.408950 0.575632 0.033426
C16   C     C_R   0.943209 0.402209 0.567990 0.054769
C17   C     C_R   0.872859 0.497843 0.500274 -0.219378
C18   C     C_R   0.128293 0.509788 0.513829 -0.168751
C19   C     C_R   0.929751 0.603444 0.444399 0.189250
C20   C     C_R   0.057317 0.611828 0.454949 0.264747
C21   C     C_R   0.571205 0.073226 0.588467 0.115407
C22   C     C_R   0.432629 0.068903 0.410345 0.073998
C23   C     C_R   0.570064 0.929145 0.588082 0.224513
C24   C     C_R   0.433599 0.924497 0.408997 0.150875
N1    N     N_R   0.500000 0.857200 0.500000 -0.073945
N2    N     N_R   0.500000 0.142810 0.500000 -0.102932
N3    N     N_3   0.702747 0.395051 0.139940 -0.421590
H3    H     H_    0.721489 0.295686 0.106135 0.200482
H4    H     H_    0.780267 0.452190 0.127117 0.230345
N4    N     N_3   0.711961 0.418560 0.873268 -0.474333
H5    H     H_    0.786789 0.475085 0.910690 0.188125
H6    H     H_    0.731561 0.316679 0.887671 0.196406
N5    N     N_R   0.228122 0.409355 0.173032 0.185149
O9    O     O_R   0.131271 0.421298 0.240982 -0.426291
O10   O     O_R   0.266024 0.288577 0.135830 -0.408925
N6    N     N_R   0.321983 0.752469 0.795800 0.223572
O11   O     O_R   0.235716 0.788517 0.713825 -0.363293
O12   O     O_R   0.414176 0.832303 0.822767 -0.389955
N7    N     N_3   0.146345 0.316549 0.648858 -0.413221
H7    H     H_    0.121876 0.328400 0.742557 0.191349
H8    H     H_    0.129465 0.217601 0.614144 0.230688
N8    N     N_3   0.883582 0.300715 0.631128 -0.456487
H9    H     H_    0.913695 0.205510 0.595056 0.216396
H10   H     H_    0.908559 0.310668 0.727159 0.179502
N9    N     N_R   0.858856 0.702840 0.375918 0.253741
O13   O     O_R   0.790865 0.666379 0.276020 -0.391711
O14   O     O_R   0.863813 0.830346 0.412313 -0.350571
N10   N     N_R   0.113519 0.721170 0.399725 0.235384
O15   O     O_R   0.141500 0.828307 0.470836 -0.332959
O16   O     O_R   0.100704 0.730896 0.278734 -0.392767
N11   N     N_3   0.644792 0.143905 0.685627 -0.432706
H11   H     H_    0.663753 0.237711 0.656339 0.272610
H12   H     H_    0.732788 0.096967 0.692066 0.149565
N12   N     N_3   0.362347 0.138574 0.316852 -0.329626
H13   H     H_    0.268461 0.118630 0.324094 0.229916
H14   H     H_    0.390766 0.100700 0.228910 0.211756
N13   N     N_3   0.645966 0.856541 0.676912 -0.374489
H15   H     H_    0.739117 0.867584 0.657984 0.183274
H16   H     H_    0.631633 0.898305 0.767594 0.223753
N14   N     N_3   0.369919 0.848018 0.308750 -0.360700
H17   H     H_    0.279823 0.887901 0.296486 0.238892
H18   H     H_    0.415048 0.860579 0.226021 0.183104

loop_
_geom_bond_atom_site_label_1
_geom_bond_atom_site_label_2
_geom_bond_distance
_ccdc_geom_bond_type
C24   N1    1.370356 A    
N12   H14   1.045217 S    
O7    Zn2   2.014188 S    
N11   H12   1.044003 S    
O6    Zn1   2.014045 S    
Zn2   N2    2.024043 S    
C4    C12   1.426427 S    
Zn1   N1    2.024141 S    
C19   C20   1.378775 A    
O6    C4    1.275126 A    
C21   N11   1.433128 S    
C15   C16   1.389970 A    
C9    C10   1.395426 A    
C19   N9    1.439740 S    
N6    O12   1.300140 A    
C7    C8    1.384490 A    
O3    C1    1.296088 A    
N13   H16   1.044780 S    
C23   N1    1.356163 A    
C17   C19   1.409307 A    
O2    C2    1.286933 A    
N5    O9    1.299560 A    
C13   N3    1.437262 S    
C15   C18   1.402416 A    
C18   C20   1.408408 A    
O7    C3    1.282437 A    
C22   N12   1.421144 S    
N9    O13   1.300251 A    
C6    C9    1.426852 A    
O3    Zn2   1.999206 S    
N4    H6    1.044792 S    
N14   H17   1.041792 S    
O1    C1    1.285547 A    
O8    C4    1.302547 A    
C23   N13   1.432606 S    
C6    C8    1.398956 A    
N6    O11   1.300063 A    
C21   C23   1.429249 A    
C15   N7    1.438556 S    
O5    C3    1.298223 A    
C22   C24   1.431149 A    
C11   C13   1.398984 A    
C14   N4    1.436255 S    
O4    Zn2   2.023502 S    
N13   H15   1.045038 S    
N8    H10   1.044645 S    
C9    C12   1.417184 A    
N9    O14   1.301322 A    
O4    C2    1.294793 A    
O1    Zn1   2.024010 S    
N4    H5    1.045073 S    
C20   N10   1.431730 S    
N11   H11   1.029762 S    
C24   N14   1.430133 S    
O5    Zn1   1.967073 S    
C2    C17   1.433211 S    
N12   H13   1.045241 S    
C6    N6    1.430619 S    
N3    H4    1.044330 S    
C8    H2    1.082932 S    
N14   H18   1.045320 S    
C1    C18   1.433167 S    
O8    Zn2   1.967152 S    
N5    O10   1.297955 A    
C3    C11   1.428782 S    
N3    H3    1.045027 S    
C5    C7    1.399409 A    
O2    Zn1   1.999659 S    
C16   N8    1.432433 S    
N8    H9    1.045203 S    
C16   C17   1.406688 A    
C21   N2    1.388425 A    
C7    H1    1.083044 S    
C13   C14   1.391181 A    
C10   C11   1.410529 A    
C5    C10   1.419281 A    
N10   O16   1.299707 A    
N7    H7    1.045119 S    
C12   C14   1.402247 A    
N10   O15   1.300420 A    
N7    H8    1.045133 S    
C5    N5    1.427353 S    
C22   N2    1.361398 A    
