data_str_m3_o10_o28_f0_pcu.sym.92
_audit_creation_date              2012-12-10T16:58:32-0500
_audit_creation_method            fapswitch 2.2
_symmetry_space_group_name_H-M    P1
_symmetry_Int_Tables_number       1
_space_group_crystal_system       triclinic
_cell_length_a                    7.850555
_cell_length_b                    8.550982
_cell_length_c                    23.35175
_cell_angle_alpha                 92.632238
_cell_angle_beta                  85.097852
_cell_angle_gamma                 92.582396
_cell_volume                      1558.88694535

loop_
_atom_site_label
_atom_site_type_symbol
_atom_type_description
_atom_site_fract_x
_atom_site_fract_y
_atom_site_fract_z
_atom_type_partial_charge
C1    C     C_R   0.543435 0.793786 0.500170 0.948987
C2    C     C_R   0.582908 0.354328 0.295624 0.041243
C3    C     C_R   0.399753 0.594961 0.768947 0.377793
C4    C     C_R   0.591476 0.353543 0.234968 0.389363
C5    C     C_R   0.498938 0.480273 0.790783 0.023487
C6    C     C_R   0.493699 0.461070 0.208664 0.013464
C7    C     C_2   0.558521 0.956032 0.510734 -0.024832
C8    C     C_2   0.441530 0.043949 0.489219 -0.022372
C9    C     C_R   0.501463 0.503779 0.610326 0.910224
C10   C     C_R   0.498112 0.493321 0.389719 0.909945
C11   C     C_R   0.386691 0.363505 0.120396 0.557596
C12   C     C_R   0.456565 0.206202 0.499830 0.943254
C13   C     C_R   0.615870 0.566060 0.878672 0.667633
C14   C     C_R   0.615183 0.558339 0.118883 0.676823
C15   C     C_R   0.394146 0.364984 0.879655 0.670482
C16   C     C_R   0.624156 0.560612 0.058351 -0.029551
C17   C     C_R   0.389208 0.358436 0.940066 -0.025081
C18   C     C_R   0.506640 0.460224 0.029397 -0.028984
C19   C     C_R   0.506055 0.459359 0.969095 -0.051374
C20   C     C_R   0.388532 0.361018 0.060725 -0.059642
C21   C     C_R   0.621490 0.561181 0.937929 -0.071257
C22   C     C_R   0.744201 0.658152 0.025707 0.113072
C23   C     C_R   0.601581 0.381786 0.753756 0.460287
C24   C     C_R   0.271887 0.258162 0.972630 0.136946
C25   C     C_R   0.739521 0.657407 0.966105 -0.094234
C26   C     C_R   0.273899 0.261528 0.032371 -0.117337
C27   C     C_3   0.879125 0.763985 0.051877 -0.655880
C28   C     C_3   0.140647 0.148525 0.946343 -0.672009
C29   C     C_3   0.331713 0.751512 0.684196 -0.692758
C30   C     C_3   0.660048 0.223797 0.325464 -0.705465
C31   C     C_3   0.678640 0.013456 0.555924 -0.855286
C32   C     C_3   0.321418 0.986526 0.444019 -0.862877
C33   C     C_3   0.019798 0.394195 0.429933 -0.447705
C34   C     C_R   0.391122 0.568655 0.241764 0.447194
C35   C     C_3   0.980325 0.605746 0.570106 -0.456040
C36   C     C_R   0.600243 0.393605 0.694916 -0.349615
C37   C     C_R   0.394658 0.575374 0.301010 -0.318236
C38   C     C_R   0.504110 0.505541 0.672421 -0.145425
C39   C     C_R   0.492978 0.473462 0.327788 -0.152206
C40   C     C_R   0.410281 0.613256 0.708901 0.018280
H1    H     H_    0.829414 0.733283 0.941393 0.214930
H2    H     H_    0.052002 0.216530 0.923676 0.257581
H3    H     H_    0.958516 0.263257 0.828859 0.414705
H4    H     H_    0.090797 0.547145 0.156585 0.376584
H5    H     H_    0.390469 0.777975 0.640639 0.199481
H6    H     H_    0.192523 0.727614 0.681810 0.245733
H7    H     H_    0.353862 0.860023 0.710872 0.291557
H8    H     H_    0.610329 0.215403 0.371101 0.199743
H9    H     H_    0.625961 0.108341 0.305022 0.277900
H10   H     H_    0.801111 0.241432 0.323289 0.262076
H11   H     H_    0.032993 0.652342 0.780113 0.389667
H12   H     H_    0.183827 0.185841 0.057091 0.214526
H13   H     H_    0.508620 0.048675 0.179314 0.399257
H14   H     H_    0.718182 0.915255 0.580615 0.224625
H15   H     H_    0.796302 0.070482 0.535059 0.270622
H16   H     H_    0.614066 0.096205 0.587889 0.240769
H17   H     H_    0.282211 0.084733 0.419258 0.223287
H18   H     H_    0.385730 0.903435 0.412097 0.242492
H19   H     H_    0.203587 0.929856 0.464913 0.271853
H20   H     H_    0.919700 0.317649 0.411179 0.177489
H21   H     H_    0.054725 0.489723 0.399959 0.207172
H22   H     H_    0.126700 0.318410 0.434921 0.204691
H23   H     H_    0.674422 0.314760 0.666085 0.204361
H24   H     H_    0.080540 0.682176 0.588935 0.177979
H25   H     H_    0.873462 0.681609 0.565143 0.206974
H26   H     H_    0.945270 0.510137 0.600038 0.203577
H27   H     H_    0.320539 0.661049 0.326750 0.200111
H28   H     H_    0.817653 0.855453 0.080882 0.298218
H29   H     H_    0.963386 0.693802 0.075555 0.264639
H30   H     H_    0.963285 0.825672 0.018729 0.201777
H31   H     H_    0.205234 0.060784 0.916498 0.305584
H32   H     H_    0.060699 0.082264 0.979295 0.202178
N1    N     N_R   0.498099 0.461206 0.147683 -0.321680
N2    N     N_R   0.503541 0.469499 0.851287 -0.323723
N3    N     N_2   0.950330 0.457950 0.484560 -0.014731
N4    N     N_2   0.049670 0.542050 0.515440 -0.013280
O1    O     O_R   0.389250 0.738570 0.503790 -0.619203
O2    O     O_2   0.721083 0.667046 0.848266 -0.482945
O3    O     O_2   0.720373 0.651491 0.149495 -0.482489
O4    O     O_2   0.290325 0.270893 0.848904 -0.525745
O5    O     O_2   0.633309 0.135323 0.818899 -0.224290
O6    O     O_2   0.827128 0.153278 0.731363 -0.281720
O7    O     O_3   0.883069 0.344546 0.817894 -0.552651
O8    O     O_2   0.203334 0.826189 0.251929 -0.231476
O9    O     O_2   0.332407 0.757457 0.155831 -0.319252
O10   O     O_3   0.071619 0.586917 0.197010 -0.455489
O11   O     O_2   0.223361 0.651655 0.874021 -0.322631
O12   O     O_R   0.610750 0.261430 0.496210 -0.622616
O13   O     O_2   0.369003 0.872806 0.825582 -0.197961
O14   O     O_3   0.088090 0.756954 0.787580 -0.473778
O15   O     O_2   0.750887 0.253952 0.130680 -0.324979
O16   O     O_2   0.889323 0.205879 0.216954 -0.185764
O17   O     O_3   0.618626 0.036536 0.196119 -0.476663
O18   O     O_R   0.678390 0.711620 0.493890 -0.623544
O19   O     O_R   0.321610 0.288380 0.506110 -0.623410
O20   O     O_R   0.355400 0.513520 0.588790 -0.607138
O21   O     O_R   0.644600 0.486480 0.411210 -0.602197
O22   O     O_R   0.644550 0.486570 0.578900 -0.644252
O23   O     O_R   0.355450 0.513430 0.421100 -0.645778
O24   O     O_2   0.274673 0.269290 0.151303 -0.505778
S1    S     S_3+6 0.736743 0.245984 0.780192 0.057527
S2    S     S_3+6 0.251108 0.691938 0.210730 0.079977
S3    S     S_3+6 0.270399 0.720365 0.816477 0.063024
S4    S     S_3+6 0.718809 0.214257 0.192766 0.076089
Zn1   Zn    Zn3+2 0.306930 0.518000 0.506610 0.943732
Zn2   Zn    Zn3+2 0.693070 0.482000 0.493390 0.944769

loop_
_geom_bond_atom_site_label_1
_geom_bond_atom_site_label_2
_ccdc_geom_bond_type
O20   Zn1   S    
N4    Zn1   S    
C34   C37   A    
C1    O1    A    
C32   H18   S    
O15   S4    D    
C7    C8    D    
O5    S1    D    
C34   S2    S    
C29   H7    S    
C30   H8    S    
C19   C21   A    
C24   C26   A    
H11   O14   S    
C35   H25   S    
C4    S4    S    
H3    O7    S    
C18   C19   A    
C5    N2    S    
C27   H28   S    
O19   Zn1   S    
C2    C39   A    
C33   N3    S    
C1    O18   A    
C22   C25   A    
C12   O19   A    
C35   H24   S    
C31   H16   S    
C36   H23   S    
C27   H29   S    
O8    S2    D    
C30   H10   S    
O13   S3    D    
C28   H32   S    
C32   H17   S    
H4    O10   S    
O17   S4    S    
C11   C20   A    
C35   N4    S    
C17   C24   A    
C7    C31   S    
C12   O12   A    
H13   O17   S    
C8    C32   S    
C14   N1    A    
C4    C6    A    
C11   N1    A    
C25   H1    S    
C33   H22   S    
C35   H26   S    
C6    C34   A    
C29   H5    S    
C10   C39   S    
C10   O21   A    
C2    C4    A    
N3    N4    D    
C9    O22   A    
C26   H12   S    
O12   Zn2   S    
C15   O4    S    
C5    C23   A    
C8    C12   S    
C13   C21   A    
C14   O3    S    
C9    O20   A    
C27   H30   S    
O11   S3    D    
O21   Zn2   S    
C16   C18   A    
C30   H9    S    
C3    C40   A    
C33   H20   S    
C22   C27   S    
C14   C16   A    
C28   H31   S    
O10   S2    S    
C6    N1    S    
C3    S3    S    
C15   C17   A    
C21   C25   A    
C13   O2    S    
O18   Zn2   S    
C16   C22   A    
O7    S1    S    
C1    C7    S    
C24   C28   S    
C3    C5    A    
O1    Zn1   S    
O22   Zn2   S    
C29   H6    S    
C2    C30   S    
C36   C38   A    
C37   C39   A    
C38   C40   A    
C23   S1    S    
C20   C26   A    
C37   H27   S    
C29   C40   S    
C28   H2    S    
C9    C38   S    
C17   C19   A    
O6    S1    D    
C18   C20   A    
C31   H14   S    
C10   O23   A    
O23   Zn1   S    
O14   S3    S    
O16   S4    D    
C15   N2    A    
C13   N2    A    
N3    Zn2   S    
C33   H21   S    
C23   C36   A    
C11   O24   S    
C32   H19   S    
C31   H15   S    
O9    S2    D    
