data_str_m3_o10_o16_f0_pcu.sym.97
_audit_creation_date              2012-12-10T16:51:34-0500
_audit_creation_method            fapswitch 2.2
_symmetry_space_group_name_H-M    P1
_symmetry_Int_Tables_number       1
_space_group_crystal_system       triclinic
_cell_length_a                    7.814653
_cell_length_b                    8.575497
_cell_length_c                    12.609479
_cell_angle_alpha                 92.449247
_cell_angle_beta                  102.6372
_cell_angle_gamma                 93.921118
_cell_volume                      821.17158625

loop_
_atom_site_label
_atom_site_type_symbol
_atom_type_description
_atom_site_fract_x
_atom_site_fract_y
_atom_site_fract_z
_atom_type_partial_charge
C1    C     C_R   0.044368 0.794591 0.497237 0.957037
C2    C     C_R   0.191153 0.591499 0.820211 -0.130585
C3    C     C_2   0.067577 0.958165 0.495769 -0.378196
C4    C     C_R   0.114902 0.532509 0.706920 0.864591
C5    C     C_2   0.932603 0.041862 0.504579 -0.385074
C6    C     C_R   0.955702 0.205432 0.502894 0.979075
C7    C     C_R   0.889606 0.487037 0.292055 0.875518
C8    C     C_R   0.855540 0.405718 0.995607 -0.185331
C9    C     C_R   0.826126 0.477940 0.176185 -0.053839
C10   C     C_R   0.084081 0.654786 0.883823 -0.217540
C11   C     C_R   0.147866 0.685432 0.995166 -0.119724
C12   C     C_R   0.428963 0.587902 0.981093 0.077786
C13   C     C_R   0.314901 0.644555 0.044770 -0.196923
C14   C     C_R   0.372037 0.581898 0.867228 0.096274
C15   C     C_R   0.596661 0.534618 0.024767 0.078081
C16   C     C_R   0.699100 0.474215 0.954353 0.163573
C17   C     C_R   0.650717 0.494321 0.844255 -0.281540
C18   C     C_R   0.498609 0.564107 0.804347 -0.183577
C19   C     C_R   0.665447 0.537984 0.135599 -0.270574
C20   C     C_R   0.919934 0.408343 0.107016 -0.207873
H1    H     H_    0.043393 0.358820 0.138859 0.162518
H2    H     H_    0.483800 0.606548 0.724791 0.171040
H3    H     H_    0.194932 0.009161 0.487406 0.178946
H4    H     H_    0.805264 0.990863 0.512970 0.178274
H5    H     H_    0.471401 0.366150 0.426581 0.190346
H6    H     H_    0.528663 0.640906 0.565864 0.172643
H7    H     H_    0.734156 0.463254 0.789969 0.186429
H8    H     H_    0.931287 0.356359 0.941799 0.152279
H9    H     H_    0.598164 0.590437 0.192150 0.160919
H10   H     H_    0.950808 0.679378 0.847736 0.164000
H11   H     H_    0.349908 0.659885 0.132231 0.134860
H12   H     H_    0.063574 0.732540 0.044203 0.155304
N1    N     N_2   0.434800 0.456690 0.470850 -0.176165
N2    N     N_2   0.565200 0.543310 0.529150 -0.182919
O1    O     O_R   0.893060 0.738880 0.507150 -0.615802
O2    O     O_R   0.172250 0.711130 0.488470 -0.636706
O3    O     O_R   0.944700 0.520730 0.667600 -0.630704
O4    O     O_R   0.223890 0.492980 0.648920 -0.622585
O5    O     O_R   0.827750 0.288870 0.511530 -0.626218
O6    O     O_R   0.106940 0.261120 0.492850 -0.608932
O7    O     O_R   0.776110 0.507020 0.351080 -0.628503
O8    O     O_R   0.055300 0.479270 0.332400 -0.623134
Zn1   Zn    Zn3+2 0.813580 0.518530 0.512470 0.928289
Zn2   Zn    Zn3+2 0.186420 0.481470 0.487530 0.934662

loop_
_geom_bond_atom_site_label_1
_geom_bond_atom_site_label_2
_ccdc_geom_bond_type
O3    Zn1   S    
C2    C4    S    
O4    Zn2   S    
O1    Zn1   S    
C10   H10   S    
C9    C20   A    
C3    H3    S    
C12   C15   A    
O6    Zn2   S    
N1    N2    D    
C8    C16   A    
C20   H1    S    
C15   C19   A    
C12   C13   A    
O7    Zn1   S    
C8    C20   A    
C5    H4    S    
O8    Zn2   S    
C2    C14   A    
C12   C14   A    
C11   H12   S    
C17   C18   A    
C13   H11   S    
C7    O7    A    
C5    C6    S    
C8    H8    S    
C6    O6    A    
O2    Zn2   S    
C10   C11   A    
C15   C16   A    
C17   H7    S    
C3    C5    D    
C11   C13   A    
C4    O3    A    
C1    O1    A    
C7    O8    A    
H5    N1    S    
C7    C9    S    
C14   C18   A    
C6    O5    A    
O5    Zn1   S    
H6    N2    S    
C18   H2    S    
N1    Zn2   S    
C9    C19   A    
C2    C10   A    
N2    Zn1   S    
C1    O2    A    
C4    O4    A    
C16   C17   A    
C1    C3    S    
C19   H9    S    
