data_str_m4_o22_o22_f0_acs.sym.40
_audit_creation_date              2012-12-11T15:07:00-0500
_audit_creation_method            fapswitch 2.2
_symmetry_space_group_name_H-M    P1
_symmetry_Int_Tables_number       1
_space_group_crystal_system       triclinic
_cell_length_a                    19.768426
_cell_length_b                    11.301717
_cell_length_c                    18.739136
_cell_angle_alpha                 89.936268
_cell_angle_beta                  90.703303
_cell_angle_gamma                 90.005331
_cell_volume                      4186.32646523

loop_
_atom_site_label
_atom_site_type_symbol
_atom_type_description
_atom_site_fract_x
_atom_site_fract_y
_atom_site_fract_z
_atom_type_partial_charge
C1    C     C_R   0.760356 0.525785 0.640238 0.534059
C2    C     C_3   0.249878 0.060853 0.564978 0.063911
C3    C     C_R   0.739985 0.035694 0.151941 0.527609
C4    C     C_R   0.774792 0.133628 0.859192 0.533396
C5    C     C_R   0.225274 0.133649 0.140952 0.533740
C6    C     C_R   0.274498 0.633223 0.858925 0.533584
C7    C     C_R   0.725614 0.632396 0.141294 0.533222
C8    C     C_R   0.968402 0.353086 0.854126 0.535886
C9    C     C_R   0.032006 0.353217 0.145728 0.535880
C10   C     C_R   0.467946 0.853171 0.854423 0.535628
C11   C     C_R   0.529928 0.853227 0.146879 0.532847
C12   C     C_3   0.693059 0.140640 0.462421 -0.235033
C13   C     C_3   0.250061 0.560647 0.435090 0.063670
C14   C     C_3   0.306826 0.140994 0.537597 -0.235569
C15   C     C_3   0.193060 0.640642 0.462421 -0.235055
C16   C     C_3   0.806827 0.640992 0.537597 -0.235590
C17   C     C_3   0.700193 0.154521 0.542860 -0.233838
C18   C     C_3   0.299711 0.154790 0.457155 -0.234052
C19   C     C_3   0.200194 0.654522 0.542860 -0.233822
C20   C     C_3   0.799712 0.654789 0.457154 -0.234043
C21   C     C_3   0.757347 0.943467 0.479683 -0.219167
C22   C     C_3   0.242643 0.943614 0.520574 -0.218833
C23   C     C_3   0.257347 0.443467 0.479683 -0.219214
C24   C     C_3   0.749879 0.560852 0.564977 0.063814
C25   C     C_3   0.742643 0.443613 0.520573 -0.218876
C26   C     C_1   0.946312 0.525602 0.412008 0.173521
C27   C     C_1   0.053149 0.526343 0.587243 0.173624
C28   C     C_1   0.446309 0.025598 0.412004 0.173445
C29   C     C_1   0.553145 0.026349 0.587238 0.173718
C30   C     C_3   0.764297 0.095045 0.572273 0.052005
C31   C     C_3   0.235665 0.095093 0.427772 0.052178
C32   C     C_3   0.264297 0.595045 0.572273 0.052107
C33   C     C_3   0.735665 0.595092 0.427772 0.052266
C34   C     C_3   0.754926 0.962988 0.560501 -0.264532
C35   C     C_3   0.245124 0.963067 0.439744 -0.264777
C36   C     C_3   0.254926 0.462988 0.560501 -0.264528
C37   C     C_R   0.239608 0.525606 0.359820 0.533660
C38   C     C_3   0.745124 0.463066 0.439744 -0.264774
C39   C     C_3   0.827808 0.133775 0.529315 -0.219117
C40   C     C_3   0.172113 0.133767 0.470614 -0.219160
C41   C     C_3   0.327809 0.633774 0.529315 -0.219086
C42   C     C_3   0.672113 0.633767 0.470614 -0.219163
C43   C     C_3   0.002070 0.211643 0.459289 -0.255387
C44   C     C_3   0.997896 0.211772 0.540892 -0.255162
C45   C     C_3   0.502071 0.711642 0.459288 -0.255367
C46   C     C_3   0.497897 0.711773 0.540891 -0.255184
C47   C     C_3   0.066517 0.409232 0.475885 -0.214025
C48   C     C_R   0.260356 0.025785 0.640238 0.533717
C49   C     C_3   0.933231 0.409154 0.523890 -0.214076
C50   C     C_3   0.566516 0.909233 0.475884 -0.213975
C51   C     C_3   0.433229 0.909152 0.523888 -0.214114
C52   C     C_3   0.944071 0.404352 0.442683 -0.128732
C53   C     C_3   0.055641 0.404847 0.557082 -0.128722
C54   C     C_3   0.444069 0.904349 0.442682 -0.128717
C55   C     C_3   0.555639 0.904851 0.557080 -0.128778
C56   C     C_3   0.011503 0.339155 0.431269 0.044760
C57   C     C_3   0.988320 0.339355 0.568649 0.044814
C58   C     C_3   0.511502 0.839154 0.431268 0.044967
C59   C     C_R   0.739608 0.025606 0.359820 0.533110
C60   C     C_3   0.488319 0.839356 0.568648 0.044700
C61   C     C_3   0.819367 0.029391 0.048404 -0.228281
C62   C     C_3   0.185996 0.016283 0.954128 -0.223557
C63   C     C_3   0.313583 0.516698 0.045918 -0.224091
C64   C     C_3   0.687641 0.510616 0.955538 -0.224751
C65   C     C_R   0.775775 0.124146 0.648150 0.540280
C66   C     C_R   0.224216 0.124116 0.351861 0.540307
C67   C     C_R   0.275775 0.624146 0.648150 0.539974
C68   C     C_R   0.724216 0.624116 0.351861 0.540068
C69   C     C_3   0.822295 0.036516 0.968258 -0.226701
C70   C     C_3   0.815538 0.130440 0.447821 -0.259598
C71   C     C_3   0.180310 0.030906 0.033389 -0.227311
C72   C     C_3   0.319283 0.531195 0.966707 -0.228432
C73   C     C_3   0.684694 0.517170 0.035593 -0.235603
C74   C     C_3   0.692782 0.012827 0.030679 -0.221986
C75   C     C_3   0.316012 0.029886 0.970649 -0.217255
C76   C     C_3   0.183441 0.529894 0.029699 -0.216662
C77   C     C_3   0.818111 0.533638 0.970275 -0.214686
C78   C     C_3   0.745322 0.204270 0.060946 -0.254521
C79   C     C_3   0.246158 0.203566 0.938239 -0.260610
C80   C     C_3   0.252749 0.703595 0.061452 -0.259832
C81   C     C_3   0.184340 0.130477 0.552124 -0.259717
C82   C     C_3   0.745751 0.700054 0.937666 -0.258524
C83   C     C_3   0.749283 0.072303 0.075412 0.058897
C84   C     C_3   0.252801 0.070434 0.925577 0.061534
C85   C     C_3   0.246724 0.570596 0.074421 0.061396
C86   C     C_3   0.753608 0.568079 0.925954 0.063099
C87   C     C_3   0.761010 0.105826 0.936367 0.060499
C88   C     C_3   0.239538 0.105540 0.064123 0.060066
C89   C     C_3   0.259924 0.605255 0.935793 0.059902
C90   C     C_3   0.739962 0.602535 0.064501 0.057149
C91   C     C_3   0.699750 0.026953 0.948656 -0.257894
C92   C     C_3   0.315538 0.630439 0.447821 -0.259589
C93   C     C_3   0.303050 0.031206 0.052310 -0.258369
C94   C     C_3   0.196314 0.530744 0.948009 -0.258762
C95   C     C_3   0.808127 0.543619 0.051984 -0.248777
C96   C     C_3   0.745871 0.221959 0.978835 -0.216585
C97   C     C_3   0.250376 0.222710 0.020381 -0.218676
C98   C     C_3   0.249227 0.722509 0.979203 -0.217891
C99   C     C_3   0.738419 0.717617 0.019257 -0.229432
C100  C     C_3   0.004529 0.478810 0.039977 -0.227653
C101  C     C_3   0.995793 0.478734 0.959835 -0.227416
C102  C     C_3   0.495940 0.979920 0.042017 -0.232605
C103  C     C_3   0.684341 0.630478 0.552124 -0.259703
C104  C     C_3   0.491227 0.979497 0.961270 -0.227251
C105  C     C_3   0.064327 0.275750 0.026970 -0.214168
C106  C     C_3   0.936703 0.275440 0.973089 -0.214335
C107  C     C_3   0.566277 0.794953 0.028169 -0.220757
C108  C     C_3   0.437503 0.770114 0.972624 -0.211370
C109  C     C_3   0.943061 0.291988 0.054880 -0.262415
C110  C     C_3   0.058453 0.293139 0.945179 -0.263432
C111  C     C_3   0.444225 0.781355 0.054489 -0.256721
C112  C     C_3   0.557464 0.797925 0.946083 -0.263466
C113  C     C_R   0.967497 0.343093 0.644372 0.538221
C114  C     C_3   0.750061 0.060647 0.435090 0.063825
C115  C     C_R   0.032405 0.342992 0.355567 0.538248
C116  C     C_R   0.467496 0.843094 0.644372 0.538525
C117  C     C_R   0.532405 0.842991 0.355567 0.537616
C118  C     C_3   0.011321 0.350770 0.069146 0.062045
C119  C     C_3   0.989542 0.350616 0.930698 0.062424
C120  C     C_3   0.508083 0.852130 0.070257 0.060027
C121  C     C_3   0.488082 0.850945 0.931326 0.063345
C122  C     C_R   0.761331 0.532174 0.849458 0.532009
C123  C     C_R   0.238996 0.533635 0.150954 0.530436
C124  C     C_R   0.260946 0.033496 0.849081 0.530718
Cr1   Cr    Cr6+3 0.885690 0.492860 0.745310 1.017839
Cr2   Cr    Cr6+3 0.111880 0.178590 0.246990 0.998469
Cr3   Cr    Cr6+3 0.388120 0.678590 0.753010 0.998911
Cr4   Cr    Cr6+3 0.611880 0.678590 0.246990 0.998380
Cr5   Cr    Cr6+3 0.114310 0.492860 0.254690 1.017675
Cr6   Cr    Cr6+3 0.385690 0.992860 0.745310 1.017896
Cr7   Cr    Cr6+3 0.614310 0.992860 0.254690 1.017364
Cr8   Cr    Cr6+3 0.729880 0.332270 0.748190 1.011848
Cr9   Cr    Cr6+3 0.270120 0.332270 0.251810 1.011729
Cr10  Cr    Cr6+3 0.229880 0.832270 0.748190 1.011688
Cr11  Cr    Cr6+3 0.770120 0.832270 0.251810 1.011695
Cr12  Cr    Cr6+3 0.888120 0.178590 0.753010 0.998678
H1    H     H_    0.643081 0.107769 0.448279 0.141007
H2    H     H_    0.190368 0.913059 0.530045 0.134505
H3    H     H_    0.536052 0.025968 0.939342 0.116606
H4    H     H_    0.607894 0.849632 0.043006 0.108766
H5    H     H_    0.385628 0.781738 0.954112 0.110342
H6    H     H_    0.115473 0.285438 0.047460 0.110769
H7    H     H_    0.884955 0.285209 0.953267 0.110583
H8    H     H_    0.597667 0.851637 0.920933 0.106800
H9    H     H_    0.399896 0.827769 0.076668 0.105027
H10   H     H_    0.099827 0.349764 0.925387 0.109905
H11   H     H_    0.901027 0.345792 0.075605 0.108646
H12   H     H_    0.941933 0.205465 0.082627 0.109968
H13   H     H_    0.309617 0.412931 0.470231 0.134365
H14   H     H_    0.061978 0.206648 0.917371 0.109640
H15   H     H_    0.447616 0.692315 0.079523 0.115389
H16   H     H_    0.561087 0.707178 0.923668 0.111199
H17   H     H_    0.950645 0.182549 0.962458 0.122159
H18   H     H_    0.051287 0.182286 0.037468 0.121514
H19   H     H_    0.451421 0.677942 0.959248 0.124105
H20   H     H_    0.574257 0.702814 0.045939 0.133483
H21   H     H_    0.658934 0.110934 0.568017 0.155788
H22   H     H_    0.341047 0.111300 0.432221 0.155940
H23   H     H_    0.158934 0.610937 0.568016 0.155783
H24   H     H_    0.690368 0.413058 0.530045 0.134504
H25   H     H_    0.841047 0.611298 0.432219 0.155929
H26   H     H_    0.722386 0.873719 0.462555 0.109044
H27   H     H_    0.277520 0.873816 0.537886 0.109100
H28   H     H_    0.222386 0.373719 0.462555 0.109024
H29   H     H_    0.777520 0.373816 0.537886 0.109073
H30   H     H_    0.706534 0.930826 0.582643 0.104303
H31   H     H_    0.293567 0.931039 0.417712 0.104438
H32   H     H_    0.206533 0.430827 0.582643 0.104237
H33   H     H_    0.793566 0.431037 0.417711 0.104405
H34   H     H_    0.858247 0.085360 0.421223 0.128690
H35   H     H_    0.796318 0.914055 0.588085 0.127307
H36   H     H_    0.141652 0.085259 0.578746 0.128764
H37   H     H_    0.358248 0.585359 0.421223 0.128688
H38   H     H_    0.641653 0.585259 0.578746 0.128827
H39   H     H_    0.811861 0.221225 0.425549 0.104002
H40   H     H_    0.187900 0.221278 0.574277 0.104049
H41   H     H_    0.311862 0.721224 0.425550 0.104055
H42   H     H_    0.687901 0.721278 0.574276 0.104117
H43   H     H_    0.845673 0.219590 0.547250 0.113839
H44   H     H_    0.154224 0.219586 0.452532 0.113915
H45   H     H_    0.345674 0.719589 0.547250 0.113837
H46   H     H_    0.203798 0.913992 0.412206 0.127048
H47   H     H_    0.654225 0.719587 0.452531 0.113938
H48   H     H_    0.296317 0.414055 0.588086 0.127256
H49   H     H_    0.703797 0.413992 0.412206 0.126998
H50   H     H_    0.041538 0.151943 0.441177 0.137489
H51   H     H_    0.958480 0.151949 0.559124 0.137710
H52   H     H_    0.541539 0.651944 0.441177 0.137519
H53   H     H_    0.356856 0.108354 0.551859 0.141177
H54   H     H_    0.458481 0.651949 0.559124 0.137701
H55   H     H_    0.955198 0.173965 0.436272 0.113176
H56   H     H_    0.044817 0.174363 0.564004 0.113263
H57   H     H_    0.455199 0.673963 0.436271 0.113154
H58   H     H_    0.544817 0.674366 0.564003 0.113315
H59   H     H_    0.617774 0.885845 0.462397 0.086797
H60   H     H_    0.382019 0.885796 0.537520 0.086651
H61   H     H_    0.117775 0.385845 0.462398 0.086765
H62   H     H_    0.882021 0.385798 0.537521 0.086656
H63   H     H_    0.597633 0.856573 0.583934 0.084817
H64   H     H_    0.143081 0.607771 0.448278 0.140983
H65   H     H_    0.402151 0.855665 0.416036 0.084644
H66   H     H_    0.097635 0.356566 0.583934 0.084724
H67   H     H_    0.902152 0.355671 0.416038 0.084692
H68   H     H_    0.937265 0.501929 0.540360 0.153920
H69   H     H_    0.062362 0.501922 0.459106 0.154380
H70   H     H_    0.437262 0.001929 0.540357 0.153901
H71   H     H_    0.562360 0.001922 0.459103 0.154410
H72   H     H_    0.831999 0.937255 0.063351 0.138488
H73   H     H_    0.180807 0.922637 0.941350 0.137755
H74   H     H_    0.318897 0.422937 0.058768 0.138157
H75   H     H_    0.856856 0.608350 0.551858 0.141165
H76   H     H_    0.680600 0.419055 0.939375 0.139300
H77   H     H_    0.695542 0.227966 0.436371 0.112282
H78   H     H_    0.304212 0.228314 0.563499 0.112283
H79   H     H_    0.195543 0.727967 0.436370 0.112326
H80   H     H_    0.804214 0.728312 0.563498 0.112324
H81   H     H_    0.859730 0.083478 0.073071 0.115532
H82   H     H_    0.141715 0.058432 0.927216 0.116976
H83   H     H_    0.357740 0.559302 0.072787 0.117779
H84   H     H_    0.642745 0.556566 0.932202 0.116687
H85   H     H_    0.870771 0.073286 0.953385 0.133905
H86   H     H_    0.867860 0.067833 0.541255 0.131729
H87   H     H_    0.131106 0.069318 0.044780 0.132513
H88   H     H_    0.368338 0.570370 0.955488 0.133032
H89   H     H_    0.632651 0.543615 0.049398 0.133366
H90   H     H_    0.823140 0.945438 0.945773 0.116213
H91   H     H_    0.179318 0.942439 0.059308 0.117658
H92   H     H_    0.320652 0.442718 0.940913 0.117570
H93   H     H_    0.691802 0.428643 0.059388 0.118729
H94   H     H_    0.699140 0.922232 0.044773 0.108534
H95   H     H_    0.337667 0.947143 0.952133 0.109392
H96   H     H_    0.162469 0.447404 0.048735 0.109809
H97   H     H_    0.132121 0.067715 0.458735 0.131742
H98   H     H_    0.837802 0.447938 0.954959 0.107691
H99   H     H_    0.706551 0.939910 0.922536 0.107234
H100  H     H_    0.296742 0.940316 0.073159 0.110217
H101  H     H_    0.203473 0.439842 0.927725 0.109632
H102  H     H_    0.808796 0.455180 0.077330 0.102380
H103  H     H_    0.697800 0.239222 0.083915 0.115905
H104  H     H_    0.287458 0.252051 0.911109 0.111067
H105  H     H_    0.210938 0.751444 0.088042 0.111189
H106  H     H_    0.790229 0.749495 0.917490 0.114177
H107  H     H_    0.788564 0.250919 0.086700 0.104955
H108  H     H_    0.367860 0.567832 0.541256 0.131736
H109  H     H_    0.197617 0.237022 0.916037 0.108766
H110  H     H_    0.300724 0.737595 0.084303 0.106610
H111  H     H_    0.700627 0.733741 0.908053 0.103817
H112  H     H_    0.778863 0.294645 0.963882 0.108325
H113  H     H_    0.218772 0.294855 0.037665 0.107692
H114  H     H_    0.281559 0.793986 0.962028 0.107855
H115  H     H_    0.688378 0.748765 0.026226 0.110357
H116  H     H_    0.693690 0.246960 0.963661 0.119975
H117  H     H_    0.302825 0.250855 0.032015 0.117739
H118  H     H_    0.196920 0.750726 0.967034 0.118959
H119  H     H_    0.632122 0.567716 0.458735 0.131747
H120  H     H_    0.777104 0.779854 0.039108 0.126514
H121  H     H_    0.643031 0.045984 0.047441 0.126633
H122  H     H_    0.355026 0.097858 0.961221 0.118019
H123  H     H_    0.143712 0.596628 0.039285 0.117973
H124  H     H_    0.857304 0.599108 0.956337 0.119549
H125  H     H_    0.694535 0.244664 0.560319 0.142958
H126  H     H_    0.305334 0.244908 0.439492 0.143238
H127  H     H_    0.194536 0.744665 0.560319 0.142978
H128  H     H_    0.805334 0.744907 0.439492 0.143257
H129  H     H_    0.653241 0.067235 0.925204 0.113591
H130  H     H_    0.809617 0.912931 0.470230 0.134377
H131  H     H_    0.346096 0.071990 0.081644 0.112835
H132  H     H_    0.152367 0.569616 0.918857 0.113198
H133  H     H_    0.849431 0.597180 0.076547 0.119433
H134  H     H_    0.047871 0.533993 0.054497 0.133168
H135  H     H_    0.952273 0.533143 0.945371 0.133587
H136  H     H_    0.536164 0.042742 0.057917 0.134022
H137  H     H_    0.448717 0.033698 0.943778 0.134666
H138  H     H_    0.960485 0.523400 0.064640 0.118280
H139  H     H_    0.039426 0.524403 0.935093 0.116889
H140  H     H_    0.449194 0.016285 0.064899 0.116095
N1    N     N_1   0.951282 0.619392 0.387458 -0.303816
N2    N     N_1   0.048021 0.620347 0.611323 -0.304264
N3    N     N_1   0.451278 0.119387 0.387452 -0.303872
N4    N     N_1   0.548015 0.120355 0.611314 -0.304095
O1    O     O_R   0.957210 0.449410 0.665480 -0.501791
O2    O     O_R   0.167480 0.095300 0.164000 -0.532816
O3    O     O_R   0.332520 0.595300 0.836000 -0.532807
O4    O     O_R   0.667480 0.595300 0.164000 -0.532853
O5    O     O_R   0.946380 0.253940 0.826940 -0.513411
O6    O     O_R   0.053620 0.253940 0.173060 -0.513780
O7    O     O_R   0.446380 0.753940 0.826940 -0.513201
O8    O     O_R   0.553620 0.753940 0.173060 -0.513530
O9    O     O_3   0.834560 0.334570 0.748840 -0.283725
O10   O     O_3   0.165440 0.334570 0.251160 -0.283594
O11   O     O_3   0.334560 0.834570 0.748840 -0.283469
O12   O     O_R   0.042790 0.449410 0.334520 -0.501828
O13   O     O_3   0.665440 0.834570 0.251160 -0.281181
O14   O     O_R   0.820730 0.541240 0.668250 -0.514323
O15   O     O_R   0.179270 0.541240 0.331750 -0.514564
O16   O     O_R   0.320730 0.041240 0.668250 -0.514518
O17   O     O_R   0.679270 0.041240 0.331750 -0.514776
O18   O     O_R   0.714240 0.455060 0.663710 -0.528084
O19   O     O_R   0.285760 0.455060 0.336290 -0.528250
O20   O     O_R   0.214240 0.955060 0.663710 -0.528286
O21   O     O_R   0.785760 0.955060 0.336290 -0.528575
O22   O     O_R   0.736780 0.204870 0.675910 -0.505546
O23   O     O_R   0.457210 0.949410 0.665480 -0.501625
O24   O     O_R   0.263220 0.204870 0.324090 -0.505544
O25   O     O_R   0.236780 0.704870 0.675910 -0.505770
O26   O     O_R   0.763220 0.704870 0.324090 -0.505692
O27   O     O_R   0.833070 0.087590 0.673490 -0.528224
O28   O     O_R   0.166930 0.087590 0.326510 -0.528287
O29   O     O_R   0.333070 0.587590 0.673490 -0.528387
O30   O     O_R   0.666930 0.587590 0.326510 -0.528448
O31   O     O_R   0.946890 0.246800 0.676300 -0.517438
O32   O     O_R   0.053110 0.246800 0.323700 -0.517327
O33   O     O_R   0.446890 0.746800 0.676300 -0.517189
O34   O     O_R   0.542790 0.949410 0.334520 -0.502158
O35   O     O_R   0.553110 0.746800 0.323700 -0.517720
O36   O     O_R   0.956650 0.457120 0.827980 -0.527243
O37   O     O_R   0.043350 0.457120 0.172020 -0.526983
O38   O     O_R   0.456650 0.957120 0.827980 -0.527175
O39   O     O_R   0.543350 0.957120 0.172020 -0.526884
O40   O     O_R   0.820220 0.548390 0.818890 -0.510804
O41   O     O_R   0.179780 0.548390 0.181110 -0.510514
O42   O     O_R   0.320220 0.048390 0.818890 -0.510678
O43   O     O_R   0.679780 0.048390 0.181110 -0.510583
O44   O     O_R   0.713680 0.462770 0.826210 -0.532752
O45   O     O_R   0.736260 0.212010 0.826560 -0.507599
O46   O     O_R   0.286320 0.462770 0.173790 -0.532166
O47   O     O_R   0.213680 0.962770 0.826210 -0.532108
O48   O     O_R   0.786320 0.962770 0.173790 -0.532195
O49   O     O_R   0.263740 0.212010 0.173440 -0.507432
O50   O     O_R   0.236260 0.712010 0.826560 -0.507259
O51   O     O_R   0.763740 0.712010 0.173440 -0.507059
O52   O     O_R   0.832520 0.095300 0.836000 -0.532619

loop_
_geom_bond_atom_site_label_1
_geom_bond_atom_site_label_2
_ccdc_geom_bond_type
C105  C110  S    
C87   C91   S    
Cr6   O23   S    
C107  C112  S    
C74   C83   S    
C51   H70   S    
C90   C95   S    
C4    C87   S    
C1    O14   A    
C61   H81   S    
C18   H126  S    
Cr12  O9    S    
Cr10  O25   S    
Cr12  O5    S    
C72   H88   S    
Cr6   O16   S    
C36   H32   S    
Cr7   O13   S    
C63   H83   S    
C89   C94   S    
C65   O27   A    
C76   C94   S    
C40   H44   S    
C14   H53   S    
C66   O28   A    
C55   H63   S    
C78   C96   S    
C77   H124  S    
C2    C22   S    
C88   C97   S    
C47   C53   S    
C23   H13   S    
C49   H68   S    
C63   C85   S    
C17   C30   S    
C19   C32   S    
C109  C118  S    
C5    O49   A    
Cr3   O29   S    
C47   H69   S    
C41   H108  S    
C81   H40   S    
Cr3   O7    S    
C1    O18   A    
Cr10  O11   S    
Cr4   O8    S    
C99   H115  S    
C28   C54   S    
C97   H113  S    
C29   C55   S    
C43   C44   S    
C50   H59   S    
C75   H122  S    
C44   C57   S    
C16   C20   S    
C106  H17   S    
Cr10  O20   S    
C20   C33   S    
C3    C83   S    
Cr10  O47   S    
Cr9   O24   S    
C105  C118  S    
C63   H74   S    
C107  C120  S    
C94   H132  S    
C75   C93   S    
C38   H33   S    
Cr8   O44   S    
C123  O41   A    
C46   C60   S    
C79   C97   S    
C78   H107  S    
C40   H97   S    
C110  H14   S    
C27   C53   S    
C33   C38   S    
C116  O23   A    
C108  C111  S    
C52   H67   S    
C19   H23   S    
C20   H128  S    
C108  H19   S    
C85   C123  S    
C69   H85   S    
C58   C117  S    
C2    C14   S    
C61   H72   S    
C71   C88   S    
C23   C36   S    
C115  O12   A    
Cr8   O9    S    
C64   H76   S    
C2    C81   S    
C18   C31   S    
C91   H129  S    
C76   C85   S    
Cr1   O9    S    
C34   H35   S    
Cr6   O42   S    
C37   O19   A    
C122  O40   A    
C69   H90   S    
C73   H93   S    
C82   H106  S    
C113  O31   A    
Cr8   O18   S    
C33   C42   S    
C32   C36   S    
C68   O26   A    
C73   C90   S    
Cr1   O40   S    
C75   H95   S    
Cr9   O49   S    
C79   C84   S    
C75   C84   S    
Cr5   O15   S    
C91   H99   S    
C107  H4    S    
C49   C57   S    
C80   H105  S    
C13   C23   S    
C3    O43   A    
Cr6   O11   S    
C76   H96   S    
C32   C41   S    
C39   H86   S    
C6    O50   A    
C17   H21   S    
Cr2   O32   S    
C48   O16   A    
C37   O15   A    
C9    C118  S    
C5    C88   S    
C109  H11   S    
C79   H104  S    
C11   C120  S    
C46   H58   S    
C12   C114  S    
C93   H100  S    
C30   C34   S    
C5    O2    A    
Cr12  O52   S    
C105  H6    S    
C57   C113  S    
C7    C90   S    
C103  H38   S    
C100  H138  S    
Cr5   O41   S    
C99   H120  S    
C25   C38   S    
C94   H101  S    
C38   H49   S    
C21   H130  S    
C32   C67   S    
Cr3   O33   S    
Cr1   O1    S    
Cr5   O10   S    
Cr2   O6    S    
C80   H110  S    
C60   C116  S    
Cr4   O4    S    
C90   C99   S    
C97   H117  S    
C23   H28   S    
C67   O25   A    
Cr11  O48   S    
C62   C84   S    
C21   H26   S    
C16   H75   S    
C110  C119  S    
C39   H43   S    
Cr4   O35   S    
C123  O46   A    
C89   C98   S    
C24   C103  S    
Cr11  O13   S    
C112  C121  S    
C48   O20   A    
C15   H64   S    
C42   H119  S    
C77   H98   S    
C30   C39   S    
C30   C65   S    
C92   H41   S    
C44   H51   S    
C1    C24   S    
C122  O44   A    
C47   H61   S    
C7    O51   A    
C51   C60   S    
C110  H10   S    
C8    O36   A    
C33   C68   S    
C47   C56   S    
C59   O21   A    
C106  C109  S    
C78   H103  S    
Cr7   O39   S    
C106  C119  S    
C82   C99   S    
C6    O3    A    
C108  C121  S    
C68   O30   A    
Cr1   O14   S    
C106  H7    S    
C100  H134  S    
C45   C46   S    
C15   C19   S    
C101  H135  S    
C66   O24   A    
C102  H136  S    
C79   H109  S    
C117  O35   A    
Cr7   O34   S    
C31   C40   S    
C14   H78   S    
C16   H80   S    
Cr2   O10   S    
C78   C83   S    
Cr5   O12   S    
C12   C17   S    
C86   C122  S    
C112  H16   S    
C69   C87   S    
C3    O48   A    
Cr8   O22   S    
C55   C60   S    
C42   C103  S    
C41   H45   S    
C12   H77   S    
Cr1   O36   S    
C40   C81   S    
C64   C86   S    
C108  H5    S    
C27   N2    T    
C45   H57   S    
Cr4   O13   S    
C76   H123  S    
C45   C58   S    
C4    O52   A    
C50   C58   S    
C61   C83   S    
C98   H114  S    
C53   C57   S    
C21   C34   S    
C25   H29   S    
C82   C86   S    
C29   N4    T    
C74   C91   S    
Cr2   O28   S    
C80   C85   S    
C18   H22   S    
C116  O33   A    
C49   C52   S    
C25   H24   S    
C9    O37   A    
C8    O5    A    
C9    O6    A    
Cr12  O31   S    
C15   H79   S    
Cr10  O50   S    
C11   O39   A    
C13   C92   S    
C65   O22   A    
C31   C35   S    
C100  C118  S    
C96   H116  S    
C54   H65   S    
C102  C120  S    
C28   N3    T    
C124  O42   A    
C80   C98   S    
C93   H131  S    
C67   O29   A    
C22   H2    S    
C53   H66   S    
C104  H3    S    
C2    C48   S    
Cr9   O10   S    
C103  H42   S    
C115  O32   A    
C70   H34   S    
C124  O47   A    
C59   C114  S    
Cr2   O2    S    
C4    O45   A    
C56   C115  S    
C17   H125  S    
C19   H127  S    
C63   C72   S    
C72   H92   S    
Cr7   O17   S    
C34   H30   S    
C104  H137  S    
C96   H112  S    
C26   N1    T    
Cr7   O43   S    
C7    O4    A    
C113  O1    A    
Cr5   O37   S    
C31   C66   S    
C22   H27   S    
C14   C18   S    
C74   H94   S    
C10   C121  S    
C70   C114  S    
C35   H46   S    
C22   C35   S    
C82   H111  S    
C62   H82   S    
C11   O8    A    
C51   H60   S    
C111  H9    S    
Cr4   O30   S    
C81   H36   S    
Cr3   O3    S    
C100  C101  S    
C59   O17   A    
C62   H73   S    
Cr6   O38   S    
C62   C71   S    
C35   H31   S    
C36   H48   S    
C70   H39   S    
C13   C37   S    
C107  H20   S    
C50   H71   S    
C105  H18   S    
C43   H55   S    
C16   C24   S    
C46   H54   S    
Cr11  O21   S    
C95   H133  S    
C117  O34   A    
C71   H87   S    
C64   H84   S    
C101  C119  S    
C24   C25   S    
Cr3   O11   S    
C104  C121  S    
C43   H50   S    
C77   C95   S    
C111  C120  S    
C95   H102  S    
C26   C52   S    
C64   C73   S    
C87   C96   S    
Cr9   O19   S    
C42   H47   S    
C102  C104  S    
Cr8   O45   S    
C77   C86   S    
C13   C15   S    
C109  H12   S    
C98   H118  S    
C54   C58   S    
C74   H121  S    
C61   C69   S    
C88   C93   S    
Cr11  O51   S    
C71   H91   S    
C10   O7    A    
C21   C114  S    
C111  H15   S    
C45   H52   S    
Cr9   O46   S    
C92   H37   S    
C84   C124  S    
C6    C89   S    
C50   C55   S    
C51   C54   S    
C112  H8    S    
C8    C119  S    
C73   H89   S    
C72   C89   S    
Cr12  O27   S    
C10   O38   A    
C49   H62   S    
C20   H25   S    
C39   C70   S    
C43   C56   S    
C41   C92   S    
Cr11  O26   S    
C44   H56   S    
C12   H1    S    
C101  H139  S    
C102  H140  S    
C52   C56   S    
