data_str_m2_o1_o9_f0_pcu.sym.23
_audit_creation_date              2012-10-26T20:08:11-0400
_audit_creation_method            fapswitch 2.2
_symmetry_space_group_name_H-M    P1
_symmetry_Int_Tables_number       1
_space_group_crystal_system       triclinic
_cell_length_a                    10.834568
_cell_length_b                    10.827028
_cell_length_c                    9.500767
_cell_angle_alpha                 89.928826
_cell_angle_beta                  90.092829
_cell_angle_gamma                 89.717091
_cell_volume                      1114.4826794

loop_
_atom_site_label
_atom_site_type_symbol
_atom_type_description
_atom_site_fract_x
_atom_site_fract_y
_atom_site_fract_z
_atom_type_partial_charge
C1    C     C_R   0.500210 0.262026 0.500016 0.549621
C2    C     C_R   0.495729 0.063720 0.627825 -0.136173
C3    C     C_R   0.499599 0.871790 0.499940 0.021607
C4    C     C_R   0.500403 0.128210 0.500060 0.021606
C5    C     C_R   0.578926 0.425215 0.074727 0.006337
C6    C     C_R   0.421073 0.574784 0.925273 0.006339
C7    C     C_R   0.579035 0.425330 0.925779 0.005544
C8    C     C_R   0.420965 0.574670 0.074221 0.005545
C9    C     C_R   0.262223 0.496705 0.499701 0.551661
C10   C     C_R   0.737777 0.503295 0.500299 0.551663
C11   C     C_R   0.171172 0.379518 0.013744 -0.080055
C12   C     C_R   0.499791 0.737974 0.499984 0.549623
C13   C     C_R   0.828819 0.620477 0.986252 -0.080055
C14   C     C_R   0.114775 0.437727 0.128246 -0.136347
C15   C     C_R   0.885216 0.562267 0.871751 -0.136342
C16   C     C_R   0.120898 0.384438 0.262721 0.044145
C17   C     C_R   0.879102 0.615561 0.737278 0.044147
C18   C     C_R   0.183978 0.272050 0.281411 -0.079703
C19   C     C_R   0.816031 0.727955 0.718589 -0.079711
C20   C     C_R   0.240257 0.213781 0.166822 -0.077858
C21   C     C_R   0.759752 0.786225 0.833177 -0.077860
C22   C     C_R   0.234456 0.267460 0.032115 0.138259
C23   C     C_R   0.871674 0.505766 0.500853 0.001218
C24   C     C_R   0.765544 0.732541 0.967882 0.138263
C25   C     C_R   0.933428 0.454172 0.385609 -0.150483
C26   C     C_R   0.066572 0.545827 0.614391 -0.150484
C27   C     C_R   0.128326 0.494233 0.499146 0.001218
C28   C     C_R   0.938699 0.553374 0.616168 -0.024429
C29   C     C_R   0.061301 0.446625 0.383831 -0.024428
C30   C     C_R   0.505061 0.063994 0.372249 -0.146335
C31   C     C_R   0.494942 0.936006 0.627751 -0.146335
C32   C     C_R   0.504273 0.936279 0.372175 -0.136173
Cu1   Cu    Cu3+1 0.500000 0.500020 0.640660 0.932267
Cu2   Cu    Cu3+1 0.500000 0.499980 0.359340 0.932266
H1    H     H_    0.642333 0.365597 0.869721 0.111413
H2    H     H_    0.712174 0.873207 0.816919 0.094155
H3    H     H_    0.881778 0.415640 0.298279 0.121666
H4    H     H_    0.118221 0.584359 0.701721 0.121667
H5    H     H_    0.509461 0.112152 0.272392 0.120712
H6    H     H_    0.490542 0.887848 0.727608 0.120714
H7    H     H_    0.507366 0.888367 0.272281 0.124386
H8    H     H_    0.492637 0.111633 0.727719 0.124386
H9    H     H_    0.642197 0.365439 0.131172 0.104295
H10   H     H_    0.357803 0.634560 0.868827 0.104296
H11   H     H_    0.360593 0.266957 0.876866 0.245841
H12   H     H_    0.357667 0.634402 0.130278 0.111414
H13   H     H_    0.333485 0.126262 0.943424 0.207124
H14   H     H_    0.639406 0.733045 0.123131 0.245838
H15   H     H_    0.666516 0.873742 0.056572 0.207122
H16   H     H_    0.166293 0.421911 0.910583 0.121503
H17   H     H_    0.833691 0.578080 0.089412 0.121500
H18   H     H_    0.067727 0.525101 0.112658 0.102664
H19   H     H_    0.932256 0.474888 0.887338 0.102660
H20   H     H_    0.189491 0.229726 0.384622 0.107044
H21   H     H_    0.810526 0.770283 0.615378 0.107044
H22   H     H_    0.287843 0.126804 0.183080 0.094154
N1    N     N_R   0.500030 0.500030 0.852070 -0.226262
N2    N     N_R   0.499970 0.499970 0.147930 -0.226262
N3    N     N_3   0.290680 0.208843 0.912879 -0.629449
N4    N     N_3   0.709321 0.791159 0.087118 -0.629443
O1    O     O_R   0.499990 0.319660 0.618740 -0.513987
O2    O     O_R   0.500010 0.680340 0.381260 -0.513987
O3    O     O_R   0.499990 0.319630 0.381170 -0.507670
O4    O     O_R   0.500010 0.680370 0.618830 -0.507669
O5    O     O_R   0.319650 0.500020 0.618780 -0.512850
O6    O     O_R   0.680350 0.499980 0.381220 -0.512850
O7    O     O_R   0.319640 0.500000 0.381210 -0.489863
O8    O     O_R   0.680360 0.500000 0.618790 -0.489863

loop_
_geom_bond_atom_site_label_1
_geom_bond_atom_site_label_2
_ccdc_geom_bond_type
Cu2   O7    S    
C2    C4    A    
C32   H7    S    
C9    O7    A    
H11   N3    S    
C10   O8    A    
C10   C23   S    
C27   C29   A    
C12   O2    A    
C11   C22   A    
C26   C28   A    
C13   C15   A    
C20   H22   S    
C24   N4    S    
C1    C4    S    
C25   H3    S    
Cu2   O6    S    
C9    O5    A    
C10   O6    A    
Cu1   Cu2   S    
C5    H9    S    
Cu1   O5    S    
Cu1   N1    S    
C21   H2    S    
C6    H10   S    
C23   C28   A    
C3    C31   A    
C6    N1    A    
C26   C27   A    
H15   N4    S    
C5    N2    A    
C2    H8    S    
Cu1   O4    S    
C15   H19   S    
C13   C24   A    
C16   C18   A    
Cu2   O3    S    
C17   C19   A    
C20   C22   A    
C30   H5    S    
H14   N4    S    
C18   C20   A    
C23   C25   A    
C25   C29   A    
C3    C32   A    
C12   O4    A    
C11   C14   A    
C14   C16   A    
C4    C30   A    
C18   H20   S    
H13   N3    S    
Cu2   N2    S    
C30   C32   A    
C1    O3    A    
Cu2   O2    S    
C31   H6    S    
C9    C27   S    
Cu1   O1    S    
C21   C24   A    
C19   H21   S    
C22   N3    S    
C15   C17   A    
C11   H16   S    
C5    C7    A    
C26   H4    S    
C6    C8    A    
C3    C12   S    
C8    H12   S    
C8    N2    A    
C16   C29   S    
C13   H17   S    
C17   C28   S    
C7    H1    S    
C7    N1    A    
C14   H18   S    
Cu1   O8    S    
C2    C31   A    
C19   C21   A    
C1    O1    A    
