data_str_m9_o4_o17_f0_sra.sym.26
_audit_creation_date              2013-03-05T16:07:27-0500
_audit_creation_method            fapswitch 2.2
_symmetry_space_group_name_H-M    P1
_symmetry_Int_Tables_number       1
_space_group_crystal_system       triclinic
_cell_length_a                    19.402405
_cell_length_b                    7.103823
_cell_length_c                    17.603094
_cell_angle_alpha                 90.108398
_cell_angle_beta                  108.637222
_cell_angle_gamma                 89.899586
_cell_volume                      2299.02019942

loop_
_atom_site_label
_atom_site_type_symbol
_atom_site_description
_atom_site_fract_x
_atom_site_fract_y
_atom_site_fract_z
_atom_type_partial_charge
O1    O     O_R   0.413720 0.494330 0.415730 -0.604550
O2    O     O_R   0.586280 0.994330 0.584270 -0.591096
O3    O     O_R   0.560210 0.819300 0.430070 -0.563975
O4    O     O_R   0.439790 0.319300 0.569930 -0.584997
C1    C     C_R   0.580064 0.654982 0.413082 1.010603
C2    C     C_R   0.419503 0.155235 0.586466 1.019878
O5    O     O_R   0.412670 0.823730 0.406310 -0.588295
O6    O     O_R   0.587330 0.323730 0.593690 -0.605532
O7    O     O_R   0.437690 0.998790 0.560340 -0.564930
O8    O     O_R   0.562310 0.498790 0.439660 -0.592306
C3    C     C_R   0.385444 0.655211 0.383342 0.973187
C4    C     C_R   0.614642 0.155235 0.616521 0.977728
O9    O     O_3   0.508380 0.662350 0.550560 -0.257394
O10   O     O_3   0.491620 0.162350 0.449440 -0.266700
V1    V     V_3+5 0.498450 0.935370 0.490620 1.265747
V2    V     V_3+5 0.501550 0.435370 0.509380 1.236546
C5    C     C_R   0.699431 0.988899 0.736535 0.235051
C6    C     C_R   0.301145 0.489484 0.262504 0.212783
C7    C     C_R   0.681939 0.147036 0.686605 -0.245077
C8    C     C_R   0.318287 0.647077 0.313024 -0.222505
C9    C     C_R   0.730305 0.300549 0.706716 -0.124300
C10   C     C_R   0.269810 0.800678 0.293060 -0.134094
H1    H     H_    0.719277 0.425600 0.669997 0.149073
H2    H     H_    0.280696 0.925753 0.329930 0.144545
C11   C     C_R   0.796033 0.288971 0.770900 -0.149140
C12   C     C_R   0.204108 0.789151 0.228844 -0.123781
H3    H     H_    0.833199 0.406722 0.782283 0.146666
H4    H     H_    0.166816 0.906865 0.217683 0.138900
C13   C     C_R   0.815709 0.122824 0.816527 -0.252736
C14   C     C_R   0.184606 0.623061 0.182955 -0.216136
C15   C     C_R   0.764566 0.976936 0.799658 0.297094
C16   C     C_R   0.236123 0.477777 0.199198 0.229804
C17   C     C_3   0.773552 0.773737 0.783861 -0.503600
C18   C     C_3   0.227706 0.273887 0.213732 -0.506914
C19   C     C_3   0.702333 0.786760 0.715291 -0.481691
C20   C     C_3   0.298729 0.286640 0.282675 -0.473331
H5    H     H_    0.769987 0.682616 0.833711 0.238344
H6    H     H_    0.231709 0.184791 0.163319 0.235572
H7    H     H_    0.821391 0.747420 0.763510 0.193234
H8    H     H_    0.179797 0.245742 0.233657 0.195913
H9    H     H_    0.657664 0.704030 0.725839 0.235673
H10   H     H_    0.343714 0.205041 0.271987 0.233418
H11   H     H_    0.708891 0.767262 0.655265 0.189545
H12   H     H_    0.291954 0.265537 0.342478 0.193138
C21   C     C_R   0.317329 0.282872 0.627508 -0.087990
C22   C     C_R   0.681056 0.508670 0.374957 -0.100575
C23   C     C_R   0.372121 0.146942 0.637936 -0.331406
C24   C     C_R   0.626582 0.646628 0.360670 -0.348203
C25   C     C_R   0.380270 0.003874 0.695752 0.346492
C26   C     C_R   0.618716 0.779728 0.298891 0.353036
C27   C     C_R   0.332512 0.997415 0.741970 0.070968
C28   C     C_R   0.667619 0.777682 0.254166 0.060820
C29   C     C_R   0.277173 0.135360 0.730683 0.005254
C30   C     C_R   0.722615 0.637900 0.269288 0.000103
C31   C     C_R   0.269349 0.279918 0.673027 -0.064271
C32   C     C_R   0.729141 0.500483 0.329616 -0.059835
C33   C     C_R   0.339650 0.857423 0.800378 -0.136381
C34   C     C_R   0.661875 0.910798 0.193420 -0.135069
C35   C     C_R   0.292591 0.850590 0.845690 -0.149349
C36   C     C_R   0.710046 0.909303 0.149465 -0.147600
C37   C     C_R   0.236843 0.984352 0.834845 0.010386
C38   C     C_R   0.765218 0.772945 0.163726 0.007035
C39   C     C_R   0.229790 0.128917 0.777599 0.047790
C40   C     C_R   0.770801 0.635007 0.223330 0.048692
C41   C     C_R   0.175873 0.268218 0.767830 0.075891
C42   C     C_R   0.823972 0.492896 0.236341 0.071262
C43   C     C_R   0.168392 0.410195 0.710761 -0.300687
C44   C     C_R   0.830000 0.357384 0.295719 -0.308346
C45   C     C_R   0.213568 0.416832 0.662513 0.547292
C46   C     C_R   0.784009 0.360040 0.343115 0.549971
C47   C     C_R   0.189259 0.979263 0.881359 0.303625
C48   C     C_R   0.813435 0.768651 0.118038 0.309003
C49   C     C_R   0.134847 0.119275 0.870705 -0.311455
C50   C     C_R   0.866522 0.624439 0.131093 -0.311928
C51   C     C_R   0.129365 0.263288 0.814635 -0.132789
C52   C     C_R   0.870812 0.487697 0.189966 -0.145516
H13   H     H_    0.312294 0.389415 0.582354 0.205739
H14   H     H_    0.686046 0.410306 0.423122 0.207986
H15   H     H_    0.382003 0.751928 0.812130 0.175717
H16   H     H_    0.619868 0.017465 0.178812 0.177822
H17   H     H_    0.301055 0.740232 0.890001 0.183387
H18   H     H_    0.702771 0.014856 0.103322 0.183913
H19   H     H_    0.087576 0.370073 0.806254 0.159801
H20   H     H_    0.911630 0.377731 0.200520 0.161810
H21   H     H_    0.126272 0.515417 0.703268 0.195792
H22   H     H_    0.871530 0.249720 0.305575 0.195875
O11   O     O_R   0.937800 0.775460 0.060470 -0.563113
O12   O     O_R   0.062200 0.275460 0.939530 -0.582622
O13   O     O_R   0.087350 0.441340 0.093710 -0.605995
O14   O     O_R   0.912650 0.941340 0.906290 -0.586580
C53   C     C_R   0.114751 0.610306 0.116384 0.980011
C54   C     C_R   0.885368 0.110307 0.883424 1.002239
O15   O     O_R   0.939820 0.446010 0.069950 -0.580684
O16   O     O_R   0.060180 0.946010 0.930050 -0.567379
O17   O     O_R   0.913690 0.271230 0.915700 -0.598420
O18   O     O_R   0.086310 0.771230 0.084300 -0.576870
C55   C     C_R   0.917726 0.614685 0.083798 0.993020
C56   C     C_R   0.082638 0.113738 0.916709 0.997615
O19   O     O_3   0.991670 0.603050 0.949510 -0.284204
O20   O     O_3   0.008330 0.103050 0.050490 -0.281056
V3    V     V_3+5 0.001550 0.329940 0.009370 1.223439
V4    V     V_3+5 0.998450 0.829940 0.990630 1.252181
N1    N     N_R   0.197997 0.836872 0.941506 0.230734
O21   O     O_R   0.184758 0.661393 0.920761 -0.418190
O22   O     O_R   0.215119 0.883939 0.016723 -0.414473
N2    N     N_R   0.806139 0.905044 0.055968 0.230256
O23   O     O_R   0.783999 0.853054 0.981183 -0.433869
O24   O     O_R   0.822149 0.080779 0.074153 -0.414476
S1    S     S_3+6 0.196488 0.594260 0.587819 -0.036877
O25   O     O_2   0.134006 0.717677 0.589648 -0.256478
O26   O     O_2   0.263195 0.713533 0.601530 -0.319728
O27   O     O_3   0.176275 0.490662 0.497347 -0.535753
H23   H     H_    0.176732 0.593926 0.459767 0.369679
S2    S     S_3+6 0.798586 0.188494 0.419957 -0.039144
O28   O     O_2   0.856456 0.050607 0.416637 -0.264122
O29   O     O_2   0.822112 0.286314 0.499940 -0.296239
O30   O     O_3   0.721020 0.070876 0.409432 -0.548207
H24   H     H_    0.732382 0.985700 0.456333 0.362766
N3    N     N_R   0.438240 0.869192 0.709013 0.227826
O31   O     O_R   0.505561 0.925467 0.731960 -0.424366
O32   O     O_R   0.423687 0.692272 0.692256 -0.376672
N4    N     N_R   0.559840 0.912911 0.280206 0.230812
O33   O     O_R   0.573016 0.091785 0.292883 -0.367280
O34   O     O_R   0.492874 0.853839 0.257015 -0.411204

loop_
_geom_bond_atom_site_label_1
_geom_bond_atom_site_label_2
_geom_bond_distance
_ccdc_geom_bond_type
C42   C44   1.399354 A    
C39   C41   1.408980 A    
C6    C20   1.489117 S    
O18   V4    2.000575 S    
C44   H22   1.083198 S    
C33   H15   1.081421 S    
C29   C31   1.418663 A    
C20   H10   1.111755 S    
O1    C3    1.316260 A    
O2    C4    1.315955 A    
C52   H20   1.084578 S    
C2    O7    1.292889 A    
O12   V3    1.991788 S    
C23   C25   1.412170 A    
C46   S2    1.776293 S    
O5    C3    1.318899 A    
C17   H7    1.111990 S    
C50   C52   1.404621 A    
C18   H8    1.111906 S    
C7    C9    1.408897 A    
S1    O26   1.501576 D    
C33   C35   1.392143 A    
N2    O23   1.300482 A    
O16   C56   1.316434 A    
C34   C36   1.390862 A    
C36   C38   1.404553 A    
C21   C23   1.403080 A    
C37   C39   1.415667 A    
O14   V4    2.005468 S    
C38   C40   1.415506 A    
C17   C19   1.519491 S    
C53   O18   1.315814 A    
C45   S1    1.775843 S    
C41   C43   1.399148 A    
C26   N4    1.437182 S    
C26   C28   1.413399 A    
C15   C17   1.489954 S    
C27   C33   1.406304 A    
O13   C53   1.321928 A    
C19   H11   1.112293 S    
C18   C20   1.520229 S    
C34   H16   1.081295 S    
C37   C47   1.416861 A    
C24   C26   1.413234 A    
O6    V2    2.005660 S    
C49   C51   1.403018 A    
C36   H18   1.081934 S    
O27   H23   0.990675 S    
C28   C30   1.418175 A    
S2    O28   1.503808 D    
C50   C55   1.487654 S    
C22   C24   1.402933 A    
N3    O32   1.301122 A    
C11   C13   1.410637 A    
C49   C56   1.485958 S    
C1    C24   1.483636 S    
C30   C32   1.419252 A    
C3    C8    1.484073 S    
C35   C37   1.405130 A    
C43   H21   1.083197 S    
C2    C23   1.484005 S    
C48   C50   1.417443 A    
S1    O27   1.681997 S    
O15   V3    2.015225 S    
C22   H14   1.079832 S    
C25   C27   1.415897 A    
C54   O17   1.315983 A    
C17   H5    1.111279 S    
C43   C45   1.402846 A    
C40   C42   1.407883 A    
O4    V2    2.018657 S    
O11   V4    1.993494 S    
O14   C54   1.321507 A    
O6    C4    1.318534 A    
C42   C52   1.402724 A    
O20   V4    2.185321 S    
C38   C48   1.415501 A    
N1    O22   1.301098 A    
O1    V2    2.000410 S    
O2    V1    2.000354 S    
C21   C31   1.409247 A    
C31   C45   1.421451 A    
C28   C34   1.406188 A    
O4    C2    1.293894 A    
O19   V3    2.188261 S    
C8    C10   1.409025 A    
C12   C14   1.410813 A    
C32   C46   1.421493 A    
C9    H1    1.079745 S    
C5    C15   1.393366 A    
C10   H2    1.079888 S    
C20   H12   1.112241 S    
C6    C16   1.393486 A    
N4    O34   1.301221 A    
O15   C55   1.320171 A    
O3    V1    2.015290 S    
N2    O24   1.301435 A    
C47   C49   1.417555 A    
C9    C11   1.410209 A    
O13   V3    2.005552 S    
C18   H6    1.111720 S    
C35   H17   1.081649 S    
C48   N2    1.434340 S    
C14   C53   1.484357 S    
O3    C1    1.292716 A    
S2    O29   1.503407 D    
N3    O31   1.301182 A    
C11   H3    1.081193 S    
C12   H4    1.081221 S    
C41   C51   1.403465 A    
O7    V1    2.004939 S    
C1    O8    1.294217 A    
C13   C15   1.400350 A    
O8    V2    2.006910 S    
S1    O25   1.503483 D    
C14   C16   1.400311 A    
C29   C39   1.419481 A    
C51   H19   1.084640 S    
C25   N3    1.436741 S    
C30   C40   1.418551 A    
C4    C7    1.483491 S    
O5    V1    2.005745 S    
O20   V3    1.755538 S    
C5    C7    1.400503 A    
C6    C8    1.401174 A    
C19   H9    1.111773 S    
S2    O30   1.680176 S    
O19   V4    1.753445 S    
O16   V4    2.018591 S    
C44   C46   1.403008 A    
C10   C12   1.410172 A    
O9    V2    1.754389 S    
C22   C32   1.409389 A    
N1    O21   1.301051 A    
O10   V1    1.756481 S    
C21   H13   1.080071 S    
C5    C19   1.488665 S    
C27   C29   1.418913 A    
N4    O33   1.301315 A    
O30   H24   0.990663 S    
C47   N1    1.435839 S    
C13   C54   1.484604 S    
O12   C56   1.317933 A    
O17   V3    2.000521 S    
C16   C18   1.489607 S    
O11   C55   1.315412 A    
