data_str_m2_o14_o22_f0_pcu.sym.147
_audit_creation_date              2012-12-10T17:21:40-0500
_audit_creation_method            fapswitch 2.2
_symmetry_space_group_name_H-M    P1
_symmetry_Int_Tables_number       1
_space_group_crystal_system       triclinic
_cell_length_a                    10.756561
_cell_length_b                    10.814651
_cell_length_c                    9.605575
_cell_angle_alpha                 90.419523
_cell_angle_beta                  89.921776
_cell_angle_gamma                 91.996357
_cell_volume                      1116.69284384

loop_
_atom_site_label
_atom_site_type_symbol
_atom_type_description
_atom_site_fract_x
_atom_site_fract_y
_atom_site_fract_z
_atom_type_partial_charge
C1    C     C_R   0.496940 0.262513 0.499343 0.793801
C2    C     C_3   0.878147 0.499318 0.500505 0.133004
C3    C     C_3   0.931399 0.580186 0.622101 -0.384690
C4    C     C_3   0.930259 0.555597 0.362638 -0.445309
C5    C     C_R   0.307734 0.124476 0.657129 -0.177970
C6    C     C_R   0.219764 0.058535 0.736210 -0.140311
C7    C     C_R   0.221059 0.930288 0.740354 -0.142340
C8    C     C_R   0.309756 0.867349 0.664610 -0.176184
C9    C     C_R   0.400399 0.932207 0.583844 0.103349
C10   C     C_R   0.400274 0.062898 0.580732 0.064453
C11   C     C_R   0.489629 0.127916 0.497353 -0.128689
C12   C     C_R   0.260286 0.502929 0.499925 0.757015
C13   C     C_R   0.572731 0.063153 0.411665 0.162972
C14   C     C_R   0.571083 0.935193 0.415916 -0.202490
C15   C     C_R   0.488343 0.870136 0.502015 -0.140436
C16   C     C_R   0.663740 0.664386 0.144863 -0.208176
C17   C     C_R   0.741668 0.747070 0.073898 -0.233358
C18   C     C_R   0.740650 0.749660 0.930051 0.196861
C19   C     C_R   0.662213 0.666461 0.857379 -0.159107
C20   C     C_R   0.580053 0.581465 0.925848 0.164101
C21   C     C_R   0.580339 0.580995 0.075239 0.219627
C22   C     C_R   0.423549 0.422960 0.073372 -0.070682
C23   C     C_R   0.495315 0.736866 0.500663 0.777159
C24   C     C_R   0.423649 0.422933 0.925521 -0.055704
C25   C     C_R   0.740010 0.501093 0.499975 0.751953
C26   C     C_3   0.069021 0.364992 0.516725 0.015406
C27   C     C_3   0.923988 0.363799 0.511387 0.014724
C28   C     C_3   0.074220 0.580106 0.621841 -0.445401
C29   C     C_3   0.073058 0.557136 0.362155 -0.366915
C30   C     C_3   0.122246 0.500413 0.498950 0.131141
Cu1   Cu    Cu3+1 0.499990 0.499990 0.640660 0.915500
Cu2   Cu    Cu3+1 0.500010 0.500010 0.359340 0.921791
H1    H     H_    0.099643 0.333155 0.620904 0.156096
H2    H     H_    0.898252 0.651686 0.350147 0.163000
H3    H     H_    0.111084 0.676914 0.612488 0.166750
H4    H     H_    0.900792 0.676717 0.610476 0.157122
H5    H     H_    0.299632 0.223552 0.654376 0.140685
H6    H     H_    0.149468 0.107208 0.793303 0.126411
H7    H     H_    0.152058 0.879142 0.801041 0.128839
H8    H     H_    0.304595 0.767731 0.668638 0.150682
H9    H     H_    0.636434 0.885205 0.352653 0.140228
H10   H     H_    0.360795 0.359806 0.128096 0.137423
H11   H     H_    0.672974 0.670713 0.254412 0.202640
H12   H     H_    0.802982 0.810081 0.132047 0.146866
H13   H     H_    0.669783 0.671817 0.747756 0.202372
H14   H     H_    0.360911 0.359785 0.870010 0.128819
H15   H     H_    0.892221 0.314774 0.415085 0.158172
H16   H     H_    0.106621 0.543998 0.723267 0.177323
H17   H     H_    0.896010 0.546856 0.724379 0.191816
H18   H     H_    0.109646 0.654248 0.351965 0.166642
H19   H     H_    0.105738 0.505836 0.269135 0.183233
H20   H     H_    0.895450 0.500775 0.271277 0.184220
N1    N     N_R   0.501200 0.501210 0.147910 -0.192092
N2    N     N_R   0.501250 0.501290 0.852040 -0.191947
O1    O     O_R   0.499990 0.319640 0.618810 -0.580824
O2    O     O_R   0.500000 0.319660 0.381240 -0.570722
O3    O     O_R   0.317680 0.499970 0.618790 -0.604163
O4    O     O_R   0.317700 0.499990 0.381210 -0.578011
O5    O     O_R   0.500000 0.680340 0.618760 -0.602018
O6    O     O_R   0.500010 0.680360 0.381190 -0.588943
O7    O     O_R   0.682300 0.500010 0.618790 -0.593602
O8    O     O_R   0.682320 0.500030 0.381210 -0.606238
C31   C     C_3   0.665477 0.127831 0.316469 -0.828442
H21   H     H_    0.732901 0.063104 0.271299 0.211318
H22   H     H_    0.616228 0.170996 0.228851 0.252696
H23   H     H_    0.718982 0.199714 0.375378 0.219154
C32   C     C_3   0.119967 0.271910 0.409990 -0.932253
H24   H     H_    0.222780 0.269141 0.415151 0.237736
H25   H     H_    0.082212 0.177402 0.433491 0.246351
H26   H     H_    0.092585 0.295071 0.302202 0.237785
C33   C     C_3   0.823836 0.841870 0.855105 -0.899045
H27   H     H_    0.922644 0.821534 0.875147 0.227831
H28   H     H_    0.807528 0.839673 0.741005 0.218567
H29   H     H_    0.805631 0.936734 0.893254 0.244118
C34   C     C_3   0.867772 0.289083 0.633894 -0.914901
H30   H     H_    0.890712 0.333866 0.735326 0.242216
H31   H     H_    0.765322 0.277831 0.623756 0.254219
H32   H     H_    0.905512 0.194742 0.633812 0.236771

loop_
_geom_bond_atom_site_label_1
_geom_bond_atom_site_label_2
_ccdc_geom_bond_type
C31   H22   S    
C16   C21   A    
C5    H5    S    
Cu1   O7    S    
C19   C20   A    
C1    C11   S    
Cu2   O4    S    
C3    H17   S    
C7    C8    A    
C23   O5    A    
C26   C27   S    
C4    H20   S    
C26   C32   S    
C3    C28   S    
C1    O2    A    
C5    C6    A    
C24   N2    A    
C18   C19   A    
Cu1   O5    S    
C28   H3    S    
C8    C9    A    
C6    H6    S    
C2    C27   S    
C9    C10   A    
C4    C29   S    
C12   O4    A    
C15   C23   S    
C31   H23   S    
C13   C14   A    
C27   C34   S    
C22   N1    A    
C29   H18   S    
C23   O6    A    
C4    H2    S    
C32   H24   S    
C20   N2    A    
C33   H28   S    
C16   C17   A    
C32   H25   S    
C2    C4    S    
C34   H30   S    
C29   C30   S    
C26   H1    S    
Cu1   Cu2   S    
C13   C31   S    
C17   C18   A    
C25   O7    A    
C34   H31   S    
C16   H11   S    
C14   H9    S    
C12   O3    A    
C26   C30   S    
C22   C24   A    
Cu2   O6    S    
Cu2   N1    S    
C29   H19   S    
C27   H15   S    
C18   C33   S    
C28   H16   S    
C12   C30   S    
C33   H29   S    
C19   H13   S    
C6    C7    A    
C32   H26   S    
C24   H14   S    
Cu1   O3    S    
C28   C30   S    
C2    C3    S    
C1    O1    A    
C17   H12   S    
Cu2   O8    S    
C5    C10   A    
C21   N1    A    
C11   C13   A    
C22   H10   S    
C3    H4    S    
C2    C25   S    
C25   O8    A    
Cu1   N2    S    
C9    C15   A    
C34   H32   S    
C10   C11   A    
C31   H21   S    
C33   H27   S    
C20   C21   A    
C7    H7    S    
C14   C15   A    
C8    H8    S    
Cu1   O1    S    
Cu2   O2    S    
