data_str_m9_o4_o18_f0_sra.sym.88
_audit_creation_date              2012-12-11T17:02:22-0500
_audit_creation_method            fapswitch 2.2
_symmetry_space_group_name_H-M    P1
_symmetry_Int_Tables_number       1
_space_group_crystal_system       triclinic
_cell_length_a                    21.633127
_cell_length_b                    7.091313
_cell_length_c                    14.835448
_cell_angle_alpha                 89.999238
_cell_angle_beta                  106.014087
_cell_angle_gamma                 90.000237
_cell_volume                      2187.5481711

loop_
_atom_site_label
_atom_site_type_symbol
_atom_type_description
_atom_site_fract_x
_atom_site_fract_y
_atom_site_fract_z
_atom_type_partial_charge
O1    O     O_R   0.585850 0.505770 0.002130 -0.542310
O2    O     O_R   0.414150 0.005770 0.997870 -0.542308
O3    O     O_R   0.467530 0.173560 0.861970 -0.539172
O4    O     O_R   0.532470 0.673560 0.138030 -0.539186
C1    C     C_R   0.455744 0.344716 0.825436 0.684303
C2    C     C_R   0.544256 0.844713 0.174564 0.684322
O5    O     O_R   0.588690 0.175900 0.993250 -0.531632
O6    O     O_R   0.411310 0.675900 0.006750 -0.531624
O7    O     O_R   0.536170 0.007950 0.130090 -0.530997
O8    O     O_R   0.463830 0.507950 0.869910 -0.531015
C3    C     C_R   0.614835 0.344550 0.996812 0.695321
C4    C     C_R   0.385165 0.844549 0.003186 0.695364
O9    O     O_3   0.482630 0.339970 0.044740 -0.349165
O10   O     O_3   0.517370 0.839970 0.955260 -0.349160
V1    V     V_3+5 0.503220 0.064200 0.991700 1.565579
V2    V     V_3+5 0.496780 0.564200 0.008300 1.565547
C5    C     C_R   0.293591 0.999983 0.050105 0.064757
C6    C     C_R   0.706410 0.499990 0.949894 0.064762
C7    C     C_R   0.317268 0.851634 0.006560 -0.111994
C8    C     C_R   0.682731 0.351635 0.993436 -0.112032
C9    C     C_R   0.273664 0.706533 0.966466 -0.053518
C10   C     C_R   0.726333 0.206527 0.033526 -0.053488
H1    H     H_    0.289654 0.586881 0.933560 0.141729
H2    H     H_    0.710342 0.086870 0.066429 0.141713
C11   C     C_R   0.208074 0.719604 0.963955 -0.133990
C12   C     C_R   0.791924 0.219594 0.036038 -0.133939
H3    H     H_    0.174941 0.612151 0.929338 0.190364
H4    H     H_    0.825055 0.112132 0.070651 0.190348
C13   C     C_R   0.183800 0.878018 0.999531 -0.060033
C14   C     C_R   0.816200 0.378015 0.000468 -0.060028
C15   C     C_R   0.228021 0.016585 0.042315 0.025897
C16   C     C_R   0.771981 0.516589 0.957689 0.025898
C17   C     C_3   0.228505 0.222107 0.021153 0.100245
C18   C     C_3   0.771500 0.722106 0.978855 0.100243
C19   C     C_3   0.301490 0.207619 0.042722 0.273889
C20   C     C_3   0.698514 0.707629 0.957278 0.273897
H5    H     H_    0.210257 0.312492 0.069439 0.144872
H6    H     H_    0.789753 0.812493 0.930575 0.144883
H7    H     H_    0.321770 0.252208 0.984923 0.082497
H8    H     H_    0.678232 0.752218 0.015074 0.082497
C21   C     C_R   0.927201 0.882763 0.723692 -0.034727
C22   C     C_R   0.072800 0.382753 0.276308 -0.034732
C23   C     C_R   0.572303 0.856075 0.275830 -0.032358
C24   C     C_R   0.427697 0.356088 0.724170 -0.032366
C25   C     C_R   0.938914 0.833457 0.568434 -0.163476
C26   C     C_R   0.061086 0.333370 0.431565 -0.163471
C27   C     C_R   0.966323 0.851069 0.664615 -0.159513
C28   C     C_R   0.033677 0.351002 0.335384 -0.159507
C29   C     C_R   0.860556 0.898185 0.686726 -0.205164
C30   C     C_R   0.139444 0.398211 0.313275 -0.205162
C31   C     C_R   0.831296 0.881456 0.589098 0.090790
C32   C     C_R   0.168703 0.381461 0.410903 0.090788
C33   C     C_R   0.871983 0.846601 0.530404 0.127077
C34   C     C_R   0.128017 0.346547 0.469595 0.127077
C35   C     C_R   0.763261 0.894485 0.548216 0.033389
C36   C     C_R   0.236738 0.394520 0.451786 0.033383
C37   C     C_R   0.736953 0.864607 0.449602 0.047962
C38   C     C_R   0.263047 0.364603 0.550398 0.047954
C39   C     C_R   0.779764 0.830089 0.394609 -0.167274
C40   C     C_R   0.220236 0.330030 0.605390 -0.167270
C41   C     C_R   0.845753 0.822891 0.434300 -0.182455
C42   C     C_R   0.154247 0.322810 0.565699 -0.182449
C43   C     C_R   0.720749 0.937732 0.602523 -0.125970
C44   C     C_R   0.279249 0.437839 0.397483 -0.125924
C45   C     C_R   0.654748 0.944751 0.563010 -0.134903
C46   C     C_R   0.345249 0.444889 0.436997 -0.134873
C47   C     C_R   0.628224 0.911658 0.467702 0.108009
C48   C     C_R   0.371775 0.411753 0.532302 0.108009
C49   C     C_R   0.668728 0.871817 0.409278 0.087852
C50   C     C_R   0.331271 0.371835 0.590723 0.087843
C51   C     C_R   0.561186 0.921486 0.430057 -0.155555
C52   C     C_R   0.438812 0.421621 0.569949 -0.155541
C53   C     C_R   0.533445 0.895159 0.334480 -0.128044
C54   C     C_R   0.466554 0.395260 0.665524 -0.128052
C55   C     C_R   0.639013 0.842881 0.312540 -0.213731
C56   C     C_R   0.360988 0.342849 0.687457 -0.213726
H9    H     H_    0.876607 0.796296 0.389160 0.150309
H10   H     H_    0.123393 0.296173 0.610838 0.150301
H11   H     H_    0.665983 0.813479 0.263040 0.101876
H12   H     H_    0.334019 0.313380 0.736954 0.101878
H13   H     H_    0.481789 0.907564 0.306020 0.146928
H14   H     H_    0.518208 0.407706 0.693986 0.146946
H15   H     H_    0.624088 0.977858 0.607641 0.152682
H16   H     H_    0.375907 0.478053 0.392368 0.152631
H17   H     H_    0.970055 0.807337 0.523704 0.123436
H18   H     H_    0.029946 0.307205 0.476294 0.123433
H19   H     H_    0.017952 0.838209 0.693124 0.122523
H20   H     H_    0.982049 0.338111 0.306875 0.122525
H21   H     H_    0.833182 0.918400 0.736600 0.108786
H22   H     H_    0.166819 0.418461 0.263401 0.108787
H23   H     H_    0.764101 0.808653 0.319965 0.158549
H24   H     H_    0.235899 0.308575 0.680035 0.158543
H25   H     H_    0.736863 0.969756 0.676192 0.168298
H26   H     H_    0.263132 0.469903 0.323817 0.168265
H27   H     H_    0.530237 0.952548 0.474506 0.130388
H28   H     H_    0.469760 0.452748 0.525504 0.130383
O11   O     O_R   0.036080 0.231270 0.130120 -0.542169
O12   O     O_R   0.963920 0.731270 0.869880 -0.542168
O13   O     O_R   0.911300 0.558970 0.006750 -0.519183
O14   O     O_R   0.088700 0.058970 0.993250 -0.519177
C57   C     C_R   0.885054 0.390045 0.002545 0.711568
C58   C     C_R   0.114946 0.890046 0.997455 0.711572
O15   O     O_R   0.032450 0.561140 0.138040 -0.537184
O16   O     O_R   0.967550 0.061140 0.861960 -0.537183
O17   O     O_R   0.085870 0.728910 0.002130 -0.548482
O18   O     O_R   0.914130 0.228910 0.997870 -0.548481
C59   C     C_R   0.044758 0.392418 0.174931 0.690840
C60   C     C_R   0.955242 0.892421 0.825068 0.690838
O19   O     O_3   0.017320 0.394650 0.955270 -0.367184
O20   O     O_3   0.982680 0.894650 0.044730 -0.367188
V3    V     V_3+5 0.996780 0.670490 0.008300 1.499952
V4    V     V_3+5 0.003220 0.170490 0.991700 1.499963
Cl1   Cl    Cl    0.191760 0.259320 0.898344 -0.746357
Cl2   Cl    Cl    0.808241 0.759301 0.101667 -0.746354
S1    S     S_3+6 0.342846 0.301630 0.155685 -0.046489
O21   O     O_2   0.317680 0.210916 0.230090 -0.360638
O22   O     O_2   0.413462 0.260636 0.175831 -0.334870
O23   O     O_3   0.331402 0.535692 0.157372 -0.520547
H29   H     H_    0.361168 0.579456 0.217081 0.348403
S2    S     S_3+6 0.657171 0.801668 0.844314 -0.046541
O24   O     O_2   0.682286 0.710802 0.769901 -0.360630
O25   O     O_2   0.586545 0.760901 0.824199 -0.334851
O26   O     O_3   0.668697 0.035679 0.842601 -0.520563
H30   H     H_    0.638928 0.079492 0.782898 0.348408

loop_
_geom_bond_atom_site_label_1
_geom_bond_atom_site_label_2
_ccdc_geom_bond_type
C23   C53   A    
C46   C48   A    
C43   C45   A    
C21   C60   S    
S1    O22   D    
C25   H17   S    
O1    C3    A    
O2    C4    A    
C2    O7    A    
O26   H30   S    
O18   V4    S    
O5    C3    A    
O15   V3    S    
C7    C9    A    
O19   V3    S    
C52   H28   S    
C37   C39   A    
C51   H27   S    
C38   C40   A    
S1    O21   D    
O12   C60   A    
C14   C57   S    
C58   O17   A    
C40   C42   A    
C21   C29   A    
C24   C56   A    
O23   H29   S    
C17   C19   S    
O20   V3    S    
C33   C41   A    
C30   H22   S    
S2    O25   D    
C29   C31   A    
C35   C43   A    
C30   C32   A    
C28   H20   S    
C19   S1    S    
C22   C59   S    
C47   C51   A    
S2    O26   S    
C48   C52   A    
O5    V1    S    
O17   V3    S    
C25   C33   A    
O6    V2    S    
C23   C55   A    
C54   H14   S    
C53   H13   S    
C32   C34   A    
C25   C27   A    
C11   C13   A    
C18   Cl2   S    
C26   C28   A    
C3    C8    S    
C39   C41   A    
C15   C17   S    
C20   H8    S    
C52   C54   A    
O19   V4    S    
C41   H9    S    
C51   C53   A    
O11   V4    S    
C38   C50   A    
C22   C28   A    
C34   C42   A    
C31   C35   A    
C45   C47   A    
C17   H5    S    
C31   C33   A    
C27   H19   S    
O4    V2    S    
C19   H7    S    
O6    C4    A    
S1    O23   S    
O13   V3    S    
C26   C34   A    
C36   C44   A    
C21   C27   A    
O1    V2    S    
C39   H23   S    
C24   C54   A    
O2    V1    S    
C44   C46   A    
C22   C30   A    
O4    C2    A    
O13   C57   A    
C1    C24   S    
C8    C10   A    
O14   V4    S    
C2    C23   S    
C35   C37   A    
C50   C56   A    
C5    C15   A    
C10   H2    S    
C6    C16   A    
O16   C60   A    
O3    V1    S    
S2    O24   D    
O16   V4    S    
O14   C58   A    
C57   O18   A    
C9    C11   A    
O12   V3    S    
C18   H6    S    
C17   Cl1   S    
C42   H10   S    
C56   H12   S    
C29   H21   S    
O3    C1    A    
C12   C14   A    
C11   H3    S    
C43   H25   S    
C12   H4    S    
C37   C49   A    
C9    H1    S    
O7    V1    S    
C44   H26   S    
C1    O8    A    
C13   C15   A    
O8    V2    S    
C14   C16   A    
C6    C20   S    
C4    C7    S    
C5    C7    A    
C18   C20   S    
C36   C38   A    
C13   C58   S    
C49   C55   A    
C6    C8    A    
C20   S2    S    
O20   V4    S    
C45   H15   S    
C46   H16   S    
O11   C59   A    
C48   C50   A    
C10   C12   A    
O9    V2    S    
O10   V1    S    
O15   C59   A    
C5    C19   S    
C47   C49   A    
C40   H24   S    
C55   H11   S    
C32   C36   A    
C16   C18   S    
C26   H18   S    
