data_str_m2_o18_o24_f0_pcu.sym.36
_audit_creation_date              2012-10-26T20:58:18-0400
_audit_creation_method            fapswitch 2.2
_symmetry_space_group_name_H-M    P1
_symmetry_Int_Tables_number       1
_space_group_crystal_system       triclinic
_cell_length_a                    10.609881
_cell_length_b                    14.731688
_cell_length_c                    14.561036
_cell_angle_alpha                 65.068552
_cell_angle_beta                  103.920357
_cell_angle_gamma                 102.496125
_cell_volume                      1986.0520074

loop_
_atom_site_label
_atom_site_type_symbol
_atom_type_description
_atom_site_fract_x
_atom_site_fract_y
_atom_site_fract_z
_atom_type_partial_charge
C1    C     C_R   0.478209 0.119831 0.311288 0.534545
C2    C     C_R   0.482995 0.536090 0.950318 0.030373
C3    C     C_R   0.412960 0.496459 0.875318 -0.016799
C4    C     C_R   0.586454 0.506431 0.128794 -0.012775
C5    C     C_R   0.412402 0.395159 0.895397 -0.123767
C6    C     C_R   0.593825 0.609058 0.106551 -0.122893
C7    C     C_R   0.702520 0.279654 0.681343 -0.151996
C8    C     C_R   0.255178 0.700941 0.351851 -0.146244
C9    C     C_R   0.693616 0.212623 0.634212 0.144641
C10   C     C_R   0.313331 0.792763 0.359188 0.149659
C11   C     C_R   0.500853 0.275698 0.522851 0.013888
C12   C     C_R   0.524445 0.880433 0.688529 0.533884
C13   C     C_R   0.467027 0.707597 0.502681 0.013952
C14   C     C_R   0.519301 0.356138 0.558704 -0.022235
C15   C     C_R   0.420893 0.614119 0.487993 -0.024182
C16   C     C_R   0.259611 0.000270 0.500480 0.543937
C17   C     C_R   0.740340 0.999751 0.499492 0.546397
C18   C     C_R   0.619944 0.353753 0.642952 0.034921
C19   C     C_R   0.311458 0.612612 0.410742 0.038130
C20   C     C_R   0.443806 0.439371 0.513493 0.003439
C21   C     C_R   0.480867 0.523175 0.545055 0.002116
C22   C     C_R   0.574602 0.512589 0.633819 -0.119705
C23   C     C_R   0.475197 0.291596 0.176068 -0.144435
C24   C     C_R   0.332310 0.441305 0.438300 -0.119167
C25   C     C_R   0.641025 0.428114 0.684732 0.003580
C26   C     C_R   0.263609 0.524637 0.389456 0.007538
C27   C     C_3   0.020907 0.035494 0.402592 -0.135743
C28   C     C_3   0.978772 0.964696 0.596923 -0.135910
C29   C     C_3   0.969010 0.094526 0.448735 -0.122360
C30   C     C_3   0.030716 0.905704 0.550793 -0.116423
C31   C     C_3   0.876899 0.999187 0.499039 0.045913
C32   C     C_3   0.122888 0.001040 0.500511 0.045904
C33   C     C_3   0.926474 0.940149 0.452830 -0.113948
C34   C     C_R   0.525549 0.709640 0.824820 -0.145456
C35   C     C_3   0.073248 0.060076 0.546728 -0.119021
C36   C     C_R   0.467095 0.188428 0.201688 -0.028264
C37   C     C_R   0.541696 0.813236 0.798137 -0.031134
C38   C     C_R   0.433416 0.220281 0.019135 -0.003196
C39   C     C_R   0.595488 0.785276 0.979960 0.000085
C40   C     C_R   0.453133 0.153866 0.123366 -0.124546
C41   C     C_R   0.573818 0.850806 0.875517 -0.126885
C42   C     C_3   0.279924 0.883928 0.261720 -0.206164
C43   C     C_3   0.171360 0.937316 0.263041 -0.274804
C44   C     C_3   0.108309 0.000472 0.154438 -0.489164
C45   C     C_R   0.483645 0.361655 0.075969 0.014257
C46   C     C_3   0.818561 0.165817 0.658700 -0.199902
C47   C     C_3   0.818732 0.061952 0.748234 -0.274464
C48   C     C_3   0.956328 0.043740 0.809214 -0.487584
C49   C     C_3   0.398850 0.181331 0.932769 -0.259771
C50   C     C_3   0.385439 0.066382 0.965831 -0.315734
C51   C     C_3   0.359928 0.038095 0.872776 -0.449119
C52   C     C_3   0.648504 0.826650 0.064219 -0.258512
C53   C     C_3   0.703844 0.939248 0.029162 -0.312637
C54   C     C_3   0.747247 0.970801 0.120574 -0.459135
C55   C     C_3   0.320659 0.552712 0.780278 -0.408295
C56   C     C_R   0.521183 0.641472 0.926137 0.013751
C57   C     C_3   0.671205 0.447757 0.227837 -0.408782
C58   C     C_3   0.736605 0.420733 0.782474 -0.410493
C59   C     C_3   0.142047 0.518805 0.311399 -0.413355
C60   C     C_R   0.446462 0.325673 0.995766 0.030061
C61   C     C_R   0.566971 0.678914 0.005205 0.031713
C62   C     C_R   0.517922 0.467064 0.053233 0.031608
Cu1   Cu    Cu3+1 0.465750 0.918270 0.475680 0.910786
Cu2   Cu    Cu3+1 0.534250 0.081730 0.524320 0.907501
H1    H     H_    0.940513 0.171755 0.406876 0.105988
H2    H     H_    0.957785 0.933896 0.676317 0.101425
H3    H     H_    0.863856 0.891175 0.414219 0.114666
H4    H     H_    0.135885 0.109169 0.585200 0.110532
H5    H     H_    0.371132 0.370253 0.833084 0.111639
H6    H     H_    0.633744 0.633655 0.169126 0.104796
H7    H     H_    0.518178 0.682398 0.765416 0.131970
H8    H     H_    0.473414 0.317171 0.235032 0.136446
H9    H     H_    0.584834 0.931269 0.852872 0.117971
H10   H     H_    0.455160 0.075314 0.144064 0.107261
H11   H     H_    0.183173 0.057745 0.112106 0.159677
H12   H     H_    0.059223 0.828487 0.592730 0.113911
H13   H     H_    0.059196 0.951553 0.111847 0.150121
H14   H     H_    0.034281 0.040905 0.158525 0.137166
H15   H     H_    0.094249 0.881000 0.303929 0.153609
H16   H     H_    0.212297 0.989914 0.301731 0.204847
H17   H     H_    0.369378 0.933662 0.239766 0.153664
H18   H     H_    0.246683 0.859819 0.195804 0.093496
H19   H     H_    0.024814 0.055208 0.757305 0.146595
H20   H     H_    0.992793 0.096411 0.849251 0.148913
H21   H     H_    0.953986 0.965153 0.867751 0.139731
H22   H     H_    0.755901 0.056568 0.801666 0.146774
H23   H     H_    0.548123 0.712575 0.561946 0.117801
H24   H     H_    0.781013 0.001616 0.718582 0.194081
H25   H     H_    0.848592 0.168631 0.590220 0.165012
H26   H     H_    0.902166 0.217191 0.680896 0.097350
H27   H     H_    0.267729 0.064376 0.821569 0.149941
H28   H     H_    0.442258 0.072699 0.828759 0.156888
H29   H     H_    0.350756 0.954772 0.898927 0.148492
H30   H     H_    0.476488 0.037653 0.015996 0.158807
H31   H     H_    0.302856 0.029104 0.009142 0.155504
H32   H     H_    0.303198 0.205188 0.886203 0.136048
H33   H     H_    0.475283 0.217433 0.882947 0.149374
H34   H     H_    0.420991 0.269514 0.463315 0.119526
H35   H     H_    0.662437 0.960181 0.158008 0.148833
H36   H     H_    0.823003 0.925182 0.177991 0.152099
H37   H     H_    0.788741 0.051807 0.093702 0.142235
H38   H     H_    0.789456 0.953514 0.991240 0.161214
H39   H     H_    0.629559 0.987055 0.974130 0.156087
H40   H     H_    0.569563 0.810647 0.109293 0.142696
H41   H     H_    0.731820 0.786188 0.115987 0.137021
H42   H     H_    0.295805 0.620621 0.783329 0.143131
H43   H     H_    0.362570 0.572998 0.710188 0.132258
H44   H     H_    0.225917 0.503739 0.774350 0.126695
H45   H     H_    0.783146 0.278631 0.743439 0.097586
H46   H     H_    0.621060 0.425873 0.294282 0.133630
H47   H     H_    0.699753 0.380838 0.225358 0.143060
H48   H     H_    0.765131 0.495326 0.240453 0.121507
H49   H     H_    0.733234 0.481518 0.807657 0.131937
H50   H     H_    0.712127 0.347475 0.845570 0.129012
H51   H     H_    0.838126 0.427176 0.770436 0.123437
H52   H     H_    0.116186 0.443012 0.307824 0.122359
H53   H     H_    0.057251 0.534403 0.332209 0.124903
H54   H     H_    0.157959 0.574458 0.233608 0.127863
H55   H     H_    0.172363 0.701949 0.291304 0.095727
H56   H     H_    0.595446 0.568707 0.666610 0.091877
H57   H     H_    0.294663 0.377212 0.417622 0.091475
H58   H     H_    0.040441 0.065680 0.322843 0.094521
N1    N     N_R   0.585750 0.204560 0.560800 -0.222193
N2    N     N_R   0.414250 0.795440 0.439200 -0.222107
O1    O     O_R   0.454850 0.022100 0.338110 -0.516399
O2    O     O_R   0.545150 0.977900 0.661890 -0.505286
O3    O     O_R   0.512700 0.160150 0.379180 -0.504180
O4    O     O_R   0.487300 0.839850 0.620820 -0.506789
O5    O     O_R   0.287930 0.931000 0.479440 -0.505135
O6    O     O_R   0.712070 0.069000 0.520560 -0.517792
O7    O     O_R   0.345780 0.069050 0.520520 -0.506399
O8    O     O_R   0.654220 0.930950 0.479480 -0.502481

loop_
_geom_bond_atom_site_label_1
_geom_bond_atom_site_label_2
_ccdc_geom_bond_type
C38   C40   A    
C45   C60   A    
C34   C56   A    
C23   C45   A    
C27   C29   S    
C34   C37   A    
C14   C18   A    
C54   H37   S    
C42   H18   S    
Cu1   N2    S    
C39   C41   A    
C46   H25   S    
C53   C54   S    
C27   C33   S    
C22   H56   S    
C42   H17   S    
C12   O4    A    
C11   H34   S    
C6    C61   A    
C44   H13   S    
C1    O1    A    
C10   N2    A    
C11   C14   A    
C50   H31   S    
C57   H48   S    
C12   O2    A    
C43   H15   S    
C4    C62   A    
C45   C62   A    
C6    H6    S    
C12   C37   S    
C16   O7    A    
C19   C26   A    
C5    H5    S    
C51   H27   S    
C15   C19   A    
C3    C55   S    
C20   C24   A    
C28   C35   S    
C59   H52   S    
C22   C25   A    
C4    C57   S    
C58   H49   S    
C31   C33   S    
C26   C59   S    
Cu1   O4    S    
C5    C60   A    
Cu2   O3    S    
C39   C52   S    
C17   O6    A    
C9    C46   S    
C59   H53   S    
C21   C22   A    
C17   O8    A    
C54   H36   S    
C18   C25   A    
C27   H58   S    
C39   C61   A    
C8    C19   A    
C55   H42   S    
C47   H22   S    
C14   C20   A    
C36   C40   A    
C4    C6    A    
C38   C49   S    
C13   N2    A    
C50   H30   S    
C3    C5    A    
C43   H16   S    
C41   H9    S    
C48   H20   S    
C55   H43   S    
C44   H11   S    
C28   H2    S    
C43   C44   S    
C32   C35   S    
C51   H28   S    
C30   H12   S    
C57   H46   S    
Cu2   O7    S    
C53   H38   S    
C7    C18   A    
C13   H23   S    
C50   C51   S    
Cu1   O8    S    
C16   O5    A    
Cu1   O1    S    
C51   H29   S    
C29   H1    S    
Cu2   O6    S    
C52   H41   S    
C23   C36   A    
C59   H54   S    
Cu2   O2    S    
C13   C15   A    
C58   H51   S    
C17   C31   S    
C38   C60   A    
C54   H35   S    
C42   C43   S    
C52   C53   S    
C33   H3    S    
C7    C9    A    
C46   C47   S    
C52   H40   S    
C10   C42   S    
C30   C33   S    
C27   C32   S    
C48   H21   S    
C23   H8    S    
C28   C31   S    
C11   N1    A    
C1    O3    A    
C24   C26   A    
C47   C48   S    
C46   H26   S    
C16   C32   S    
Cu2   N1    S    
C29   C35   S    
C48   H19   S    
C55   H44   S    
C47   H24   S    
C28   C30   S    
C2    C3    A    
C29   C31   S    
C2    C56   A    
C30   C32   S    
C57   H47   S    
C35   H4    S    
C53   H39   S    
C44   H14   S    
C24   H57   S    
C9    N1    A    
C40   H10   S    
Cu1   O5    S    
C49   H32   S    
C37   C41   A    
C49   H33   S    
Cu1   Cu2   S    
C7    H45   S    
C15   C21   A    
C20   C21   A    
C8    H55   S    
C8    C10   A    
C49   C50   S    
C25   C58   S    
C58   H50   S    
C56   C61   A    
C34   H7    S    
C2    C62   A    
C1    C36   S    
