data_str_m9_o16_o24_f0_sra.sym.25
_audit_creation_date              2012-12-11T15:13:42-0500
_audit_creation_method            fapswitch 2.2
_symmetry_space_group_name_H-M    P1
_symmetry_Int_Tables_number       1
_space_group_crystal_system       triclinic
_cell_length_a                    6.946445
_cell_length_b                    13.541663
_cell_length_c                    20.082485
_cell_angle_alpha                 103.959602
_cell_angle_beta                  90.051725
_cell_angle_gamma                 90.659962
_cell_volume                      1833.16040927

loop_
_atom_site_label
_atom_site_type_symbol
_atom_type_description
_atom_site_fract_x
_atom_site_fract_y
_atom_site_fract_z
_atom_type_partial_charge
O1    O     O_R   0.506780 0.600060 0.449950 -0.536616
O2    O     O_R   0.179840 0.597110 0.589410 -0.529374
O3    O     O_R   0.004570 0.399940 0.550050 -0.542991
C1    C     C_R   0.348704 0.619052 0.616733 0.725486
O4    O     O_R   0.177380 0.612160 0.452890 -0.530886
O5    O     O_R   0.002100 0.415100 0.412560 -0.540032
C2    C     C_R   0.346850 0.640702 0.437617 0.758854
O6    O     O_R   0.509250 0.584900 0.587440 -0.552195
O7    O     O_3   0.337570 0.435330 0.486930 -0.370507
V1    V     V_3+5 0.064650 0.512000 0.502430 1.500632
O8    O     O_R   0.672090 0.402890 0.410590 -0.528900
C3    C     C_R   0.840369 0.379723 0.383482 0.695553
O9    O     O_R   0.674540 0.387840 0.547110 -0.547785
C4    C     C_R   0.842812 0.360788 0.563368 0.685268
V2    V     V_3+5 0.564040 0.488000 0.497570 1.478993
O10   O     O_3   0.840990 0.564670 0.513070 -0.367151
C5    C     C_R   0.843217 0.107257 0.607714 -0.118661
H1    H     H_    0.841517 0.156770 0.513963 0.136279
H2    H     H_    0.833407 0.981780 0.690431 0.131736
H3    H     H_    0.838994 0.027513 0.580942 0.155136
C6    C     C_R   0.849262 0.283489 0.602821 -0.042520
C7    C     C_R   0.870801 0.319086 0.933013 -0.169355
C8    C     C_R   0.869948 0.395699 0.897861 -0.104634
C9    C     C_R   0.863220 0.371649 0.826409 -0.167196
C10   C     C_R   0.856307 0.269012 0.787936 0.078723
C11   C     C_R   0.854886 0.190808 0.824441 0.075660
C12   C     C_R   0.852032 0.241339 0.714614 0.074523
C13   C     C_R   0.845448 0.136562 0.679713 0.131185
C14   C     C_R   0.840858 0.061668 0.716737 -0.223109
C15   C     C_R   0.846616 0.088084 0.787873 -0.217202
C16   C     C_R   0.853725 0.313897 0.674439 -0.223588
C17   C     C_R   0.845057 0.180426 0.569493 -0.161408
C18   C     C_R   0.863057 0.217026 0.897069 -0.077459
H4    H     H_    0.856656 0.394645 0.696884 0.087945
H5    H     H_    0.877838 0.339403 0.988580 0.111680
H6    H     H_    0.864223 0.435383 0.803108 0.102678
H7    H     H_    0.875618 0.474598 0.926210 0.139113
H8    H     H_    0.844605 0.026856 0.813987 0.115101
C19   C     C_3   0.678769 0.214342 0.229396 -0.163090
C20   C     C_3   0.776483 0.195744 0.294705 -0.128093
H9    H     H_    0.710067 0.154976 0.330830 0.120518
H10   H     H_    0.530802 0.189225 0.211446 0.120678
C21   C     C_3   0.848403 0.307290 0.313508 -0.068803
C22   C     C_3   0.752618 0.325399 0.248745 0.035097
C23   C     C_3   0.938585 0.295374 0.207416 -0.179183
C24   C     C_3   0.035634 0.275931 0.272771 -0.135535
C25   C     C_3   0.963312 0.163880 0.253071 -0.116410
C26   C     C_3   0.865646 0.184284 0.188747 -0.038786
H11   H     H_    0.005282 0.336675 0.171619 0.126747
H12   H     H_    0.182721 0.298111 0.292181 0.174815
H13   H     H_    0.051671 0.096518 0.254275 0.127977
C27   C     C_3   0.537973 0.720260 0.731755 -0.197711
C28   C     C_3   0.468105 0.832309 0.751163 -0.224243
H14   H     H_    0.558529 0.900713 0.752095 0.117389
H15   H     H_    0.687272 0.695796 0.717101 0.121530
C29   C     C_3   0.357350 0.810642 0.812935 -0.022681
C30   C     C_3   0.426600 0.699956 0.793716 0.062906
C31   C     C_3   0.245271 0.667582 0.748876 -0.218375
C32   C     C_3   0.175379 0.779746 0.768240 -0.189122
C33   C     C_3   0.286938 0.799974 0.706295 0.063776
C34   C     C_3   0.355939 0.689283 0.687085 -0.017616
H16   H     H_    0.154434 0.599257 0.748023 0.106784
H17   H     H_    0.026124 0.804410 0.782816 0.120436
C35   C     C_R   0.375960 0.898750 0.397032 -0.008141
H18   H     H_    0.379700 0.842798 0.489165 0.179855
H19   H     H_    0.433533 0.021506 0.308662 0.153814
C36   C     C_R   0.356351 0.720326 0.399422 -0.072800
C37   C     C_R   0.314167 0.685443 0.070415 -0.147859
C38   C     C_R   0.282901 0.611643 0.106678 -0.104270
C39   C     C_R   0.290497 0.637112 0.178066 -0.097017
C40   C     C_R   0.333896 0.737858 0.215508 0.087283
C41   C     C_R   0.362363 0.813454 0.177960 0.061021
C42   C     C_R   0.346753 0.766028 0.288822 0.067573
C43   C     C_R   0.372692 0.870335 0.323816 0.072455
C44   C     C_R   0.401382 0.942681 0.284863 -0.174587
C45   C     C_R   0.397483 0.914804 0.213633 -0.214406
C46   C     C_R   0.338469 0.693058 0.328373 -0.188942
C47   C     C_R   0.373619 0.822537 0.433607 -0.195567
C48   C     C_R   0.353009 0.786051 0.105227 -0.085331
H20   H     H_    0.322195 0.613620 0.305549 0.109162
H21   H     H_    0.303466 0.664506 0.014948 0.151783
H22   H     H_    0.255968 0.576514 0.202151 0.103661
H23   H     H_    0.249041 0.534221 0.079300 0.124791
H24   H     H_    0.422007 0.974059 0.186665 0.111902
O11   O     O_R   0.203580 0.914920 0.912610 -0.547961
O12   O     O_R   0.535710 0.887810 0.047120 -0.528653
O13   O     O_R   0.710730 0.084950 0.087430 -0.546418
C49   C     C_R   0.366369 0.862360 0.064741 0.726640
O14   O     O_R   0.533010 0.902850 0.910600 -0.527910
O15   O     O_R   0.708010 0.100090 0.949930 -0.542355
C50   C     C_R   0.364220 0.880893 0.883280 0.744562
O16   O     O_R   0.206300 0.899780 0.050100 -0.542720
O17   O     O_3   0.375170 0.064580 0.013100 -0.379008
V3    V     V_3+5 0.648200 0.988020 0.997570 1.472417
O18   O     O_R   0.038030 0.112330 0.952840 -0.543475
C51   C     C_R   0.869734 0.139115 0.936431 0.683600
O19   O     O_R   0.040730 0.097300 0.089360 -0.545853
C52   C     C_R   0.872920 0.116616 0.117553 0.687712
V4    V     V_3+5 0.148780 0.012220 0.002360 1.430746
O20   O     O_3   0.871930 0.935430 0.986900 -0.362453
C53   C     C_2   0.620645 0.409372 0.244109 0.714144
O21   O     O_2   0.662784 0.468770 0.209154 -0.564682
O22   O     O_R   0.443306 0.414537 0.276913 -0.679230
H25   H     H_    0.345646 0.453665 0.256685 0.262859
C54   C     C_2   0.506301 0.639391 0.840482 0.308748
H26   H     H_    0.547892 0.561095 0.819574 0.044259
O23   O     O_2   0.525206 0.677183 0.901750 -0.541416
C55   C     C_2   0.209992 0.860866 0.659334 0.305982
H27   H     H_    0.186704 0.941672 0.678847 0.063708
O24   O     O_2   0.174274 0.820726 0.599387 -0.541141
C56   C     C_2   0.372639 0.006191 0.437812 0.726585
O25   O     O_2   0.280703 0.070021 0.417829 -0.575268
O26   O     O_R   0.465273 0.032980 0.501588 -0.668938
H28   H     H_    0.447309 0.107218 0.525633 0.299157

loop_
_geom_bond_atom_site_label_1
_geom_bond_atom_site_label_2
_ccdc_geom_bond_type
C31   H16   S    
C20   C25   S    
C30   C54   S    
O17   V3    S    
C42   C43   A    
O18   C51   A    
C36   C46   A    
C1    O6    A    
C45   H24   S    
O19   C52   A    
O11   C50   A    
C23   C24   S    
C55   H27   S    
C7    H5    S    
C54   O23   D    
C9    H6    S    
C38   H23   S    
C37   H21   S    
C4    C6    S    
C13   C14   A    
C3    C21   S    
C27   C34   S    
O5    C3    A    
O12   C49   A    
C28   C29   S    
V2    O10   S    
O13   V3    S    
C5    H3    S    
C29   C30   S    
C15   H8    S    
O14   V3    S    
O12   V3    S    
O8    V2    S    
C20   C21   S    
C49   O16   A    
C37   C38   A    
C25   C26   S    
C8    C9    A    
C39   C40   A    
O1    V2    S    
C23   H11   S    
O14   C50   A    
O7    V1    S    
O17   V4    S    
C33   C55   S    
C27   H15   S    
C41   C45   A    
O13   C52   A    
C37   C48   A    
C32   C33   S    
C53   O22   S    
O9    C4    A    
C36   C47   A    
C48   C49   S    
O19   V4    S    
C28   C33   S    
O15   V3    S    
C19   H10   S    
C29   C50   S    
C6    C17   A    
C43   C44   A    
C12   C16   A    
C53   O21   D    
C9    C10   A    
C19   C20   S    
C40   C42   A    
C35   C56   S    
C25   H13   S    
C10   C11   A    
C8    H7    S    
C1    C34   S    
C33   C34   S    
O2    C1    A    
C44   C45   A    
C14   C15   A    
O11   V4    S    
C6    C16   A    
C11   C18   A    
V4    O20   S    
V3    O20   S    
O8    C3    A    
C16   H4    S    
C56   O26   S    
O15   C51   A    
O3    C4    A    
C20   H9    S    
C11   C15   A    
O6    V2    S    
O9    V2    S    
C21   C22   S    
C10   C12   A    
H1    C17   S    
O2    V1    S    
C18   C51   S    
C12   C13   A    
C27   C28   S    
O4    C2    A    
O26   H28   S    
C23   C26   S    
C7    C18   A    
C24   C25   S    
C42   C46   A    
H18   C47   S    
C56   O25   D    
O1    C2    A    
C5    C13   A    
C35   C47   A    
C22   C23   S    
O5    V1    S    
C22   C53   S    
C28   H14   S    
C19   C22   S    
C41   C48   A    
C26   C52   S    
C54   H26   S    
C24   H12   S    
C32   H17   S    
C29   C32   S    
C31   C32   S    
O4    V1    S    
O3    V1    S    
V1    O10   S    
C46   H20   S    
C30   C31   S    
C31   C34   S    
H19   C44   S    
C55   O24   D    
O18   V4    S    
O7    V2    S    
C38   C39   A    
C39   H22   S    
C21   C24   S    
C27   C30   S    
C2    C36   S    
C40   C41   A    
O22   H25   S    
C5    C17   A    
C35   C43   A    
C7    C8    A    
O16   V4    S    
C19   C26   S    
H2    C14   S    
