data_str_m9_o3_o18_f0_sra.sym.128
_audit_creation_date              2012-12-11T16:44:13-0500
_audit_creation_method            fapswitch 2.2
_symmetry_space_group_name_H-M    P1
_symmetry_Int_Tables_number       1
_space_group_crystal_system       triclinic
_cell_length_a                    27.775158
_cell_length_b                    7.198388
_cell_length_c                    22.314314
_cell_angle_alpha                 90.035901
_cell_angle_beta                  101.729415
_cell_angle_gamma                 90.062432
_cell_volume                      4368.27728254

loop_
_atom_site_label
_atom_site_type_symbol
_atom_type_description
_atom_site_fract_x
_atom_site_fract_y
_atom_site_fract_z
_atom_type_partial_charge
O1    O     O_R   0.707300 0.594030 0.176840 -0.529088
O2    O     O_R   0.292700 0.405970 0.823160 -0.529086
O3    O     O_R   0.792700 0.094030 0.323160 -0.529122
O4    O     O_R   0.207300 0.905970 0.676840 -0.529123
O5    O     O_R   0.697330 0.262360 0.295660 -0.539538
O6    O     O_R   0.302670 0.737640 0.704340 -0.539556
O7    O     O_R   0.802670 0.762360 0.204340 -0.539344
O8    O     O_R   0.197330 0.237640 0.795660 -0.539350
C1    C     C_R   0.684156 0.434201 0.311161 0.677647
C2    C     C_R   0.315838 0.565800 0.688832 0.677663
C3    C     C_R   0.815880 0.934288 0.188899 0.677495
C4    C     C_R   0.184121 0.065712 0.811103 0.677505
O9    O     O_R   0.701410 0.264250 0.175600 -0.533242
O10   O     O_R   0.298590 0.735750 0.824400 -0.533238
O11   O     O_R   0.798590 0.764250 0.324400 -0.533201
O12   O     O_R   0.201410 0.235750 0.675600 -0.533202
O13   O     O_R   0.796800 0.094950 0.202240 -0.533544
O14   O     O_R   0.203200 0.905050 0.797760 -0.533538
O15   O     O_R   0.703200 0.594950 0.297760 -0.533519
O16   O     O_R   0.296800 0.405050 0.702240 -0.533510
C5    C     C_R   0.689581 0.432855 0.152717 0.696526
C6    C     C_R   0.310418 0.567145 0.847284 0.696525
C7    C     C_R   0.810372 0.933138 0.347302 0.696268
C8    C     C_R   0.189631 0.066859 0.652695 0.696249
O17   O     O_3   0.781290 0.427390 0.258880 -0.371356
O18   O     O_3   0.218710 0.572610 0.741120 -0.371354
O19   O     O_3   0.718710 0.927390 0.241120 -0.371497
O20   O     O_3   0.281290 0.072610 0.758880 -0.371502
V1    V     V_3+5 0.744190 0.152150 0.248350 1.397909
V2    V     V_3+5 0.255810 0.847850 0.751650 1.397900
V3    V     V_3+5 0.755810 0.652150 0.251650 1.398204
V4    V     V_3+5 0.244190 0.347850 0.748350 1.398224
C9    C     C_R   0.154492 0.056536 0.592322 -0.051273
C10   C     C_R   0.845513 0.943411 0.407676 -0.051289
C11   C     C_R   0.345621 0.558267 0.907646 -0.051707
C12   C     C_R   0.654377 0.441720 0.092358 -0.051705
C13   C     C_R   0.138286 0.043330 0.481368 -0.165808
C14   C     C_R   0.861727 0.955906 0.518639 -0.165783
C15   C     C_R   0.362127 0.558223 0.018698 -0.165553
C16   C     C_R   0.637866 0.441580 0.981306 -0.165555
C17   C     C_R   0.171565 0.059746 0.537229 0.165419
C18   C     C_R   0.828451 0.939566 0.462773 0.165411
C19   C     C_R   0.328810 0.571311 0.962774 0.165354
C20   C     C_R   0.671183 0.428517 0.037230 0.165353
C21   C     C_R   0.103670 0.037580 0.589809 -0.245256
C22   C     C_R   0.896325 0.962765 0.410193 -0.245303
C23   C     C_R   0.396285 0.534086 0.910177 -0.245476
C24   C     C_R   0.603716 0.466006 0.089826 -0.245500
C25   C     C_R   0.068710 0.024059 0.532912 0.077291
C26   C     C_R   0.931289 0.975917 0.467096 0.077299
C27   C     C_R   0.431345 0.525316 0.967095 0.077323
C28   C     C_R   0.568654 0.474689 0.032908 0.077325
C29   C     C_R   0.087151 0.025482 0.477832 0.052379
C30   C     C_R   0.912853 0.974112 0.522177 0.052380
C31   C     C_R   0.413108 0.535226 0.022235 0.052360
C32   C     C_R   0.586888 0.464675 0.977769 0.052364
C33   C     C_R   0.016368 0.008491 0.529066 0.029123
C34   C     C_R   0.983630 0.991455 0.470944 0.029124
C35   C     C_R   0.483596 0.506513 0.970912 0.029132
C36   C     C_R   0.516403 0.493489 0.029091 0.029132
C37   C     C_R   0.004035 0.989587 0.418139 -0.183915
C38   C     C_R   0.995966 0.010089 0.581875 -0.183902
C39   C     C_R   0.496145 0.498393 0.081989 -0.183914
C40   C     C_R   0.503854 0.501547 0.918014 -0.183911
C41   C     C_R   0.054589 0.008717 0.420054 0.069475
C42   C     C_R   0.945415 0.990798 0.579959 0.069466
C43   C     C_R   0.445717 0.521667 0.080069 0.069464
C44   C     C_R   0.554280 0.478217 0.919935 0.069459
H1    H     H_    0.906764 0.968327 0.366390 0.096634
H2    H     H_    0.093224 0.032674 0.633614 0.096599
H3    H     H_    0.593450 0.478465 0.133596 0.096988
H4    H     H_    0.406554 0.521789 0.866405 0.096976
H5    H     H_    0.153312 0.046227 0.440376 0.112966
H6    H     H_    0.846707 0.952616 0.559633 0.112951
H7    H     H_    0.347274 0.568001 0.059720 0.112852
H8    H     H_    0.652717 0.431700 0.940285 0.112852
H9    H     H_    0.980708 0.971886 0.374289 0.117885
H10   H     H_    0.019297 0.027461 0.625736 0.117879
H11   H     H_    0.519489 0.482759 0.125914 0.117821
H12   H     H_    0.480509 0.517117 0.874088 0.117820
C45   C     C_R   0.867695 0.122724 0.125849 0.155092
C46   C     C_R   0.132312 0.877273 0.874158 0.155092
C47   C     C_R   0.632518 0.622521 0.374390 0.154949
C48   C     C_R   0.367451 0.377474 0.625574 0.154935
C49   C     C_R   0.903669 0.126592 0.089870 -0.135424
C50   C     C_R   0.096338 0.873400 0.910139 -0.135433
C51   C     C_R   0.596504 0.626465 0.410309 -0.136129
C52   C     C_R   0.403461 0.373513 0.589649 -0.136150
H13   H     H_    0.910957 0.255476 0.068233 0.106282
H14   H     H_    0.089052 0.744515 0.931776 0.106285
H15   H     H_    0.589259 0.755421 0.431949 0.106506
H16   H     H_    0.410698 0.244555 0.568004 0.106512
C53   C     C_R   0.930100 0.968108 0.080526 0.050891
C54   C     C_R   0.069906 0.031882 0.919483 0.050892
C55   C     C_R   0.569999 0.467941 0.419615 0.050727
C56   C     C_R   0.429969 0.532025 0.580340 0.050731
C57   C     C_R   0.920365 0.801585 0.108630 -0.153765
C58   C     C_R   0.079640 0.198406 0.891379 -0.153746
C59   C     C_R   0.579723 0.301271 0.391568 -0.152707
C60   C     C_R   0.420252 0.698702 0.608388 -0.152690
H17   H     H_    0.941030 0.677197 0.103416 0.112319
H18   H     H_    0.058974 0.322793 0.896595 0.112317
H19   H     H_    0.559035 0.176807 0.396805 0.112248
H20   H     H_    0.440942 0.823159 0.603145 0.112246
C61   C     C_R   0.884384 0.794605 0.144680 -0.211970
C62   C     C_R   0.115620 0.205392 0.855327 -0.211978
C63   C     C_R   0.615716 0.294222 0.355539 -0.212138
C64   C     C_R   0.384266 0.705769 0.644427 -0.212141
H21   H     H_    0.879215 0.666281 0.167449 0.137045
H22   H     H_    0.120788 0.333719 0.832560 0.137044
H23   H     H_    0.620891 0.165694 0.332852 0.136983
H24   H     H_    0.379096 0.834308 0.667110 0.136976
C65   C     C_R   0.856143 0.951667 0.152687 -0.065297
C66   C     C_R   0.143860 0.048331 0.847318 -0.065298
C67   C     C_R   0.643968 0.451424 0.347480 -0.065299
C68   C     C_R   0.356015 0.548573 0.652495 -0.065294
C69   C     C_R   0.969838 0.842789 0.997035 -0.146889
C70   C     C_R   0.030169 0.157197 0.002976 -0.146894
C71   C     C_R   0.530116 0.342927 0.503027 -0.146499
C72   C     C_R   0.469846 0.657021 0.496920 -0.146503
H25   H     H_    0.946134 0.721953 0.993083 0.110062
H26   H     H_    0.053873 0.278032 0.006927 0.110061
H27   H     H_    0.553793 0.222220 0.507042 0.109995
H28   H     H_    0.446170 0.777729 0.492906 0.109994
C73   C     C_R   0.002092 0.862234 0.956661 -0.162158
C74   C     C_R   0.997915 0.137751 0.043349 -0.162150
C75   C     C_R   0.497796 0.362440 0.543313 -0.162583
C76   C     C_R   0.502165 0.637507 0.456634 -0.162590
H29   H     H_    0.002752 0.754336 0.922998 0.107665
H30   H     H_    0.997255 0.245649 0.077012 0.107666
H31   H     H_    0.497063 0.254731 0.576977 0.107380
H32   H     H_    0.502898 0.745217 0.422970 0.107381
C77   C     C_R   0.032836 0.019356 0.959261 0.089780
C78   C     C_R   0.967172 0.980630 0.040749 0.089775
C79   C     C_R   0.467085 0.519407 0.540630 0.090080
C80   C     C_R   0.532878 0.480544 0.459319 0.090075
C81   C     C_3   0.074475 0.011153 0.360657 -0.364216
C82   C     C_3   0.036560 0.995058 0.299981 -0.316458
C83   C     C_3   0.061346 0.003574 0.244915 -0.758160
H33   H     H_    0.080942 0.137926 0.244246 0.226371
H34   H     H_    0.087940 0.887607 0.246613 0.227360
H35   H     H_    0.033073 0.991350 0.202027 0.224610
H36   H     H_    0.016672 0.860412 0.298327 0.196184
H37   H     H_    0.009771 0.111303 0.296087 0.196613
H38   H     H_    0.094710 0.143919 0.359163 0.176307
H39   H     H_    0.100815 0.894104 0.362340 0.175322
C84   C     C_3   0.925530 0.988100 0.639356 -0.364215
C85   C     C_3   0.963436 0.004380 0.700033 -0.316458
C86   C     C_3   0.938646 0.995824 0.755095 -0.758163
H40   H     H_    0.912026 0.111713 0.753380 0.227356
H41   H     H_    0.919077 0.861416 0.755776 0.226376
H42   H     H_    0.966912 0.008156 0.797985 0.224604
H43   H     H_    0.990255 0.888228 0.703950 0.196588
H44   H     H_    0.983290 0.139095 0.701669 0.196211
H45   H     H_    0.899136 0.104968 0.637679 0.175358
H46   H     H_    0.905356 0.855190 0.640840 0.176274
C87   C     C_3   0.426009 0.531751 0.139514 -0.364213
C88   C     C_3   0.463934 0.517159 0.200212 -0.316288
C89   C     C_3   0.439338 0.532694 0.255296 -0.758362
H47   H     H_    0.420547 0.668907 0.255088 0.226217
H48   H     H_    0.412079 0.419205 0.254471 0.227643
H49   H     H_    0.467609 0.521362 0.298202 0.224220
H50   H     H_    0.483022 0.380826 0.202742 0.196398
H51   H     H_    0.491391 0.631102 0.203229 0.196381
H52   H     H_    0.406643 0.666694 0.140056 0.176333
H53   H     H_    0.398939 0.417405 0.138797 0.175309
C90   C     C_3   0.573987 0.468047 0.860490 -0.364209
C91   C     C_3   0.536065 0.482688 0.799792 -0.316294
C92   C     C_3   0.560661 0.467100 0.744710 -0.758373
H54   H     H_    0.587934 0.580539 0.745537 0.227645
H55   H     H_    0.579435 0.330853 0.744916 0.226221
H56   H     H_    0.532392 0.478475 0.701803 0.224215
H57   H     H_    0.508595 0.368790 0.796772 0.196376
H58   H     H_    0.516992 0.619053 0.797262 0.196403
H59   H     H_    0.601073 0.582334 0.861205 0.175315
H60   H     H_    0.593333 0.333060 0.859954 0.176330
C93   C     C_3   0.774891 0.913458 0.463219 -0.813088
H61   H     H_    0.764437 0.769762 0.448000 0.205754
H62   H     H_    0.766885 0.931209 0.509670 0.209549
H63   H     H_    0.752547 0.016876 0.432698 0.206418
C94   C     C_3   0.225139 0.085377 0.536768 -0.813169
H64   H     H_    0.235630 0.229233 0.551753 0.205712
H65   H     H_    0.247452 0.982283 0.567463 0.206521
H66   H     H_    0.233152 0.066790 0.490353 0.209556
C95   C     C_3   0.724544 0.397022 0.036922 -0.812187
H67   H     H_    0.734616 0.255897 0.055057 0.206528
H68   H     H_    0.732372 0.404238 0.990106 0.209494
H69   H     H_    0.747295 0.504634 0.065163 0.204998
C96   C     C_3   0.275445 0.602695 0.963085 -0.812208
H70   H     H_    0.265367 0.743869 0.945002 0.206512
H71   H     H_    0.252702 0.495146 0.934803 0.205022
H72   H     H_    0.267613 0.595292 0.009897 0.209497
C97   C     C_3   0.844200 0.306088 0.135030 -0.741398
H73   H     H_    0.804008 0.295712 0.121828 0.218606
H74   H     H_    0.855169 0.349322 0.183659 0.214149
H75   H     H_    0.855043 0.416973 0.105898 0.182485
C98   C     C_3   0.155810 0.693913 0.864980 -0.741399
H76   H     H_    0.196002 0.704305 0.878178 0.218600
H77   H     H_    0.144970 0.583029 0.894115 0.182491
H78   H     H_    0.144840 0.650669 0.816352 0.214153
C99   C     C_3   0.656245 0.805777 0.365434 -0.741593
H79   H     H_    0.696436 0.794887 0.378600 0.218283
H80   H     H_    0.645321 0.849341 0.316862 0.214338
H81   H     H_    0.645550 0.916674 0.394689 0.182865
C100  C     C_3   0.343707 0.194240 0.634516 -0.741606
H82   H     H_    0.303515 0.205203 0.621360 0.218254
H83   H     H_    0.354387 0.083342 0.605249 0.182893
H84   H     H_    0.354632 0.150626 0.683083 0.214361

loop_
_geom_bond_atom_site_label_1
_geom_bond_atom_site_label_2
_ccdc_geom_bond_type
O17   V3    S    
C59   H19   S    
C52   C56   A    
O1    C5    A    
C87   C88   S    
C51   H15   S    
O19   V1    S    
C9    C21   A    
C99   H79   S    
O12   C8    A    
O3    C7    A    
C84   C85   S    
C10   C18   A    
C60   H20   S    
C47   C99   S    
C11   C23   A    
C99   H80   S    
C25   C33   A    
C33   C38   A    
C5    C12   S    
C39   H11   S    
C100  H82   S    
O7    C3    A    
C6    C11   S    
C35   C40   A    
C26   C30   A    
C62   C66   A    
C36   C39   A    
C40   C44   A    
C61   C65   A    
C75   C79   A    
C14   C18   A    
C82   H36   S    
C86   H41   S    
C62   H22   S    
O4    C8    A    
C83   H35   S    
C55   C59   A    
C94   H66   S    
C54   C58   A    
C18   C93   S    
C73   C77   A    
C94   H64   S    
O1    V3    S    
C54   C77   S    
O13   V1    S    
O2    V4    S    
C70   H26   S    
O3    V1    S    
C69   H25   S    
C22   H1    S    
C13   H5    S    
C50   C54   A    
C49   C53   A    
C48   C100  S    
C1    O15   A    
C15   C31   A    
C52   H16   S    
C96   H72   S    
C2    O16   A    
C93   H62   S    
C51   C55   A    
O2    C6    A    
C89   H48   S    
C10   C22   A    
C15   H7    S    
C11   C19   A    
C16   C20   A    
O5    V1    S    
C88   H51   S    
C20   C95   S    
C13   C29   A    
C7    C10   S    
C34   C37   A    
O11   C7    A    
O15   V3    S    
C35   C36   A    
C48   C68   A    
C40   H12   S    
C17   C94   S    
C96   H70   S    
C85   H44   S    
O10   V2    S    
C69   C78   A    
C76   H32   S    
C45   C49   A    
C56   C79   S    
C4    C66   S    
C94   H65   S    
C91   H57   S    
C39   C43   A    
C60   C64   A    
O7    V3    S    
C38   C42   A    
O8    V4    S    
C92   H54   S    
C47   C67   A    
C81   H39   S    
C85   C86   S    
C46   C66   A    
C46   C98   S    
C53   C78   S    
C50   H14   S    
C86   H42   S    
C87   H52   S    
C90   C91   S    
C49   H13   S    
O18   V4    S    
C95   H69   S    
C23   C27   A    
C16   C32   A    
C32   C44   A    
O4    V2    S    
C64   H24   S    
C72   H28   S    
C1    C67   S    
C87   H53   S    
C98   H78   S    
C91   H58   S    
O5    C1    A    
C73   H29   S    
C31   C43   A    
C89   H47   S    
C14   C30   A    
C21   C25   A    
O8    C4    A    
C97   H75   S    
C97   H74   S    
C89   H49   S    
O9    C5    A    
C43   C87   S    
C98   H77   S    
C84   H46   S    
C63   C67   A    
C42   C84   S    
C70   C77   A    
C88   H50   S    
O14   V2    S    
C26   C34   A    
O6    V2    S    
C97   H73   S    
C37   H9    S    
C88   C89   S    
C92   H56   S    
C12   C20   A    
C27   C35   A    
C85   H43   S    
O9    V1    S    
C24   H3    S    
C45   C65   A    
C53   C57   A    
C29   C41   A    
C90   H59   S    
O16   V4    S    
C100  H84   S    
C81   H38   S    
C61   H21   S    
C91   C92   S    
C21   H2    S    
C63   H23   S    
C57   C61   A    
C38   H10   S    
C48   C52   A    
C93   H63   S    
C3    O13   A    
C47   C51   A    
O6    C2    A    
C15   C19   A    
C83   H33   S    
C72   C76   A    
C19   C96   S    
O11   V3    S    
C30   C42   A    
C71   H27   S    
C84   H45   S    
O12   V4    S    
C59   C63   A    
C81   C82   S    
C22   C26   A    
C8    C9    S    
C58   C62   A    
C72   C79   A    
C9    C17   A    
C64   C68   A    
C76   C80   A    
C41   C81   S    
C58   H18   S    
C86   H40   S    
C71   C80   A    
C46   C50   A    
C83   H34   S    
O10   C6    A    
C95   H67   S    
C25   C29   A    
C56   C60   A    
O20   V2    S    
C55   C80   S    
C99   H81   S    
C14   H6    S    
C12   C24   A    
C27   C31   A    
C37   C41   A    
C13   C17   A    
C98   H76   S    
C3    C65   S    
C2    C68   S    
C75   H31   S    
C23   H4    S    
C95   H68   S    
C82   C83   S    
C45   C97   S    
C44   C90   S    
C16   H8    S    
C24   C28   A    
C74   C78   A    
C28   C36   A    
C93   H61   S    
C4    O14   A    
C74   H30   S    
C82   H37   S    
C70   C74   A    
C96   H71   S    
C33   C34   A    
C100  H83   S    
C69   C73   A    
C57   H17   S    
C28   C32   A    
C90   H60   S    
C92   H55   S    
C71   C75   A    
