data_str_m3_o5_o28_f0_pcu.sym.3
_audit_creation_date              2013-03-05T16:48:15-0500
_audit_creation_method            fapswitch 2.2
_symmetry_space_group_name_H-M    P1
_symmetry_Int_Tables_number       1
_space_group_crystal_system       triclinic
_cell_length_a                    23.341882
_cell_length_b                    8.910758
_cell_length_c                    8.108717
_cell_angle_alpha                 89.679852
_cell_angle_beta                  89.478671
_cell_angle_gamma                 89.632333
_cell_volume                      1686.43304205

loop_
_atom_site_label
_atom_site_type_symbol
_atom_site_description
_atom_site_fract_x
_atom_site_fract_y
_atom_site_fract_z
_atom_type_partial_charge
O1    O     O_R   0.500000 0.285350 0.636850 -0.614041
O2    O     O_R   0.500000 0.714650 0.363150 -0.616730
O3    O     O_R   0.500000 0.714650 0.636850 -0.615922
O4    O     O_R   0.500000 0.285350 0.363150 -0.616208
C1    C     C_R   0.500039 0.218041 0.500289 0.940370
C2    C     C_R   0.499975 0.781960 0.499707 0.937999
O5    O     O_R   0.416160 0.500000 0.636910 -0.623589
O6    O     O_R   0.583840 0.500000 0.363090 -0.621457
O7    O     O_R   0.583840 0.500000 0.636910 -0.621602
O8    O     O_R   0.416160 0.500000 0.363090 -0.621664
C3    C     C_R   0.207938 0.549790 0.471421 0.067449
C4    C     C_R   0.791617 0.456976 0.476274 0.144445
C5    C     C_R   0.388884 0.504281 0.500192 0.932266
C6    C     C_R   0.610995 0.496791 0.499068 0.926107
Zn1   Zn    Zn3+2 0.500000 0.500000 0.682780 0.989482
Zn2   Zn    Zn3+2 0.500000 0.500000 0.317220 0.987448
C7    C     C_R   0.301774 0.569759 0.347470 -0.336866
C8    C     C_R   0.699119 0.408575 0.360075 -0.328291
C9    C     C_R   0.292494 0.503076 0.636569 -0.274816
C10   C     C_R   0.706212 0.534780 0.623931 -0.316823
H1    H     H_    0.328117 0.589000 0.238923 0.188518
H2    H     H_    0.673435 0.366790 0.259883 0.180156
H3    H     H_    0.311636 0.471034 0.752895 0.195043
H4    H     H_    0.686089 0.591953 0.727038 0.182302
C11   C     C_R   0.326782 0.524788 0.496129 -0.185746
C12   C     C_R   0.672989 0.479978 0.495079 -0.159108
C13   C     C_R   0.875521 0.587212 0.385727 0.586726
C14   C     C_R   0.124733 0.391944 0.478354 0.603784
C15   C     C_R   0.884388 0.343664 0.507827 0.573201
C16   C     C_R   0.114581 0.648950 0.400072 0.564741
N1    N     N_R   0.852238 0.462374 0.456091 -0.314427
N2    N     N_R   0.147678 0.530046 0.448066 -0.342028
C17   C     C_R   0.944489 0.348750 0.495630 -0.034879
C18   C     C_R   0.055577 0.630287 0.375794 -0.074801
C19   C     C_R   0.935390 0.600977 0.371016 -0.074771
C20   C     C_R   0.064953 0.373590 0.483003 -0.055662
C21   C     C_R   0.969986 0.481000 0.430879 -0.075593
C22   C     C_R   0.030127 0.494460 0.428832 -0.104381
C23   C     C_R   0.979427 0.227942 0.550006 0.058479
C24   C     C_R   0.021629 0.743751 0.303083 0.116510
C25   C     C_R   0.961931 0.729625 0.299842 0.042960
C26   C     C_R   0.039503 0.240449 0.543820 0.067213
C27   C     C_1   0.500024 0.065239 0.500413 -0.188742
C28   C     C_1   0.500000 0.934761 0.499575 -0.188920
C29   C     C_R   0.242612 0.586949 0.335059 0.547138
C30   C     C_R   0.758586 0.392911 0.352267 0.501435
C31   C     C_R   0.233007 0.517733 0.626792 0.517116
C32   C     C_R   0.765899 0.523247 0.615336 0.497717
N3    N     N_1   0.500000 0.500000 0.073640 -0.035682
N4    N     N_1   0.500000 0.500000 0.926360 -0.034732
O9    O     O_2   0.840109 0.697316 0.333287 -0.585419
O10   O     O_2   0.160106 0.274211 0.505881 -0.490853
O11   O     O_2   0.857670 0.222808 0.572576 -0.558581
O12   O     O_2   0.138628 0.785404 0.381969 -0.530754
N5    N     N_3   0.953987 0.092790 0.613650 -0.378815
H5    H     H_    0.968020 0.001677 0.543211 0.177352
H6    H     H_    0.966578 0.076855 0.735869 0.185773
N6    N     N_3   0.047947 0.871361 0.224922 -0.381601
H7    H     H_    0.037594 0.870633 0.099717 0.188860
H8    H     H_    0.030933 0.969264 0.276814 0.196858
N7    N     N_3   0.930062 0.848545 0.222192 -0.469300
H9    H     H_    0.904530 0.903355 0.309892 0.253432
H10   H     H_    0.905292 0.804672 0.127360 0.234880
N8    N     N_3   0.074593 0.121379 0.609143 -0.363483
H11   H     H_    0.064774 0.106256 0.734106 0.179289
H12   H     H_    0.066352 0.022037 0.546253 0.205416
O13   O     O_3   0.217392 0.625340 0.186437 -0.594173
C33   C     C_3   0.240805 0.760521 0.123928 -0.217354
H13   H     H_    0.278450 0.735955 0.043559 0.152121
H14   H     H_    0.252578 0.841288 0.222462 0.175372
H15   H     H_    0.208094 0.817737 0.047403 0.190790
O14   O     O_3   0.785615 0.330725 0.215991 -0.638280
C34   C     C_3   0.772536 0.176665 0.207428 -0.275415
H16   H     H_    0.727613 0.159525 0.167874 0.158965
H17   H     H_    0.780611 0.117759 0.326618 0.208413
H18   H     H_    0.800884 0.124305 0.113152 0.205681
O15   O     O_3   0.200617 0.482832 0.766127 -0.567014
C35   C     C_3   0.162773 0.601918 0.806264 -0.227544
H19   H     H_    0.121362 0.589919 0.742348 0.140027
H20   H     H_    0.181377 0.714739 0.781086 0.140790
H21   H     H_    0.152305 0.594803 0.939458 0.235908
O16   O     O_3   0.799768 0.590988 0.732146 -0.611038
C36   C     C_3   0.796925 0.506871 0.879665 -0.191265
H22   H     H_    0.809398 0.387487 0.859206 0.188863
H23   H     H_    0.753580 0.513994 0.937269 0.176197
H24   H     H_    0.827734 0.554592 0.968302 0.214777

loop_
_geom_bond_atom_site_label_1
_geom_bond_atom_site_label_2
_geom_bond_distance
_ccdc_geom_bond_type
N5    H5    1.044537 S    
C34   H16   1.111066 S    
C20   C26   1.414494 A    
C8    C12   1.402093 A    
C25   N7    1.436539 S    
C4    C32   1.403989 A    
O3    C2    1.260534 A    
O15   C35   1.413796 S    
C16   O12   1.349188 S    
C17   C23   1.417144 A    
C15   O11   1.349331 S    
C18   C24   1.410428 A    
C19   C21   1.421599 A    
C7    C29   1.392917 A    
C35   H20   1.114732 S    
N6    H8    1.045206 S    
C15   C17   1.406450 A    
Zn1   N4    1.975121 S    
N7    H10   1.045368 S    
C3    C31   1.420728 A    
C23   N5    1.437346 S    
C10   H4    1.083378 S    
C33   H13   1.110608 S    
C29   O13   1.386241 S    
O1    Zn1   1.950658 S    
O2    Zn2   1.950657 S    
C30   O14   1.384144 S    
O5    Zn1   1.995341 S    
C1    C27   1.361579 S    
O6    Zn2   1.995338 S    
C2    C28   1.361572 S    
C34   H17   1.114219 S    
C5    C11   1.460544 S    
O2    C2    1.262246 A    
C9    C11   1.399201 A    
C8    C30   1.395079 A    
C13   O9    1.348323 S    
C23   C26   1.407836 A    
C24   N6    1.437316 S    
C16   C18   1.404099 A    
C13   N1    1.361382 A    
O13   C33   1.415327 S    
C14   N2    1.365348 A    
Zn2   N3    1.975121 S    
C4    C30   1.399148 A    
O7    C6    1.280282 A    
C35   H19   1.106994 S    
O4    C1    1.260510 A    
C13   C19   1.407516 A    
N6    H7    1.045809 S    
C17   C21   1.419516 A    
C18   C22   1.414734 A    
O4    Zn2   1.946573 S    
C9    H3    1.083474 S    
C27   C28   1.162720 T    
C21   C22   1.409636 A    
C36   H22   1.114030 S    
C6    C12   1.453918 S    
C10   C32   1.397460 A    
C24   C25   1.400442 A    
C36   H23   1.112103 S    
C3    N2    1.433087 S    
N3    N4    1.194251 T    
N5    H6    1.044935 S    
C4    N1    1.424060 S    
C34   H18   1.109387 S    
O1    C1    1.262266 A    
C3    C29   1.403707 A    
C31   O15   1.388668 S    
C26   N8    1.437927 S    
O3    Zn1   1.946572 S    
O6    C6    1.276895 A    
C8    H2    1.083136 S    
O14   C34   1.410464 S    
O8    C5    1.276710 A    
C7    C11   1.399574 A    
N8    H11   1.045026 S    
C20   C22   1.415534 A    
O7    Zn1   1.988689 S    
C15   N1    1.359656 A    
O8    Zn2   1.988691 S    
C16   N2    1.364274 A    
C14   O10   1.349719 S    
C35   H21   1.106717 S    
C10   C12   1.398860 A    
C33   H15   1.108194 S    
C32   O16   1.382988 S    
C9    C31   1.396762 A    
N7    H9    1.044920 S    
C19   C25   1.423461 A    
C7    H1    1.082603 S    
O5    C5    1.283692 A    
C36   H24   1.109640 S    
C14   C20   1.406124 A    
C33   H14   1.115712 S    
O16   C36   1.409348 S    
N8    H12   1.043878 S    
