data_str_m4_o17_o17_f0_acs.sym.26
_audit_creation_date              2012-12-11T14:30:11-0500
_audit_creation_method            fapswitch 2.2
_symmetry_space_group_name_H-M    P1
_symmetry_Int_Tables_number       1
_space_group_crystal_system       triclinic
_cell_length_a                    12.927373
_cell_length_b                    12.92735
_cell_length_c                    27.246091
_cell_angle_alpha                 89.999332
_cell_angle_beta                  90.000069
_cell_angle_gamma                 120.000115
_cell_volume                      3943.24824152

loop_
_atom_site_label
_atom_site_type_symbol
_atom_type_description
_atom_site_fract_x
_atom_site_fract_y
_atom_site_fract_z
_atom_type_partial_charge
Br1   Br    Br    0.969172 0.796053 0.059255 -0.574526
Br2   Br    Br    0.796036 0.969155 0.940739 -0.574550
Br3   Br    Br    0.986934 0.818540 0.560689 -0.482561
Br4   Br    Br    0.173118 0.203990 0.940738 -0.574581
Br5   Br    Br    0.818538 0.986932 0.439309 -0.482564
Br6   Br    Br    0.203959 0.173121 0.059266 -0.574553
Br7   Br    Br    0.013066 0.831605 0.439306 -0.482569
Br8   Br    Br    0.826883 0.030842 0.059269 -0.574582
Br9   Br    Br    0.168394 0.181460 0.439310 -0.482561
Br10  Br    Br    0.831605 0.013068 0.560691 -0.482565
Br11  Br    Br    0.030878 0.826896 0.940722 -0.574544
Br12  Br    Br    0.181461 0.168395 0.560693 -0.482569
C1    C     C_R   0.561400 0.455617 0.822742 0.524475
C2    C     C_R   0.455617 0.561397 0.177259 0.524470
C3    C     C_R   0.995826 0.318166 0.474592 -0.099525
C4    C     C_R   0.302964 0.988164 0.024301 -0.085304
C5    C     C_R   0.681835 0.677657 0.474590 -0.099525
C6    C     C_R   0.318166 0.995825 0.525409 -0.099525
C7    C     C_R   0.988132 0.302949 0.975703 -0.085291
C8    C     C_R   0.677659 0.681834 0.525408 -0.099524
C9    C     C_R   0.314826 0.011885 0.975704 -0.085283
C10   C     C_R   0.004179 0.322343 0.525411 -0.099525
C11   C     C_R   0.697064 0.685184 0.975704 -0.085296
C12   C     C_3   0.138365 0.376414 0.113140 -0.239726
C13   C     C_R   0.441592 0.897655 0.322313 0.536895
C14   C     C_3   0.068254 0.260234 0.142882 -0.350638
C15   C     C_3   0.355324 0.061818 0.367403 -0.248082
C16   C     C_3   0.440861 0.156619 0.331155 -0.430435
C17   C     C_3   0.623572 0.761951 0.113136 -0.239728
C18   C     C_3   0.739754 0.808049 0.142878 -0.350623
C19   C     C_3   0.938181 0.293504 0.367405 -0.248083
C20   C     C_3   0.843380 0.284240 0.331158 -0.430434
C21   C     C_3   0.238053 0.861645 0.113140 -0.239725
C22   C     C_3   0.191971 0.931744 0.142881 -0.350639
C23   C     C_3   0.706494 0.644672 0.367402 -0.248083
C24   C     C_R   0.105782 0.544384 0.177258 0.524472
C25   C     C_3   0.715755 0.559133 0.331155 -0.430435
C26   C     C_3   0.293505 0.938182 0.632597 -0.248081
C27   C     C_3   0.284241 0.843382 0.668845 -0.430433
C28   C     C_3   0.861628 0.238046 0.886861 -0.239727
C29   C     C_3   0.931723 0.191954 0.857123 -0.350627
C30   C     C_3   0.644677 0.706496 0.632595 -0.248083
C31   C     C_3   0.559140 0.715760 0.668842 -0.430435
C32   C     C_3   0.376403 0.138358 0.886856 -0.239733
C33   C     C_3   0.260249 0.068213 0.857105 -0.350644
C34   C     C_3   0.061824 0.355330 0.632598 -0.248084
C35   C     C_R   0.993204 0.492532 0.974354 0.012301
C36   C     C_3   0.156623 0.440869 0.668845 -0.430436
C37   C     C_3   0.761963 0.623596 0.886858 -0.239728
C38   C     C_3   0.808029 0.739778 0.857118 -0.350641
C39   C     C_R   0.509106 0.003682 0.526011 0.012085
C40   C     C_R   0.507489 0.500664 0.974360 0.012305
C41   C     C_R   0.996319 0.505426 0.526011 0.012085
C42   C     C_R   0.499347 0.006834 0.974361 0.012302
C43   C     C_R   0.494575 0.490893 0.526011 0.012085
C44   C     C_R   0.505425 0.996318 0.473989 0.012085
C45   C     C_R   0.897656 0.441593 0.677687 0.536895
C46   C     C_R   0.006817 0.499341 0.025640 0.012303
C47   C     C_R   0.490893 0.494574 0.473989 0.012085
C48   C     C_R   0.492539 0.993219 0.025647 0.012301
C49   C     C_R   0.003682 0.509107 0.473989 0.012085
C50   C     C_R   0.500681 0.507469 0.025645 0.012302
C51   C     C_R   0.004839 0.685195 0.974119 0.169805
C52   C     C_R   0.699885 0.008959 0.525770 0.169228
C53   C     C_R   0.314826 0.319639 0.974129 0.169799
C54   C     C_R   0.991042 0.690927 0.525769 0.169229
C55   C     C_R   0.680371 0.995193 0.974130 0.169801
C56   C     C_R   0.544384 0.105783 0.822742 0.524479
C57   C     C_R   0.309072 0.300115 0.525771 0.169227
C58   C     C_R   0.690926 0.991042 0.474230 0.169229
C59   C     C_R   0.995205 0.680381 0.025867 0.169791
C60   C     C_R   0.300114 0.309072 0.474231 0.169229
C61   C     C_R   0.685189 0.004827 0.025878 0.169797
C62   C     C_R   0.008958 0.699885 0.474229 0.169227
C63   C     C_R   0.319640 0.314819 0.025876 0.169806
C64   C     C_R   0.982410 0.575716 0.896073 -0.158791
C65   C     C_R   0.618583 0.043993 0.602663 -0.133509
C66   C     C_R   0.424296 0.406687 0.896079 -0.158794
C67   C     C_R   0.558408 0.456063 0.677687 0.536899
C68   C     C_R   0.956008 0.574592 0.602662 -0.133509
C69   C     C_R   0.593320 0.017612 0.896081 -0.158792
C70   C     C_R   0.425409 0.381418 0.602664 -0.133509
C71   C     C_R   0.574590 0.956007 0.397337 -0.133509
C72   C     C_R   0.017614 0.593327 0.103919 -0.158791
C73   C     C_R   0.381416 0.425408 0.397337 -0.133509
C74   C     C_R   0.575719 0.982407 0.103926 -0.158788
C75   C     C_R   0.043991 0.618582 0.397336 -0.133509
C76   C     C_R   0.406688 0.424284 0.103925 -0.158790
C77   C     C_R   0.057002 0.521020 0.126573 -0.011510
C78   C     C_R   0.894221 0.438602 0.822741 0.524468
C79   C     C_R   0.481436 0.958763 0.371305 -0.003095
C80   C     C_R   0.478989 0.535981 0.126576 -0.011511
C81   C     C_R   0.041235 0.522671 0.371305 -0.003095
C82   C     C_R   0.464021 0.943012 0.126577 -0.011509
C83   C     C_R   0.477328 0.518562 0.371305 -0.003095
C84   C     C_R   0.522672 0.041237 0.628694 -0.003095
C85   C     C_R   0.943008 0.464017 0.873424 -0.011506
C86   C     C_R   0.518564 0.477329 0.628695 -0.003095
C87   C     C_R   0.521022 0.057011 0.873428 -0.011517
C88   C     C_R   0.958766 0.481438 0.628695 -0.003095
C89   C     C_R   0.543938 0.102345 0.677687 0.536898
C90   C     C_R   0.535992 0.478987 0.873427 -0.011506
C91   C     C_R   0.995668 0.586742 0.947762 -0.009089
C92   C     C_R   0.609276 0.016655 0.551876 -0.014247
C93   C     C_R   0.413277 0.408918 0.947769 -0.009081
C94   C     C_R   0.983346 0.592622 0.551875 -0.014247
C95   C     C_R   0.591092 0.004365 0.947770 -0.009091
C96   C     C_R   0.407378 0.390724 0.551877 -0.014247
C97   C     C_R   0.592621 0.983345 0.448124 -0.014247
C98   C     C_R   0.004364 0.591096 0.052229 -0.009089
C99   C     C_R   0.390724 0.407377 0.448124 -0.014247
C100  C     C_R   0.456062 0.558407 0.322312 0.536896
C101  C     C_R   0.586744 0.995668 0.052237 -0.009088
C102  C     C_R   0.016654 0.609275 0.448123 -0.014247
C103  C     C_R   0.408925 0.413262 0.052236 -0.009086
C104  C     C_R   0.936326 0.368407 0.901921 0.008698
C105  C     C_R   0.411290 0.995778 0.604163 0.012328
C106  C     C_R   0.631604 0.567915 0.901923 0.008691
C107  C     C_R   0.004226 0.415516 0.604163 0.012329
C108  C     C_R   0.432105 0.063706 0.901927 0.008666
C109  C     C_R   0.584487 0.588711 0.604162 0.012326
C110  C     C_R   0.415513 0.004223 0.395837 0.012328
C111  C     C_R   0.438603 0.894222 0.177259 0.524470
C112  C     C_R   0.063682 0.432091 0.098077 0.008682
C113  C     C_R   0.588710 0.584484 0.395837 0.012329
C114  C     C_R   0.368415 0.936338 0.098080 0.008690
C115  C     C_R   0.995776 0.411289 0.395838 0.012326
C116  C     C_R   0.567918 0.631589 0.098078 0.008686
C117  C     C_R   0.976224 0.389538 0.950050 0.023907
C118  C     C_R   0.411276 0.996620 0.552108 0.017265
C119  C     C_R   0.610478 0.586681 0.950053 0.023902
C120  C     C_R   0.003384 0.414659 0.552108 0.017265
C121  C     C_R   0.413335 0.023811 0.950056 0.023913
C122  C     C_R   0.102345 0.543937 0.322313 0.536896
C123  C     C_R   0.585343 0.588724 0.552107 0.017265
C124  C     C_R   0.414657 0.003381 0.447892 0.017266
C125  C     C_R   0.023783 0.413322 0.049948 0.023900
C126  C     C_R   0.588724 0.585341 0.447892 0.017265
C127  C     C_R   0.389549 0.976245 0.049952 0.023901
C128  C     C_R   0.996619 0.411276 0.447893 0.017265
C129  C     C_R   0.586695 0.610457 0.049951 0.023899
C130  C     C_R   0.011854 0.314812 0.024300 -0.085294
C131  C     C_R   0.322341 0.004176 0.474591 -0.099525
C132  C     C_R   0.685200 0.697043 0.024301 -0.085295
Cr1   Cr    Cr6+3 0.487630 0.241180 0.750000 0.999504
Cr2   Cr    Cr6+3 0.753550 0.512370 0.750000 0.999528
Cr3   Cr    Cr6+3 0.758820 0.246450 0.750000 0.999531
Cr4   Cr    Cr6+3 0.241180 0.487630 0.250000 0.999526
Cr5   Cr    Cr6+3 0.512370 0.753550 0.250000 0.999521
Cr6   Cr    Cr6+3 0.246450 0.758820 0.250000 0.999527
H1    H     H_    0.010227 0.658852 0.125957 0.157976
H2    H     H_    0.658837 0.010214 0.874041 0.157975
H3    H     H_    0.928417 0.629929 0.621898 0.175132
H4    H     H_    0.351382 0.341164 0.874041 0.157994
H5    H     H_    0.021311 0.245082 0.041187 0.226419
H6    H     H_    0.248751 0.004839 0.456565 0.217607
H7    H     H_    0.754923 0.776234 0.041187 0.226410
H8    H     H_    0.995161 0.243911 0.456567 0.217608
H9    H     H_    0.223770 0.978695 0.041185 0.226416
H10   H     H_    0.756090 0.751246 0.456563 0.217607
H11   H     H_    0.243912 0.995161 0.543435 0.217607
H12   H     H_    0.629928 0.928418 0.378101 0.175132
H13   H     H_    0.978660 0.223752 0.958821 0.226415
H14   H     H_    0.751249 0.756089 0.543433 0.217608
H15   H     H_    0.245091 0.021331 0.958816 0.226442
H16   H     H_    0.004844 0.248754 0.543437 0.217607
H17   H     H_    0.776254 0.754915 0.958820 0.226411
H18   H     H_    0.995370 0.259179 0.164822 0.176036
H19   H     H_    0.026517 0.181538 0.118570 0.216850
H20   H     H_    0.130032 0.249594 0.167937 0.150896
H21   H     H_    0.180378 0.362005 0.081055 0.155802
H22   H     H_    0.219945 0.443641 0.131345 0.184290
H23   H     H_    0.341160 0.351374 0.125964 0.157980
H24   H     H_    0.522509 0.224265 0.350558 0.145790
H25   H     H_    0.467016 0.116361 0.301167 0.163181
H26   H     H_    0.396464 0.202683 0.314407 0.146361
H27   H     H_    0.273172 0.993872 0.348631 0.198968
H28   H     H_    0.327359 0.110856 0.392277 0.180569
H29   H     H_    0.750375 0.880482 0.167928 0.150903
H30   H     H_    0.740820 0.736227 0.164829 0.176048
H31   H     H_    0.818457 0.845017 0.118562 0.216859
H32   H     H_    0.637973 0.818365 0.081048 0.155794
H33   H     H_    0.556331 0.776289 0.131339 0.184278
H34   H     H_    0.071580 0.701509 0.378100 0.175133
H35   H     H_    0.775734 0.298241 0.350562 0.145791
H36   H     H_    0.883637 0.350653 0.301169 0.163181
H37   H     H_    0.797316 0.193778 0.314410 0.146362
H38   H     H_    0.006127 0.279298 0.348633 0.198968
H39   H     H_    0.889144 0.216501 0.392280 0.180573
H40   H     H_    0.263786 0.004611 0.164832 0.176036
H41   H     H_    0.155035 0.973501 0.118569 0.216848
H42   H     H_    0.119533 0.869955 0.167926 0.150889
H43   H     H_    0.181636 0.819634 0.081054 0.155791
H44   H     H_    0.223701 0.780063 0.131344 0.184288
H45   H     H_    0.648626 0.989785 0.125965 0.157978
H46   H     H_    0.701752 0.477485 0.350560 0.145790
H47   H     H_    0.649342 0.532979 0.301167 0.163180
H48   H     H_    0.806217 0.603530 0.314407 0.146362
H49   H     H_    0.720702 0.726824 0.348630 0.198967
H50   H     H_    0.783498 0.672636 0.392277 0.180569
H51   H     H_    0.298245 0.775737 0.649441 0.145789
H52   H     H_    0.350653 0.883639 0.698834 0.163183
H53   H     H_    0.193779 0.797316 0.685592 0.146362
H54   H     H_    0.279299 0.006128 0.651368 0.198968
H55   H     H_    0.216502 0.889145 0.607722 0.180570
H56   H     H_    0.298489 0.370070 0.378101 0.175131
H57   H     H_    0.004554 0.263746 0.835150 0.176048
H58   H     H_    0.973526 0.155075 0.881440 0.216847
H59   H     H_    0.869919 0.119468 0.832100 0.150884
H60   H     H_    0.819611 0.181630 0.918947 0.155784
H61   H     H_    0.780052 0.223701 0.868655 0.184293
H62   H     H_    0.477493 0.701758 0.649438 0.145791
H63   H     H_    0.532984 0.649346 0.698831 0.163181
H64   H     H_    0.603538 0.806221 0.685590 0.146363
H65   H     H_    0.726829 0.720702 0.651367 0.198968
H66   H     H_    0.672643 0.783499 0.607720 0.180572
H67   H     H_    0.701510 0.071582 0.621899 0.175133
H68   H     H_    0.249779 0.129928 0.831942 0.150913
H69   H     H_    0.259131 0.995134 0.835269 0.176040
H70   H     H_    0.181502 0.026726 0.881400 0.216878
H71   H     H_    0.361963 0.180364 0.918934 0.155784
H72   H     H_    0.443626 0.219944 0.868652 0.184285
H73   H     H_    0.224267 0.522517 0.649441 0.145790
H74   H     H_    0.116364 0.467022 0.698834 0.163180
H75   H     H_    0.202689 0.396473 0.685593 0.146361
H76   H     H_    0.993879 0.273177 0.651370 0.198967
H77   H     H_    0.110863 0.327365 0.607723 0.180568
H78   H     H_    0.989798 0.648626 0.874033 0.157980
H79   H     H_    0.736208 0.740821 0.835169 0.176035
H80   H     H_    0.844959 0.818467 0.881432 0.216846
H81   H     H_    0.880469 0.750438 0.832072 0.150894
H82   H     H_    0.818391 0.638007 0.918941 0.155789
H83   H     H_    0.776317 0.556372 0.868651 0.184299
H84   H     H_    0.370071 0.298491 0.621900 0.175132
O1    O     O_R   0.460870 0.120930 0.805240 -0.524359
O2    O     O_R   0.120930 0.460870 0.194760 -0.524370
O3    O     O_R   0.539130 0.660060 0.305240 -0.515151
O4    O     O_R   0.339940 0.879070 0.194760 -0.524372
O5    O     O_R   0.498910 0.350470 0.801870 -0.522041
O6    O     O_R   0.851560 0.501090 0.698130 -0.499427
O7    O     O_R   0.649530 0.148440 0.801870 -0.522012
O8    O     O_R   0.498910 0.350470 0.698130 -0.499430
O9    O     O_R   0.851560 0.501090 0.801870 -0.522020
O10   O     O_R   0.649530 0.148440 0.698130 -0.499426
O11   O     O_R   0.350470 0.498910 0.301870 -0.499427
O12   O     O_R   0.660060 0.539130 0.694760 -0.515150
O13   O     O_R   0.501090 0.851560 0.198130 -0.522020
O14   O     O_R   0.148440 0.649530 0.301870 -0.499427
O15   O     O_R   0.350470 0.498910 0.198130 -0.522019
O16   O     O_R   0.501090 0.851560 0.301870 -0.499428
O17   O     O_R   0.148440 0.649530 0.198130 -0.522014
O18   O     O_3   0.666667 0.333333 0.750000 -0.241029
O19   O     O_3   0.333333 0.666667 0.250000 -0.241030
O20   O     O_R   0.879070 0.339940 0.805240 -0.524378
O21   O     O_R   0.460870 0.120930 0.694760 -0.515151
O22   O     O_R   0.660060 0.539130 0.805240 -0.524371
O23   O     O_R   0.879070 0.339940 0.694760 -0.515150
O24   O     O_R   0.120930 0.460870 0.305240 -0.515150
O25   O     O_R   0.539130 0.660060 0.194760 -0.524372
O26   O     O_R   0.339940 0.879070 0.305240 -0.515151

loop_
_geom_bond_atom_site_label_1
_geom_bond_atom_site_label_2
_ccdc_geom_bond_type
C24   C77   S    
C7    C117  A    
C86   C109  A    
C125  C130  A    
C69   C95   A    
Cr3   O23   S    
C4    C9    A    
C26   H55   S    
C43   C47   A    
C66   C90   A    
C70   C86   A    
C75   C81   A    
C67   C86   S    
Br9   C60   S    
C19   C115  S    
Br12  C57   S    
C16   H24   S    
C5    C8    A    
C23   H49   S    
Br6   C63   S    
C1    O5    A    
C2    O15   A    
C42   C48   A    
Cr6   O14   S    
C28   H61   S    
C14   H18   S    
Cr4   O15   S    
Br1   C59   S    
C10   C120  A    
C20   H35   S    
C35   C117  A    
C74   C101  A    
C6    C131  A    
C89   O21   A    
C12   C14   S    
C108  C121  A    
C124  C131  A    
C27   H53   S    
C2    O25   A    
Br4   C53   S    
C6    H11   S    
Cr1   O8    S    
C64   H78   S    
Cr3   O7    S    
Cr5   O19   S    
C54   C62   A    
C59   C98   A    
C68   C94   A    
C12   C112  S    
C24   O17   A    
C61   C101  A    
C38   H79   S    
C39   C44   A    
C67   O8    A    
C9    C121  A    
C23   C113  S    
C12   H21   S    
C83   C113  A    
Cr5   O25   S    
C75   C102  A    
C37   H83   S    
C30   H65   S    
C74   C82   A    
Cr6   O26   S    
C87   C108  A    
C13   O26   A    
C41   C49   A    
C41   C94   A    
C57   C96   A    
C3    C10   A    
C100  O3    A    
C104  C117  A    
C76   C80   A    
C14   H19   S    
Cr6   O4    S    
C79   C110  A    
C19   H38   S    
C23   H50   S    
C47   C99   A    
C18   H29   S    
C15   H28   S    
C5    C126  A    
C55   C61   A    
C25   H47   S    
C130  H5    S    
C116  C129  A    
C78   C85   S    
C90   C106  A    
C111  O4    A    
C67   O12   A    
C82   C111  S    
C64   C91   A    
C72   C77   A    
C78   O20   A    
C60   C99   A    
C21   H43   S    
Cr4   O19   S    
Cr5   O13   S    
C26   H54   S    
C78   O9    A    
C68   C88   A    
C4    H9    S    
C33   H68   S    
C26   C105  S    
C48   C101  A    
C54   C94   A    
C80   C116  A    
Cr2   O9    S    
C122  O14   A    
C5    H10   S    
C15   C110  S    
C73   H56   S    
C21   C22   S    
Br7   C62   S    
C82   C114  A    
Cr4   O11   S    
C100  O11   A    
Cr3   O18   S    
C34   C36   S    
C114  C127  A    
C13   C79   S    
C35   C91   A    
C17   H32   S    
C105  C118  A    
C25   H46   S    
C84   C105  A    
C68   H3    S    
C26   C27   S    
C89   O10   A    
C3    H8    S    
C51   C91   A    
C81   C122  S    
C129  C132  A    
C75   H34   S    
C41   C120  A    
C16   H26   S    
Cr6   O19   S    
C36   H74   S    
C47   C126  A    
C64   C85   A    
C45   C88   S    
C55   C95   A    
C72   C98   A    
C76   H23   S    
Cr2   O18   S    
Cr4   O2    S    
C65   C84   A    
C10   H16   S    
C29   H57   S    
C57   C60   A    
C52   C58   A    
C81   C115  A    
C70   H84   S    
C17   C18   S    
C1    O22   A    
C56   O1    A    
C62   C102  A    
C74   H45   S    
Br8   C61   S    
C77   C112  A    
C13   O16   A    
C112  C125  A    
C34   H77   S    
Cr5   O3    S    
C37   C106  S    
C22   H40   S    
C56   O7    A    
C122  O24   A    
C2    C80   S    
C71   C97   A    
C107  C120  A    
C34   H76   S    
C11   C119  A    
C38   H81   S    
C49   C128  A    
C88   C107  A    
C7    H13   S    
C25   H48   S    
C109  C123  A    
C85   C104  A    
C31   H62   S    
C42   C121  A    
C110  C124  A    
C51   C59   A    
C43   C96   A    
C17   C116  S    
C11   H17   S    
C42   C95   A    
C46   C125  A    
C28   C29   S    
Cr1   O18   S    
C71   H12   S    
Cr2   O6    S    
C40   C93   A    
Br2   C55   S    
C7    C130  A    
C70   C96   A    
C66   C93   A    
C33   H69   S    
C18   H31   S    
C44   C124  A    
C11   C132  A    
C6    C118  A    
C4    C127  A    
C63   C103  A    
C30   C31   S    
C50   C129  A    
C31   H63   S    
C44   C97   A    
C15   C16   S    
C32   C33   S    
C23   C25   S    
C3    C128  A    
Cr5   O16   S    
C52   C92   A    
C76   C103  A    
Cr2   O12   S    
C22   H41   S    
C58   C97   A    
C33   H70   S    
C17   H33   S    
C20   H37   S    
Cr2   O22   S    
C46   C98   A    
C40   C119  A    
C19   C20   S    
C66   H4    S    
C15   H27   S    
Cr4   O24   S    
C73   C99   A    
Br5   C58   S    
C39   C118  A    
C28   C104  S    
C53   C93   A    
C16   H25   S    
C36   H73   S    
C113  C126  A    
C24   O2    A    
C69   H2    S    
C71   C79   A    
C19   H39   S    
Cr3   O20   S    
Br11  C51   S    
C53   C63   A    
C20   H36   S    
C69   C87   A    
C83   C100  S    
C28   H60   S    
Br10  C52   S    
C37   H82   S    
Cr1   O1    S    
C48   C127  A    
C45   O23   A    
C56   C87   S    
C29   H59   S    
C50   C103  A    
C40   C50   A    
C21   H44   S    
C35   C46   A    
C111  O13   A    
C36   H75   S    
C73   C83   A    
C65   H67   S    
C131  H6    S    
C106  C119  A    
Cr3   O10   S    
C29   H58   S    
C43   C123  A    
Cr1   O5    S    
C22   H42   S    
C21   C114  S    
C34   C107  S    
C38   H80   S    
C132  H7    S    
C8    C123  A    
C12   H22   S    
C45   O6    A    
C30   H66   S    
C9    H15   S    
Cr6   O17   S    
Br3   C54   S    
C72   H1    S    
C32   H72   S    
C14   H20   S    
C37   C38   S    
C115  C128  A    
C27   H52   S    
C49   C102  A    
C27   H51   S    
C32   C108  S    
Cr1   O21   S    
C65   C92   A    
C39   C92   A    
C32   H71   S    
C1    C90   S    
C84   C89   S    
C31   H64   S    
C18   H30   S    
C30   C109  S    
C8    H14   S    
