data_str_m9_o11_o16_f0_sra.sym.18
_audit_creation_date              2012-12-11T14:17:36-0500
_audit_creation_method            fapswitch 2.2
_symmetry_space_group_name_H-M    P1
_symmetry_Int_Tables_number       1
_space_group_crystal_system       triclinic
_cell_length_a                    6.947609
_cell_length_b                    13.650378
_cell_length_c                    20.464269
_cell_angle_alpha                 102.379018
_cell_angle_beta                  89.922789
_cell_angle_gamma                 90.711901
_cell_volume                      1895.51035874

loop_
_atom_site_label
_atom_site_type_symbol
_atom_type_description
_atom_site_fract_x
_atom_site_fract_y
_atom_site_fract_z
_atom_type_partial_charge
O1    O     O_R   0.506860 0.599390 0.449240 -0.539686
O2    O     O_R   0.180220 0.594600 0.586780 -0.544995
O3    O     O_R   0.004500 0.400610 0.550760 -0.545260
C1    C     C_R   0.349080 0.616195 0.613410 0.734786
O4    O     O_R   0.177490 0.611290 0.451970 -0.520429
O5    O     O_R   0.001750 0.417420 0.414990 -0.530401
C2    C     C_R   0.347044 0.637075 0.434919 0.772381
O6    O     O_R   0.509610 0.582580 0.585010 -0.541861
O7    O     O_3   0.337420 0.436370 0.488020 -0.379820
V1    V     V_3+5 0.064680 0.511800 0.502220 1.495978
O8    O     O_R   0.671710 0.405400 0.413220 -0.547136
C3    C     C_R   0.839650 0.384729 0.386334 0.775636
O9    O     O_R   0.674440 0.388710 0.548030 -0.546536
C4    C     C_R   0.842288 0.362610 0.565249 0.675963
V2    V     V_3+5 0.564010 0.488200 0.497780 1.463982
O10   O     O_3   0.841140 0.563630 0.511980 -0.365134
C5    C     C_R   0.824397 0.110935 0.611406 -0.103683
H1    H     H_    0.817045 0.162407 0.519537 0.107050
H2    H     H_    0.810684 0.033694 0.584820 0.170227
C6    C     C_R   0.847136 0.285114 0.604878 -0.025201
C7    C     C_R   0.879427 0.314442 0.927840 -0.162837
C8    C     C_R   0.882282 0.390309 0.892231 -0.122035
C9    C     C_R   0.873033 0.367356 0.822595 -0.142241
C10   C     C_R   0.860057 0.266563 0.786312 0.077863
C11   C     C_R   0.854588 0.189195 0.823335 0.014694
C12   C     C_R   0.852295 0.240208 0.714763 0.031644
C13   C     C_R   0.835673 0.137124 0.681805 0.076929
C14   C     C_R   0.829781 0.062310 0.719690 0.251733
C15   C     C_R   0.840073 0.088517 0.789098 -0.218775
C16   C     C_R   0.859682 0.312941 0.674610 -0.193399
C17   C     C_R   0.828656 0.184312 0.573518 -0.189290
C18   C     C_R   0.865155 0.214154 0.894267 -0.052754
H3    H     H_    0.872698 0.392097 0.695684 0.089917
H4    H     H_    0.888783 0.333979 0.981950 0.105137
H5    H     H_    0.876145 0.430598 0.798976 0.102568
H6    H     H_    0.892711 0.467827 0.918831 0.118601
H7    H     H_    0.835693 0.028521 0.816163 0.146230
C19   C     C_2   0.003302 0.296634 0.282417 -0.078742
C20   C     C_2   0.841684 0.317808 0.319067 -0.294129
H8    H     H_    0.139337 0.329215 0.303075 0.160850
H9    H     H_    0.703628 0.287373 0.299593 0.134607
C21   C     C_2   0.011270 0.231008 0.213977 -0.106118
C22   C     C_2   0.858275 0.183635 0.180273 -0.286984
H10   H     H_    0.152048 0.221999 0.190620 0.176847
H11   H     H_    0.715598 0.193329 0.201698 0.165168
C23   C     C_2   0.204810 0.791254 0.782177 -0.104852
C24   C     C_2   0.363748 0.816046 0.819801 -0.295876
H12   H     H_    0.067187 0.821447 0.801555 0.151960
H13   H     H_    0.502210 0.786260 0.801697 0.142354
C25   C     C_2   0.203101 0.722775 0.714661 -0.094207
C26   C     C_2   0.361146 0.684698 0.680082 -0.287915
H14   H     H_    0.061886 0.703752 0.692527 0.159330
H15   H     H_    0.504243 0.703385 0.700144 0.150467
C27   C     C_R   0.454715 0.882118 0.389272 -0.132214
H16   H     H_    0.473952 0.824869 0.478453 0.138206
H17   H     H_    0.457004 0.012629 0.312197 0.152698
H18   H     H_    0.501922 0.956568 0.414602 0.122362
C28   C     C_R   0.361347 0.713888 0.395509 -0.074038
C29   C     C_R   0.352355 0.689959 0.074903 -0.190350
C30   C     C_R   0.366871 0.614402 0.110152 -0.109150
C31   C     C_R   0.377080 0.638092 0.179474 -0.069827
C32   C     C_R   0.362628 0.738118 0.215764 0.063788
C33   C     C_R   0.367516 0.817214 0.179763 0.010681
C34   C     C_R   0.363164 0.761450 0.287093 0.032982
C35   C     C_R   0.416302 0.859950 0.320485 0.058682
C36   C     C_R   0.426784 0.936393 0.285455 -0.185514
C37   C     C_R   0.390984 0.917860 0.217065 0.200877
C38   C     C_R   0.313045 0.691608 0.327098 0.177347
C39   C     C_R   0.436525 0.807891 0.425795 -0.195212
C40   C     C_R   0.357109 0.790686 0.108368 -0.071476
H19   H     H_    0.346860 0.669870 0.020723 0.098353
H20   H     H_    0.407236 0.577395 0.203926 0.158994
H21   H     H_    0.375088 0.536970 0.083498 0.123205
O11   O     O_R   0.203230 0.917310 0.915020 -0.545019
O12   O     O_R   0.535500 0.888690 0.048040 -0.534937
O13   O     O_R   0.711080 0.082610 0.085000 -0.520702
C41   C     C_R   0.366418 0.864070 0.066148 0.775112
O14   O     O_R   0.532630 0.905370 0.913230 -0.550148
O15   O     O_R   0.708190 0.099410 0.949230 -0.542329
C42   C     C_R   0.364404 0.884335 0.886484 0.728522
O16   O     O_R   0.206120 0.900510 0.050790 -0.529982
O17   O     O_3   0.375360 0.063570 0.011990 -0.357319
V3    V     V_3+5 0.648170 0.988200 0.997780 1.473901
O18   O     O_R   0.038240 0.111390 0.951940 -0.544566
C43   C     C_R   0.870383 0.136960 0.934398 0.668797
O19   O     O_R   0.041120 0.094710 0.086750 -0.524742
C44   C     C_R   0.872432 0.116445 0.113274 0.792784
V4    V     V_3+5 0.148810 0.011930 0.002180 1.486483
O20   O     O_3   0.871750 0.936430 0.988010 -0.381202
Br1   Br    Br    0.807242 0.921404 0.679979 -0.627115
Br2   Br    Br    0.141861 0.577949 0.295500 -0.605992
Br3   Br    Br    0.382188 0.038288 0.183118 -0.604551

loop_
_geom_bond_atom_site_label_1
_geom_bond_atom_site_label_2
_ccdc_geom_bond_type
O15   V3    S    
C1    O6    A    
C24   H13   S    
C27   C35   A    
C6    C16   A    
C12   C13   A    
C34   C38   A    
C14   C15   A    
C10   C12   A    
C19   C21   S    
O5    C3    A    
C19   C20   D    
O14   C42   A    
V2    O10   S    
C30   H21   S    
C38   Br2   S    
C32   C34   A    
O8    V2    S    
O14   V3    S    
C25   H14   S    
C9    C10   A    
H17   C36   S    
O1    V2    S    
O7    V1    S    
C2    C28   S    
C11   C18   A    
C36   C37   A    
C29   C30   A    
O11   C42   A    
O9    C4    A    
C40   C41   S    
C21   H10   S    
C24   C42   S    
O13   V3    S    
C23   H12   S    
C11   C15   A    
V3    O20   S    
C7    C18   A    
C33   C37   A    
C1    C26   S    
C5    C13   A    
C4    C6    S    
O18   C43   A    
C20   H9    S    
O4    C2    A    
O19   C44   A    
C7    H4    S    
C30   C31   A    
C26   H15   S    
O2    C1    A    
C32   C33   A    
O12   C41   A    
C33   C40   A    
C41   O16   A    
C25   C26   D    
C10   C11   A    
C22   H11   S    
O13   C44   A    
H16   C39   S    
O3    C4    A    
C31   H20   S    
C28   C38   A    
C12   C16   A    
O6    V2    S    
C9    H5    S    
O9    V2    S    
C5    C17   A    
C21   C22   D    
O2    V1    S    
O15   C43   A    
C23   C24   D    
C16   H3    S    
O1    C2    A    
O18   V4    S    
O5    V1    S    
O8    C3    A    
C28   C39   A    
C8    H6    S    
C23   C25   S    
C22   C44   S    
C34   C35   A    
C3    C20   S    
O7    V2    S    
O4    V1    S    
O3    V1    S    
V1    O10   S    
C19   H8    S    
O12   V3    S    
C27   C39   A    
O17   V4    S    
C18   C43   S    
C37   Br3   S    
C5    H2    S    
O19   V4    S    
C35   C36   A    
C31   C32   A    
O16   V4    S    
C29   C40   A    
V4    O20   S    
O17   V3    S    
C15   H7    S    
C13   C14   A    
C8    C9    A    
C14   Br1   S    
H1    C17   S    
O11   V4    S    
C7    C8    A    
C6    C17   A    
C29   H19   S    
C27   H18   S    
