data_str_m9_o2_o23_f0_sra.sym.85
_audit_creation_date              2012-12-11T16:31:34-0500
_audit_creation_method            fapswitch 2.2
_symmetry_space_group_name_H-M    P1
_symmetry_Int_Tables_number       1
_space_group_crystal_system       triclinic
_cell_length_a                    7.057601
_cell_length_b                    18.452123
_cell_length_c                    20.155634
_cell_angle_alpha                 68.392087
_cell_angle_beta                  91.036377
_cell_angle_gamma                 91.528349
_cell_volume                      2439.39994953

loop_
_atom_site_label
_atom_site_type_symbol
_atom_type_description
_atom_site_fract_x
_atom_site_fract_y
_atom_site_fract_z
_atom_type_partial_charge
O1    O     O_R   0.488990 0.443920 0.942160 -0.540472
O2    O     O_R   0.823840 0.406530 0.087600 -0.543232
O3    O     O_R   0.999650 0.556080 0.057840 -0.535130
C1    C     C_R   0.654222 0.381546 0.113681 0.785617
O4    O     O_R   0.818390 0.434590 0.944530 -0.536462
O5    O     O_R   0.994160 0.584350 0.913750 -0.539572
C2    C     C_R   0.647920 0.422776 0.922499 0.688260
O6    O     O_R   0.494480 0.415650 0.086250 -0.517930
O7    O     O_3   0.662600 0.549100 0.990070 -0.369870
V1    V     V_3+5 0.935320 0.490890 0.001840 1.467500
O8    O     O_R   0.324240 0.593470 0.912400 -0.544450
C3    C     C_R   0.155477 0.619613 0.887471 0.664342
O9    O     O_R   0.329690 0.565410 0.055470 -0.525409
C4    C     C_R   0.163171 0.577595 0.077503 0.725728
V2    V     V_3+5 0.435990 0.509110 0.998160 1.480257
O10   O     O_3   0.158840 0.450900 0.009930 -0.372707
C5    C     C_3   0.938316 0.704984 0.238370 -0.049487
C6    C     C_3   0.296966 0.689606 0.264819 0.356376
C7    C     C_3   0.273446 0.737489 0.317013 0.317269
C8    C     C_1   0.102753 0.883076 0.372530 -0.201737
C9    C     C_3   0.139432 0.714822 0.203271 0.021517
C10   C     C_3   0.919830 0.758008 0.286235 0.532644
C11   C     C_3   0.113986 0.800803 0.285696 0.023547
C12   C     C_3   0.147323 0.855454 0.204200 0.028188
C13   C     C_3   0.165205 0.805695 0.154657 0.336565
C14   C     C_1   0.103960 0.847961 0.332133 0.126475
C15   C     C_1   0.149629 0.664964 0.158336 0.134365
C16   C     C_1   0.157460 0.624984 0.121777 -0.134536
H1    H     H_    0.020547 0.892358 0.185656 0.171773
H2    H     H_    0.837472 0.725112 0.193178 0.143068
C17   C     C_R   0.100247 0.786241 0.879823 0.163982
C18   C     C_R   0.070931 0.862252 0.875989 0.152096
C19   C     C_R   0.063440 0.923898 0.810033 0.258571
C20   C     C_R   0.087004 0.909647 0.747331 0.110112
C21   C     C_R   0.107406 0.831604 0.748591 -0.048547
C22   C     C_R   0.116974 0.767993 0.816677 -0.071841
C23   C     C_R   0.120113 0.816359 0.683872 -0.127007
C24   C     C_R   0.154110 0.739198 0.686616 0.048467
C25   C     C_R   0.174509 0.677453 0.754341 -0.011658
C26   C     C_R   0.148127 0.690021 0.819004 -0.100198
C27   C     C_R   0.170678 0.720603 0.623733 0.146748
C28   C     C_R   0.218071 0.645531 0.629040 -0.173940
C29   C     C_R   0.246791 0.586822 0.695039 0.215779
C30   C     C_R   0.222300 0.602376 0.756610 -0.151918
H3    H     H_    0.233024 0.633285 0.580782 0.126387
H4    H     H_    0.243148 0.553915 0.806381 0.135522
C31   C     C_R   0.665711 0.213263 0.122468 0.114158
C32   C     C_R   0.695756 0.136314 0.128020 0.467161
C33   C     C_R   0.699532 0.075893 0.195145 0.094395
C34   C     C_R   0.667898 0.092968 0.255645 -0.251045
C35   C     C_R   0.647483 0.170306 0.252325 -0.001878
C36   C     C_R   0.652357 0.233507 0.184816 -0.066777
C37   C     C_R   0.630192 0.183820 0.316583 -0.074344
C38   C     C_R   0.644099 0.260934 0.315686 -0.092062
C39   C     C_R   0.634997 0.325645 0.249125 -0.072095
C40   C     C_R   0.642860 0.312479 0.182958 -0.097251
C41   C     C_R   0.673954 0.274768 0.380290 0.303671
C42   C     C_R   0.652245 0.349306 0.381474 0.238559
C43   C     C_R   0.614013 0.411538 0.317491 0.038446
C44   C     C_R   0.619983 0.401956 0.251356 0.331397
H5    H     H_    0.666572 0.044298 0.306126 0.118537
O11   O     O_R   0.770890 0.084490 0.414040 -0.524199
O12   O     O_R   0.445980 0.065450 0.555510 -0.528640
O13   O     O_R   0.270670 0.915620 0.586180 -0.533218
C45   C     C_R   0.616250 0.078602 0.576450 0.761350
O14   O     O_R   0.441480 0.093500 0.412450 -0.544145
O15   O     O_R   0.266140 0.943870 0.442100 -0.543856
C46   C     C_R   0.611404 0.115781 0.385323 0.786235
O16   O     O_R   0.775410 0.056240 0.558120 -0.526780
O17   O     O_3   0.602660 0.950990 0.510100 -0.385002
V3    V     V_3+5 0.329740 0.009100 0.498130 1.479723
O18   O     O_R   0.936120 0.934420 0.444240 -0.538154
C47   C     C_R   0.101912 0.924212 0.421335 0.729911
O19   O     O_R   0.940610 0.906370 0.587310 -0.535636
C48   C     C_R   0.109468 0.882279 0.613552 0.864703
V4    V     V_3+5 0.829110 0.990690 0.501470 1.481048
O20   O     O_3   0.106080 0.049010 0.489880 -0.361132
C49   C     C_3   0.834234 0.242842 0.713904 -0.013009
C50   C     C_3   0.490511 0.274203 0.678983 -0.123463
C51   C     C_3   0.488067 0.323357 0.728961 0.031398
H6    H     H_    0.866638 0.283329 0.658913 0.169328
H7    H     H_    0.348904 0.246981 0.677385 0.234695
H8    H     H_    0.526344 0.384716 0.697521 0.172134
C52   C     C_1   0.633783 0.376643 0.877526 -0.114384
C53   C     C_3   0.632971 0.205760 0.709517 0.039771
C54   C     C_3   0.832319 0.293432 0.763561 0.404750
C55   C     C_3   0.627255 0.289246 0.794230 0.072750
C56   C     C_3   0.564097 0.200557 0.838664 0.307836
C57   C     C_3   0.558602 0.152268 0.786355 0.487773
C58   C     C_1   0.626526 0.337750 0.840087 0.217326
C59   C     C_1   0.634479 0.160777 0.661034 0.158270
C60   C     C_1   0.628857 0.123652 0.622168 -0.182537
O21   O     O_3   0.870237 0.714690 0.357607 -0.635959
H9    H     H_    0.736602 0.697014 0.359477 0.317435
O22   O     O_3   0.783553 0.816387 0.259345 -0.660011
H10   H     H_    0.735838 0.820497 0.211952 0.269501
O23   O     O_3   0.297108 0.910121 0.194218 -0.666285
H11   H     H_    0.256568 0.950266 0.212666 0.297465
N1    N     N_3   0.301786 0.510472 0.700885 -0.651055
H12   H     H_    0.305055 0.506484 0.650487 0.219343
H13   H     H_    0.196294 0.471440 0.729691 0.279422
N2    N     N_3   0.115390 0.729864 0.950456 -0.640706
H14   H     H_    0.248176 0.704414 0.957744 0.225476
H15   H     H_    0.000905 0.690668 0.960031 0.237203
N3    N     N_3   0.053809 0.875545 0.941360 -0.621654
H16   H     H_    0.161280 0.914429 0.944243 0.232895
H17   H     H_    0.921148 0.898938 0.942556 0.237706
O24   O     O_3   0.036867 0.000279 0.803595 -0.644738
H18   H     H_    0.016686 0.003954 0.850561 0.295697
N4    N     N_3   0.094861 0.977019 0.682404 -0.634801
H19   H     H_    0.208777 0.013038 0.685699 0.262796
H20   H     H_    0.969644 0.007759 0.677006 0.262894
N5    N     N_3   0.138239 0.776450 0.553507 -0.687152
H21   H     H_    0.027548 0.755427 0.529874 0.242823
H22   H     H_    0.260576 0.780937 0.523584 0.232224
O25   O     O_3   0.884682 0.625705 0.271334 -0.651088
H23   H     H_    0.874660 0.610664 0.323410 0.294420
N6    N     N_3   0.552377 0.483667 0.319225 -0.643202
H24   H     H_    0.438363 0.470267 0.354415 0.250148
H25   H     H_    0.662318 0.509051 0.338940 0.235093
N7    N     N_3   0.649231 0.268253 0.051305 -0.623747
H26   H     H_    0.770444 0.303842 0.039516 0.240234
H27   H     H_    0.522807 0.298238 0.045137 0.216922
O26   O     O_3   0.722208 0.123287 0.065464 -0.619587
H28   H     H_    0.753054 0.068176 0.075992 0.307770
N8    N     N_3   0.737985 0.997361 0.201833 -0.688906
H29   H     H_    0.621936 0.976700 0.180652 0.265704
H30   H     H_    0.749327 0.960841 0.255484 0.264598
O27   O     O_3   0.730147 0.214852 0.441803 -0.642362
H31   H     H_    0.779563 0.235279 0.477933 0.332114
O28   O     O_3   0.658152 0.357780 0.447000 -0.640615
H32   H     H_    0.669339 0.413303 0.440890 0.287813
O29   O     O_3   0.600885 0.466492 0.189065 -0.632334
H33   H     H_    0.630463 0.515046 0.197740 0.334948
N9    N     N_3   0.885586 0.375417 0.721030 -0.639321
H34   H     H_    0.022066 0.377691 0.702121 0.266509
H35   H     H_    0.809407 0.398225 0.673647 0.160366
N10   N     N_3   0.483245 0.706809 0.231600 -0.652648
H36   H     H_    0.498787 0.676684 0.197115 0.264964
H37   H     H_    0.582066 0.682896 0.271772 0.275727
N11   N     N_3   0.527957 0.323206 0.604063 -0.631809
H38   H     H_    0.641233 0.361997 0.599399 0.219610
H39   H     H_    0.409363 0.357487 0.583551 0.246064
O30   O     O_3   0.307531 0.328610 0.753380 -0.625494
H40   H     H_    0.232953 0.283063 0.753156 0.367219
O31   O     O_3   0.668488 0.084577 0.815007 -0.687893
H41   H     H_    0.638782 0.050244 0.787958 0.306163
O32   O     O_3   0.369878 0.128535 0.778427 -0.637319
H42   H     H_    0.339296 0.080854 0.820426 0.318354
N12   N     N_3   0.693104 0.165350 0.900428 -0.591433
H43   H     H_    0.812555 0.141943 0.887258 0.248808
H44   H     H_    0.625880 0.117186 0.938567 0.257918
O33   O     O_3   0.981854 0.189221 0.728506 -0.628448
H45   H     H_    0.954024 0.145010 0.773013 0.356277
O34   O     O_3   0.958811 0.269917 0.822547 -0.597483
H46   H     H_    0.021157 0.221022 0.828356 0.325124
N13   N     N_3   0.293194 0.604424 0.303915 -0.651638
H47   H     H_    0.164142 0.578918 0.323963 0.252036
H48   H     H_    0.387351 0.591085 0.347139 0.213147
N14   N     N_3   0.373475 0.199834 0.868102 -0.620447
H49   H     H_    0.378325 0.228717 0.904073 0.270843
H50   H     H_    0.329108 0.142738 0.898084 0.222159
N15   N     N_3   0.224985 0.685419 0.391013 -0.644621
H51   H     H_    0.346869 0.659273 0.419059 0.219041
H52   H     H_    0.131429 0.639848 0.394131 0.245616
N16   N     N_3   0.452649 0.777113 0.323684 -0.640630
H53   H     H_    0.470025 0.830335 0.282613 0.306536
H54   H     H_    0.454433 0.790011 0.370126 0.242970
N17   N     N_3   0.017778 0.830089 0.097881 -0.665655
H55   H     H_    0.886862 0.841433 0.114446 0.189105
H56   H     H_    0.996657 0.788471 0.074580 0.272849
N18   N     N_3   0.348446 0.820969 0.116886 -0.596345
H57   H     H_    0.339618 0.871133 0.070619 0.268546
H58   H     H_    0.458167 0.833746 0.146305 0.276024

loop_
_geom_bond_atom_site_label_1
_geom_bond_atom_site_label_2
_ccdc_geom_bond_type
C45   C60   S    
O14   C46   A    
C55   C56   S    
O12   C45   A    
C27   C28   A    
O21   H9    S    
C57   O32   S    
C6    C9    S    
C10   O22   S    
O2    C1    A    
C21   C22   A    
V3    O20   S    
O18   V4    S    
O23   H11   S    
C53   C59   S    
N9    H34   S    
C50   N11   S    
C37   C38   A    
O25   H23   S    
C33   N8    S    
N3    H17   S    
N8    H29   S    
O19   V4    S    
C41   O27   S    
C21   C23   A    
C29   N1    S    
N5    H21   S    
C51   C55   S    
N11   H39   S    
O5    C3    A    
C24   C25   A    
C31   N7    S    
V2    O10   S    
O24   H18   S    
O16   V4    S    
C6    N10   S    
C20   C21   A    
N17   H55   S    
O13   V3    S    
C11   C14   S    
C37   C46   S    
N6    H24   S    
C12   H1    S    
O8    V2    S    
N13   H47   S    
O22   H10   S    
N18   H58   S    
C51   O30   S    
C11   C12   S    
O17   V3    S    
O15   C47   A    
C7    N16   S    
O7    V1    S    
C17   C22   A    
C59   C60   T    
C1    O6    A    
O18   C47   A    
C49   C54   S    
C2    C52   S    
C9    C15   S    
C43   C44   A    
N13   H48   S    
O9    C4    A    
C23   C48   S    
N16   H54   S    
C5    H2    S    
N17   H56   S    
O11   V4    S    
C19   O24   S    
C52   C58   T    
C51   H8    S    
C30   H4    S    
C19   C20   A    
N4    H20   S    
C57   O31   S    
O34   H46   S    
O19   C48   A    
C12   O23   S    
C17   N2    S    
C22   C26   A    
C12   C13   S    
C24   C27   A    
C25   C26   A    
O4    C2    A    
C53   C57   S    
C54   C55   S    
C6    C7    S    
C42   C43   A    
C5    C9    S    
N4    H19   S    
C35   C37   A    
C28   H3    S    
N14   H50   S    
C3    C26   S    
C7    C11   S    
C29   C30   A    
O14   V3    S    
C32   O26   S    
C23   C24   A    
C31   C32   A    
C42   O28   S    
C39   C40   A    
C34   C35   A    
C54   O34   S    
C7    N15   S    
V4    O20   S    
N2    H15   S    
N7    H26   S    
C31   C36   A    
O3    C4    A    
N10   H37   S    
O1    V2    S    
C49   C53   S    
C32   C33   A    
N1    H13   S    
O12   V3    S    
O6    V2    S    
C18   N3    S    
O9    V2    S    
O17   V4    S    
N16   H53   S    
C20   N4    S    
C10   O21   S    
N12   H44   S    
C28   C29   A    
O28   H32   S    
O2    V1    S    
C50   C53   S    
N18   H57   S    
C13   N18   S    
O31   H41   S    
C13   N17   S    
N9    H35   S    
C9    C13   S    
C38   C39   A    
N8    H30   S    
N15   H52   S    
O1    C2    A    
C56   N12   S    
C17   C18   A    
C27   N5    S    
O30   H40   S    
O5    V1    S    
C50   H7    S    
O8    C3    A    
C49   O33   S    
C25   C30   A    
C43   N6    S    
N3    H16   S    
C5    C10   S    
N12   H43   S    
N1    H12   S    
O11   C46   A    
N14   H49   S    
O27   H31   S    
C35   C36   A    
O3    V1    S    
V1    O10   S    
N11   H38   S    
C18   C19   A    
C49   H6    S    
C41   C42   A    
O29   H33   S    
C8    C14   T    
C45   O16   A    
O13   C48   A    
C8    C47   S    
O15   V3    S    
O32   H42   S    
C56   N14   S    
O7    V2    S    
N2    H14   S    
N6    H25   S    
N7    H27   S    
N15   H51   S    
N10   H36   S    
C50   C51   S    
C54   N9    S    
O4    V1    S    
C56   C57   S    
C33   C34   A    
C55   C58   S    
C15   C16   T    
C6    N13   S    
C34   H5    S    
C10   C11   S    
C4    C16   S    
O33   H45   S    
C39   C44   A    
C44   O29   S    
C1    C40   S    
C36   C40   A    
C5    O25   S    
O26   H28   S    
N5    H22   S    
C38   C41   A    
