data_str_m3_o14_o14_f0_pcu.sym.24
_audit_creation_date              2013-03-05T15:52:20-0500
_audit_creation_method            fapswitch 2.2
_symmetry_space_group_name_H-M    P1
_symmetry_Int_Tables_number       1
_space_group_crystal_system       triclinic
_cell_length_a                    14.867316
_cell_length_b                    15.385958
_cell_length_c                    9.908574
_cell_angle_alpha                 90.557903
_cell_angle_beta                  89.307823
_cell_angle_gamma                 89.804805
_cell_volume                      2266.27857402

loop_
_atom_site_label
_atom_site_type_symbol
_atom_site_description
_atom_site_fract_x
_atom_site_fract_y
_atom_site_fract_z
_atom_type_partial_charge
O1    O     O_R   0.408390 0.908380 0.614690 -0.656290
O2    O     O_R   0.408390 0.091620 0.614690 -0.638663
O3    O     O_R   0.908390 0.408380 0.614690 -0.644542
O4    O     O_R   0.908390 0.591620 0.614690 -0.664461
O5    O     O_R   0.408370 0.908380 0.385360 -0.613711
O6    O     O_R   0.408370 0.091620 0.385360 -0.631725
O7    O     O_R   0.908370 0.408380 0.385360 -0.627830
O8    O     O_R   0.908370 0.591620 0.385360 -0.612499
C1    C     C_R   0.386802 0.874099 0.501595 0.897227
C2    C     C_R   0.382370 0.121783 0.500840 0.856632
C3    C     C_R   0.884578 0.375967 0.499937 0.883377
C4    C     C_R   0.879222 0.619735 0.502725 0.888298
Zn1   Zn    Zn3+2 0.500010 0.000000 0.653130 0.948804
Zn2   Zn    Zn3+2 0.000010 0.500000 0.653130 0.955567
Zn3   Zn    Zn3+2 0.499980 1.000000 0.346870 1.005917
Zn4   Zn    Zn3+2 0.999980 0.500000 0.346870 1.019319
O9    O     O_R   0.591620 0.091610 0.614640 -0.648450
O10   O     O_R   0.591620 0.908390 0.614640 -0.616189
O11   O     O_R   0.091620 0.591610 0.614640 -0.624336
O12   O     O_R   0.091620 0.408390 0.614640 -0.617279
O13   O     O_R   0.591610 0.091610 0.385310 -0.587190
O14   O     O_R   0.591610 0.908390 0.385310 -0.616847
O15   O     O_R   0.091610 0.591610 0.385310 -0.595791
O16   O     O_R   0.091610 0.408390 0.385310 -0.609639
C5    C     C_R   0.615052 0.124535 0.501924 0.858512
C6    C     C_R   0.624827 0.885528 0.498527 0.881079
C7    C     C_R   0.115990 0.623796 0.500040 0.873161
C8    C     C_R   0.121361 0.381832 0.499159 0.854833
H1    H     H_    0.225693 0.115383 0.387835 0.191316
H2    H     H_    0.347332 0.767113 0.298177 0.232706
H3    H     H_    0.765258 0.654021 0.310309 0.189531
H4    H     H_    0.779992 0.331408 0.295021 0.216846
C9    C     C_R   0.425168 0.290886 0.619490 -0.302113
C10   C     C_R   0.319985 0.791061 0.761363 -0.204399
C11   C     C_R   0.842402 0.733038 0.752885 -0.307033
C12   C     C_R   0.862008 0.258255 0.731057 -0.278797
H5    H     H_    0.477931 0.242381 0.619608 0.169811
H6    H     H_    0.390597 0.804580 0.774456 0.225951
H7    H     H_    0.862030 0.670143 0.787185 0.224316
H8    H     H_    0.931996 0.275917 0.718913 0.208477
C13   C     C_R   0.443144 0.371938 0.678572 0.300384
C14   C     C_R   0.265621 0.784268 0.877461 0.274681
C15   C     C_R   0.843956 0.799477 0.850785 0.259430
C16   C     C_R   0.830880 0.237015 0.860186 0.306653
C17   C     C_R   0.818091 0.883937 0.813706 0.233323
C18   C     C_R   0.739730 0.214203 0.877921 0.311704
C19   C     C_R   0.376781 0.437564 0.679436 0.267177
C20   C     C_R   0.173780 0.764954 0.861812 0.243460
C21   C     C_R   0.771106 0.894310 0.692974 -0.280209
C22   C     C_R   0.685616 0.204525 0.763599 -0.200512
C23   C     C_R   0.293564 0.420206 0.620114 -0.317236
C24   C     C_R   0.142044 0.741126 0.734824 -0.273500
H9    H     H_    0.746028 0.958076 0.667022 0.194351
H10   H     H_    0.615707 0.189023 0.780764 0.210728
H11   H     H_    0.244868 0.472453 0.616674 0.193965
H12   H     H_    0.071477 0.725140 0.726067 0.192595
C25   C     C_R   0.758711 0.823593 0.603343 0.063743
C26   C     C_R   0.720179 0.219246 0.631775 0.097160
C27   C     C_R   0.274774 0.338270 0.561394 0.055336
C28   C     C_R   0.200829 0.737217 0.621805 0.078138
C29   C     C_R   0.340674 0.272909 0.562168 0.062837
C30   C     C_R   0.284540 0.776730 0.631204 0.052247
C31   C     C_R   0.806678 0.746853 0.622375 0.060183
C32   C     C_R   0.803077 0.260171 0.620390 0.039357
C33   C     C_R   0.320259 0.191967 0.501632 -0.060269
C34   C     C_R   0.329259 0.798896 0.508991 -0.122809
C35   C     C_R   0.813324 0.687708 0.510325 -0.091965
C36   C     C_R   0.821771 0.305596 0.500367 -0.094060
C37   C     C_R   0.239605 0.177312 0.435603 -0.184925
C38   C     C_R   0.307614 0.757225 0.388798 -0.098442
C39   C     C_R   0.761859 0.699091 0.394950 -0.095379
C40   C     C_R   0.768283 0.295041 0.386356 -0.060898
H13   H     H_    0.657555 0.770092 0.304141 0.191226
H14   H     H_    0.660188 0.226823 0.298259 0.232389
H15   H     H_    0.112262 0.229030 0.383833 0.186319
H16   H     H_    0.222238 0.666811 0.292523 0.210854
C41   C     C_R   0.702378 0.766553 0.389431 -0.123106
C42   C     C_R   0.697878 0.238081 0.389428 -0.091758
C43   C     C_R   0.175753 0.241501 0.433107 -0.163020
C44   C     C_R   0.235242 0.702106 0.385363 -0.096371
C45   C     C_R   0.699094 0.827151 0.494630 -0.089600
C46   C     C_R   0.675287 0.197378 0.509790 -0.122183
C47   C     C_R   0.192343 0.320270 0.497731 -0.063770
C48   C     C_R   0.180834 0.692713 0.500643 -0.093800
H17   H     H_    0.640674 0.992704 0.122489 0.188535
H18   H     H_    0.140843 0.500314 0.122694 0.148291
C49   C     C_R   0.335304 0.005305 0.142321 -0.185252
C50   C     C_R   0.835611 0.499211 0.142660 -0.222136
H19   H     H_    0.330797 0.000982 0.249114 0.219176
H20   H     H_    0.831758 0.499362 0.249579 0.216320
C51   C     C_R   0.253652 0.010723 0.073563 0.348340
C52   C     C_R   0.753628 0.499984 0.074655 0.299641
C53   C     C_R   0.255105 0.012316 0.933134 -0.246721
C54   C     C_R   0.754713 0.499837 0.934029 -0.188818
H21   H     H_    0.192931 0.014036 0.877373 0.210189
H22   H     H_    0.692498 0.500490 0.878422 0.249166
C55   C     C_R   0.336194 0.007221 0.862371 -0.231548
C56   C     C_R   0.835846 0.499084 0.862787 -0.251406
H23   H     H_    0.331001 0.003802 0.755480 0.228262
H24   H     H_    0.830660 0.499957 0.755777 0.233476
C57   C     C_R   0.419124 0.003911 0.929019 0.191726
C58   C     C_R   0.919020 0.499267 0.929094 0.187791
C59   C     C_R   0.418959 0.003539 0.073492 0.158139
C60   C     C_R   0.918988 0.499343 0.073499 0.211226
N1    N     N_R   0.498810 1.000000 0.142780 -0.125471
N2    N     N_R   0.998810 0.500000 0.142780 -0.112112
C61   C     C_R   0.577389 0.995981 0.070017 0.020592
C62   C     C_R   0.077511 0.500011 0.070079 0.012162
H25   H     H_    0.640139 0.992624 0.871781 0.177560
H26   H     H_    0.140787 0.500755 0.871929 0.170343
C63   C     C_R   0.577255 0.995944 0.926923 -0.061013
C64   C     C_R   0.077480 0.500269 0.926917 -0.040355
N3    N     N_R   0.498740 1.000000 0.857170 -0.133165
N4    N     N_R   0.998740 0.500000 0.857170 -0.130210
N5    N     N_R   0.528453 0.385906 0.739924 0.222341
O17   O     O_R   0.601830 0.381437 0.667456 -0.402807
O18   O     O_R   0.533146 0.400488 0.869116 -0.302884
N6    N     N_R   0.304056 0.798779 0.008383 0.196593
O19   O     O_R   0.390705 0.794223 0.024447 -0.404808
O20   O     O_R   0.253442 0.819322 0.111717 -0.366092
N7    N     N_R   0.865650 0.778998 0.988250 0.256229
O21   O     O_R   0.912361 0.709733 0.015007 -0.365357
O22   O     O_R   0.824582 0.819330 0.087430 -0.338984
N8    N     N_R   0.890955 0.244976 0.971978 0.249401
O23   O     O_R   0.975600 0.224983 0.956506 -0.334024
O24   O     O_R   0.865252 0.285820 0.081287 -0.396786
N9    N     N_R   0.841030 0.958862 0.894368 0.232615
O25   O     O_R   0.806884 0.034333 0.866683 -0.425437
O26   O     O_R   0.908776 0.956063 0.976170 -0.213777
N10   N     N_R   0.702814 0.194232 0.008646 0.206139
O27   O     O_R   0.749265 0.148975 0.093640 -0.326559
O28   O     O_R   0.618294 0.209699 0.035251 -0.402700
N11   N     N_R   0.393529 0.522631 0.735629 0.234453
O29   O     O_R   0.474051 0.555516 0.733607 -0.306935
O30   O     O_R   0.326814 0.570976 0.778264 -0.406574
N12   N     N_R   0.112835 0.764851 0.974145 0.252333
O31   O     O_R   0.112443 0.700125 0.057543 -0.348206
O32   O     O_R   0.064324 0.833493 0.000749 -0.254100
N13   N     N_R   0.169202 0.010090 0.146083 0.234132
O33   O     O_R   0.164227 0.979647 0.268028 -0.369409
O34   O     O_R   0.095618 0.034995 0.087795 -0.266756
N14   N     N_R   0.669591 0.501752 0.148652 0.217414
O35   O     O_R   0.667680 0.491189 0.278848 -0.406614
O36   O     O_R   0.594261 0.515809 0.086879 -0.283892

loop_
_geom_bond_atom_site_label_1
_geom_bond_atom_site_label_2
_geom_bond_distance
_ccdc_geom_bond_type
C50   C60   1.409153 A    
C49   C51   1.401853 A    
N13   O34   1.301526 A    
N10   O28   1.301493 A    
O10   C6    1.291647 A    
O3    C3    1.291036 A    
C44   C48   1.400588 A    
C60   N2    1.378163 A    
H4    C40   1.081267 S    
C34   C38   1.388799 A    
O7    C3    1.290442 A    
N1    C61   1.366284 A    
C22   H10   1.079009 S    
Zn1   O10   1.987736 S    
C32   C36   1.410525 A    
C7    C48   1.435544 S    
C27   C47   1.412134 A    
C26   C46   1.425737 A    
C58   C60   1.430833 A    
C33   C37   1.390915 A    
C54   C56   1.390185 A    
N5    O17   1.300012 A    
C10   C30   1.414668 A    
C21   C25   1.411750 A    
C28   C30   1.390702 A    
O8    Zn4   1.987844 S    
O2    Zn1   1.999391 S    
C1    C34   1.443246 S    
C40   C42   1.367699 A    
C24   C28   1.412875 A    
H26   C64   1.081916 S    
C55   H23   1.063683 S    
O6    Zn3   1.987844 S    
N6    O19   1.301673 A    
C59   N1    1.379727 A    
Zn3   O14   1.999384 S    
Zn1   N3    2.021606 S    
C50   C52   1.399909 A    
N5    O18   1.300218 A    
C10   C14   1.402849 A    
H16   C44   1.083422 S    
O15   C7    1.291959 A    
O4    C4    1.275013 A    
C11   C15   1.402802 A    
C15   N7    1.441130 S    
C23   H11   1.081053 S    
Zn4   N2    2.022526 S    
C12   C32   1.412294 A    
H3    C39   1.083604 S    
Zn4   O16   1.999384 S    
C19   N11   1.440999 S    
C8    C47   1.415494 S    
C13   N5    1.429094 S    
C64   N4    1.366594 A    
H2    C38   1.081007 S    
C16   C18   1.410393 A    
C25   C31   1.392869 A    
H1    C37   1.081488 S    
C26   C32   1.389789 A    
C4    C35   1.431434 S    
C31   C35   1.430941 A    
C27   C29   1.401759 A    
O5    Zn3   1.999658 S    
C30   C34   1.419466 A    
C38   C44   1.372812 A    
C22   C26   1.418394 A    
Zn2   O12   1.987736 S    
C12   H8    1.081923 S    
O1    C1    1.278795 A    
N12   O32   1.299945 A    
C14   N6    1.439577 S    
C19   C23   1.401533 A    
O12   C8    1.284224 A    
C56   C58   1.407268 A    
C16   N8    1.435875 S    
C9    H5    1.080896 S    
C62   C64   1.418578 A    
C36   C40   1.397848 A    
C11   H7    1.069579 S    
N9    O26   1.301301 A    
O5    C1    1.308260 A    
C58   N4    1.375718 A    
C51   C53   1.391814 A    
C42   C46   1.390547 A    
C17   C21   1.402734 A    
O8    C4    1.305390 A    
C52   C54   1.393282 A    
C13   C19   1.409212 A    
C63   N3    1.365301 A    
C14   C20   1.408450 A    
C54   H22   1.082416 S    
C15   C17   1.407440 A    
N7    O21   1.301242 A    
O3    Zn2   2.000706 S    
C51   N13   1.439180 S    
C9    C29   1.411986 A    
O7    Zn4   1.999658 S    
C50   H20   1.060251 S    
C6    C45   1.420896 S    
C56   H24   1.064262 S    
C49   H19   1.062225 S    
O14   C6    1.282960 A    
C5    C46   1.439086 S    
C49   C59   1.411247 A    
C37   C43   1.368156 A    
O1    Zn1   2.000706 S    
N9    O25   1.298804 A    
O2    C2    1.287290 A    
C53   C55   1.388901 A    
C39   C41   1.363230 A    
N14   O36   1.301232 A    
O11   C7    1.291570 A    
C3    C36   1.432172 S    
N8    O24   1.299671 A    
C57   C59   1.431559 A    
C2    C33   1.418352 S    
O13   C5    1.308723 A    
C10   H6    1.080025 S    
C61   C63   1.417878 A    
Zn2   O11   1.999547 S    
C20   N12   1.426732 S    
H18   C62   1.081779 S    
O16   C8    1.286463 A    
N12   O31   1.300237 A    
C18   N10   1.437070 S    
N13   O33   1.301518 A    
Zn4   O15   2.000697 S    
C18   C22   1.404342 A    
Zn1   O9    1.999547 S    
C9    C13   1.400410 A    
Zn3   N1    2.022526 S    
H25   C63   1.077954 S    
N10   O27   1.301239 A    
O9    C5    1.275997 A    
Zn2   N4    2.021606 S    
C43   C47   1.389391 A    
C28   C48   1.411575 A    
N11   O29   1.301284 A    
Zn3   O13   2.000697 S    
N2    C62   1.366609 A    
C17   N9    1.440609 S    
C21   H9    1.082799 S    
C52   N14   1.441034 S    
C35   C39   1.395410 A    
O4    Zn2   1.999391 S    
C57   N3    1.374720 A    
C25   C45   1.404571 A    
N6    O20   1.299218 A    
N7    O22   1.301805 A    
C12   C16   1.397467 A    
O6    C2    1.285241 A    
C29   C33   1.412546 A    
C20   C24   1.395282 A    
C23   C27   1.413468 A    
C53   H21   1.082977 S    
C41   C45   1.392030 A    
H14   C42   1.081616 S    
N11   O30   1.301638 A    
H13   C41   1.084206 S    
N14   O35   1.301801 A    
C11   C31   1.421527 A    
H17   C61   1.081726 S    
H15   C43   1.084784 S    
C55   C57   1.406697 A    
C24   H12   1.082708 S    
N8    O23   1.301370 A    
