data_str_m2_o4_o16_f0_pcu.sym.228
_audit_creation_date              2012-12-10T19:00:15-0500
_audit_creation_method            fapswitch 2.2
_symmetry_space_group_name_H-M    P1
_symmetry_Int_Tables_number       1
_space_group_crystal_system       triclinic
_cell_length_a                    9.617306
_cell_length_b                    10.865975
_cell_length_c                    13.309995
_cell_angle_alpha                 91.209108
_cell_angle_beta                  72.285716
_cell_angle_gamma                 90.539261
_cell_volume                      1324.66241316

loop_
_atom_site_label
_atom_site_type_symbol
_atom_type_description
_atom_site_fract_x
_atom_site_fract_y
_atom_site_fract_z
_atom_type_partial_charge
C1    C     C_R   0.504008 0.737414 0.494607 0.883376
C2    C     C_R   0.439522 0.478125 0.977947 0.140385
C3    C     C_R   0.444315 0.527577 0.879575 -0.032534
C4    C     C_R   0.529697 0.530941 0.035331 -0.003518
C5    C     C_R   0.598472 0.647250 0.003913 -0.179486
C6    C     C_R   0.570142 0.709222 0.919235 0.402506
C7    C     C_R   0.506672 0.644295 0.853076 -0.217593
C8    C     C_R   0.555740 0.470812 0.121595 0.301432
C9    C     C_R   0.689943 0.649180 0.156478 0.404529
C10   C     C_R   0.378404 0.463066 0.812162 -0.169937
C11   C     C_R   0.379444 0.934724 0.505280 -0.026085
C12   C     C_R   0.421756 0.492798 0.699663 0.785529
C13   C     C_R   0.510351 0.871502 0.491434 -0.215477
C14   C     C_R   0.638361 0.941833 0.487929 0.290907
C15   C     C_R   0.627372 0.069416 0.499219 -0.140278
C16   C     C_R   0.497685 0.130280 0.505803 -0.187398
C17   C     C_R   0.372078 0.061373 0.515049 -0.027822
C18   C     C_3   0.261542 0.071760 0.457651 0.232932
C19   C     C_3   0.273676 0.932162 0.441948 0.653498
C20   C     C_R   0.956423 0.428429 0.428863 0.224521
C21   C     C_R   0.890699 0.556624 0.577618 -0.024491
C22   C     C_R   0.037498 0.558663 0.579305 0.467648
C23   C     C_R   0.498875 0.262949 0.501145 0.808948
C24   C     C_R   0.103130 0.429476 0.428785 0.055721
C25   C     C_3   0.161770 0.433913 0.312025 -0.565044
C26   C     C_3   0.003919 0.432417 0.310481 0.628606
C27   C     C_R   0.578179 0.505504 0.300109 0.895638
C28   C     C_R   0.691672 0.697956 0.059180 0.364449
C29   C     C_R   0.619462 0.536941 0.188253 -0.212815
C30   C     C_R   0.291427 0.357355 0.849582 0.422625
C31   C     C_R   0.267992 0.322249 0.953098 -0.059026
C32   C     C_R   0.340366 0.380903 0.016439 -0.175831
Cu1   Cu    Cu3+1 0.359330 0.500020 0.500010 1.043646
Cu2   Cu    Cu3+1 0.640670 0.499980 0.499990 1.073499
H1    H     H_    0.723745 0.122495 0.497605 0.230434
H2    H     H_    0.298645 0.126583 0.384374 0.080858
H3    H     H_    0.805508 0.601465 0.639319 0.183766
H4    H     H_    0.219372 0.521718 0.284064 0.250396
H5    H     H_    0.225751 0.349975 0.279703 0.206953
H6    H     H_    0.312691 0.350695 0.096449 0.201491
H7    H     H_    0.197935 0.244294 0.983324 0.223665
H8    H     H_    0.494565 0.690193 0.784808 0.150091
N1    N     N_R   0.852320 0.499070 0.499340 -0.219175
N2    N     N_R   0.148230 0.499110 0.499340 -0.242223
O1    O     O_R   0.381190 0.680360 0.500000 -0.543631
O2    O     O_R   0.618780 0.680320 0.499990 -0.550259
O3    O     O_R   0.323230 0.500000 0.650990 -0.503151
O4    O     O_R   0.560820 0.499960 0.650980 -0.609062
O5    O     O_R   0.381220 0.319680 0.500010 -0.616676
O6    O     O_R   0.618810 0.319640 0.500000 -0.560446
O7    O     O_R   0.439180 0.500040 0.349020 -0.584065
O8    O     O_R   0.676770 0.500000 0.349010 -0.471726
O9    O     O_3   0.755507 0.709507 0.222578 -0.622597
H9    H     H_    0.788050 0.792482 0.195517 0.413155
O10   O     O_3   0.125798 0.108619 0.526298 -0.573724
H10   H     H_    0.128956 0.199724 0.530861 0.339786
O11   O     O_3   0.143574 0.870664 0.493854 -0.537293
H11   H     H_    0.158614 0.782193 0.474792 0.357671
S1    S     S_3+6 0.350540 0.886771 0.305069 0.021617
O12   O     O_2   0.357220 0.748973 0.294188 -0.307706
O13   O     O_2   0.256250 0.934191 0.242795 -0.201785
O14   O     O_3   0.520425 0.944163 0.256401 -0.504883
H12   H     H_    0.507276 0.033080 0.247472 0.359828
S2    S     S_3+6 0.057620 0.634429 0.694746 0.054537
O15   O     O_2   0.192453 0.712033 0.675133 -0.249762
O16   O     O_2   0.929429 0.717464 0.741851 -0.279950
O17   O     O_3   0.055789 0.527259 0.784475 -0.511751
H13   H     H_    0.055287 0.574360 0.849139 0.370806
O18   O     O_3   0.964430 0.542580 0.273512 -0.625703
H14   H     H_    0.022417 0.547372 0.197990 0.349337
S3    S     S_3+6 0.582175 0.871912 0.904652 0.085416
O19   O     O_2   0.557706 0.935199 0.010084 -0.135295
O20   O     O_2   0.729458 0.908272 0.832784 -0.221899
O21   O     O_3   0.453207 0.920084 0.852802 -0.484267
H15   H     H_    0.500412 0.919581 0.775435 0.339249
S4    S     S_3+6 0.954127 0.296980 0.248571 0.023215
O22   O     O_2   0.797487 0.263573 0.301021 -0.266628
O23   O     O_2   0.972609 0.322251 0.134693 -0.313619
O24   O     O_3   0.058517 0.176512 0.257064 -0.471762
H16   H     H_    0.138414 0.173709 0.189389 0.366402
O25   O     O_3   0.789497 0.791095 0.018807 -0.633619
H17   H     H_    0.830952 0.774291 0.942190 0.384478
O26   O     O_3   0.524160 0.346904 0.137585 -0.713383
H18   H     H_    0.569025 0.315096 0.189731 0.345761
O27   O     O_3   0.228800 0.284434 0.788710 -0.644285
H19   H     H_    0.283571 0.293392 0.713428 0.331494
S5    S     S_3+6 0.817174 0.882872 0.467644 0.113969
O28   O     O_2   0.853469 0.778648 0.388359 -0.168562
O29   O     O_2   0.927250 0.983488 0.427855 -0.144690
O30   O     O_3   0.831071 0.835821 0.583618 -0.432401
H20   H     H_    0.729708 0.820121 0.628292 0.318545

loop_
_geom_bond_atom_site_label_1
_geom_bond_atom_site_label_2
_ccdc_geom_bond_type
S5    O28   D    
C27   C29   S    
C8    O26   S    
Cu1   O1    S    
C12   O4    A    
S4    O24   S    
C4    C8    A    
O25   H17   S    
O30   H20   S    
O9    H9    S    
C19   O11   S    
C11   C19   S    
C8    C29   A    
S4    O23   D    
C14   S5    S    
C3    C7    A    
C30   C31   A    
C1    O2    A    
C23   O5    A    
Cu1   O5    S    
C15   C16   A    
C2    C32   A    
C18   C19   S    
C7    H8    S    
C21   N1    A    
C22   N2    A    
O26   H18   S    
C16   C17   A    
C26   S4    S    
Cu2   O2    S    
C9    C29   A    
S1    O12   D    
C13   C14   A    
C12   O3    A    
C15   H1    S    
C27   O7    A    
Cu1   Cu2   S    
C6    S3    S    
Cu2   O6    S    
S1    O13   D    
O21   H15   S    
O17   H13   S    
S2    O17   S    
C20   C24   A    
C24   C25   S    
S3    O20   D    
C23   O6    A    
C19   S1    S    
C25   C26   S    
O27   H19   S    
S2    O16   D    
C1    C13   S    
C2    C4    A    
O14   H12   S    
C25   H4    S    
C5    C28   A    
C10   C30   A    
C31   C32   A    
O10   H10   S    
C17   C18   S    
C21   H3    S    
S4    O22   D    
C30   O27   S    
C10   C12   S    
C18   O10   S    
C16   C23   S    
S5    O29   D    
Cu1   O3    S    
Cu2   O4    S    
C20   N1    A    
C27   O8    A    
C11   C17   A    
S1    O14   S    
C31   H7    S    
C28   O25   S    
Cu1   N2    S    
Cu2   N1    S    
C4    C5    A    
S3    O21   S    
C6    C7    A    
Cu1   O7    S    
Cu2   O8    S    
S2    O15   D    
C2    C3    A    
S3    O19   D    
C3    C10   A    
C25   H5    S    
C11   C13   A    
C1    O1    A    
O11   H11   S    
C5    C6    A    
C20   C26   S    
C24   N2    A    
C32   H6    S    
O18   H14   S    
C22   S2    S    
O24   H16   S    
C9    O9    S    
S5    O30   S    
C26   O18   S    
C14   C15   A    
C21   C22   A    
C18   H2    S    
C9    C28   A    
