data_str_m3_o14_o16_f0_pcu.sym.214
_audit_creation_date              2012-12-10T17:42:40-0500
_audit_creation_method            fapswitch 2.2
_symmetry_space_group_name_H-M    P1
_symmetry_Int_Tables_number       1
_space_group_crystal_system       triclinic
_cell_length_a                    9.951595
_cell_length_b                    10.571787
_cell_length_c                    12.941454
_cell_angle_alpha                 92.959488
_cell_angle_beta                  72.220955
_cell_angle_gamma                 90.458368
_cell_volume                      1294.72346659

loop_
_atom_site_label
_atom_site_type_symbol
_atom_type_description
_atom_site_fract_x
_atom_site_fract_y
_atom_site_fract_z
_atom_type_partial_charge
C1    C     C_R   0.509285 0.734701 0.476838 0.902989
C2    C     C_R   0.448661 0.391630 0.965606 0.086418
C3    C     C_R   0.490901 0.383663 0.851449 0.049656
C4    C     C_R   0.553174 0.416677 0.017520 0.081475
C5    C     C_R   0.698136 0.414279 0.955715 0.179686
C6    C     C_R   0.737263 0.381208 0.844946 -0.276546
C7    C     C_R   0.634777 0.363762 0.793613 -0.181175
C8    C     C_R   0.517267 0.451453 0.127946 -0.265531
C9    C     C_R   0.763410 0.476149 0.116504 -0.211240
C10   C     C_R   0.387961 0.400120 0.798534 -0.234171
C11   C     C_R   0.292051 0.861856 0.401245 -0.119712
C12   C     C_R   0.427069 0.463223 0.693722 0.871547
C13   C     C_R   0.160277 0.917466 0.419924 -0.130153
C14   C     C_R   0.131415 0.035066 0.475050 -0.161599
C15   C     C_R   0.237543 0.100877 0.504118 -0.169426
C16   C     C_R   0.377642 0.051659 0.474617 0.103234
C17   C     C_R   0.397551 0.924785 0.436308 0.070468
C18   C     C_R   0.521360 0.862760 0.438099 -0.186666
C19   C     C_R   0.646212 0.932605 0.422108 0.164163
C20   C     C_R   0.632996 0.062431 0.443597 -0.260051
C21   C     C_R   0.499723 0.121202 0.479542 -0.153654
C22   C     C_R   0.820717 0.696670 0.632714 0.547154
C23   C     C_R   0.498680 0.257875 0.498379 0.845698
C24   C     C_R   0.888858 0.802821 0.668335 0.089580
C25   C     C_R   0.025759 0.787789 0.669901 -0.331563
C26   C     C_R   0.099047 0.678707 0.626789 -0.156521
C27   C     C_R   0.050357 0.590372 0.562690 0.075904
C28   C     C_R   0.905551 0.594175 0.563671 -0.102337
C29   C     C_R   0.951204 0.413254 0.438449 0.572437
C30   C     C_R   0.094507 0.412952 0.440176 -0.263109
C31   C     C_R   0.576959 0.497499 0.295720 0.831308
C32   C     C_R   0.801568 0.445464 0.005655 -0.227746
C33   C     C_R   0.620965 0.478096 0.177965 -0.045062
C34   C     C_R   0.247232 0.365901 0.852413 0.191120
C35   C     C_R   0.206009 0.358231 0.965619 -0.147743
C36   C     C_R   0.303901 0.376829 0.022136 -0.259737
H1    H     H_    0.844964 0.497850 0.153958 0.157058
H2    H     H_    0.311290 0.769268 0.359376 0.151029
H3    H     H_    0.079530 0.866796 0.395268 0.127585
H4    H     H_    0.027161 0.076535 0.494404 0.146019
H5    H     H_    0.204170 0.187672 0.551515 0.167694
H6    H     H_    0.727927 0.117472 0.433697 0.210119
H7    H     H_    0.075219 0.859057 0.709205 0.174154
H8    H     H_    0.195842 0.668377 0.643801 0.239904
H9    H     H_    0.846691 0.373177 0.796704 0.160749
H10   H     H_    0.167583 0.340821 0.393526 0.165014
H11   H     H_    0.911699 0.447060 0.959440 0.145545
H12   H     H_    0.408247 0.460052 0.176394 0.158769
H13   H     H_    0.264893 0.370959 0.109065 0.131342
H14   H     H_    0.097891 0.338600 0.011058 0.140127
H15   H     H_    0.669385 0.335910 0.707895 0.178371
N1    N     N_R   0.856860 0.501200 0.500990 -0.139956
N2    N     N_R   0.142450 0.501280 0.501020 -0.125308
O1    O     O_R   0.385310 0.683220 0.500000 -0.635323
O2    O     O_R   0.614640 0.683250 0.500010 -0.551897
O3    O     O_R   0.328400 0.499950 0.653610 -0.645280
O4    O     O_R   0.557730 0.499970 0.653620 -0.544785
O5    O     O_R   0.385360 0.316750 0.499990 -0.647089
O6    O     O_R   0.614690 0.316780 0.500000 -0.584970
O7    O     O_R   0.442270 0.500030 0.346380 -0.625581
O8    O     O_R   0.671600 0.500050 0.346390 -0.592904
Zn1   Zn    Zn3+2 0.346880 0.499980 0.499990 0.905577
Zn2   Zn    Zn3+2 0.653120 0.500020 0.500010 1.004425
O9    O     O_3   0.901318 0.320500 0.380228 -0.591980
C37   C     C_3   0.987177 0.309982 0.270956 -0.376206
H16   H     H_    0.080675 0.248959 0.262331 0.165067
H17   H     H_    0.019902 0.404081 0.236921 0.146081
H18   H     H_    0.925423 0.263152 0.221701 0.203691
O10   O     O_3   0.675454 0.692278 0.670395 -0.549039
C38   C     C_3   0.623671 0.700961 0.786059 -0.261043
H19   H     H_    0.571922 0.794195 0.814223 0.157360
H20   H     H_    0.704147 0.681326 0.827314 0.135136
H21   H     H_    0.538015 0.632648 0.815395 0.185610
C39   C     C_3   0.816012 0.927136 0.719651 -0.380801
C40   C     C_3   0.729573 0.985074 0.655021 -0.848603
H22   H     H_    0.799221 0.002370 0.572487 0.244057
H23   H     H_    0.641324 0.923134 0.649845 0.291860
H24   H     H_    0.684354 0.077296 0.694957 0.242586
H25   H     H_    0.751519 0.916742 0.805047 0.195590
H26   H     H_    0.896297 0.998797 0.724553 0.202356
C41   C     C_3   0.144591 0.331379 0.789945 -0.395925
C42   C     C_3   0.064576 0.208890 0.824989 -0.942099
H27   H     H_    0.139614 0.130821 0.822845 0.271087
H28   H     H_    0.988092 0.220929 0.907589 0.265673
H29   H     H_    0.004612 0.182201 0.767777 0.246138
H30   H     H_    0.071305 0.411663 0.796736 0.195377
H31   H     H_    0.201940 0.313390 0.702813 0.231419
C43   C     C_3   0.793034 0.874561 0.377741 -0.398894
C44   C     C_3   0.815555 0.807409 0.266415 -0.849398
H32   H     H_    0.738177 0.730382 0.270977 0.251685
H33   H     H_    0.803952 0.875950 0.207399 0.257956
H34   H     H_    0.923433 0.765649 0.236751 0.237631
H35   H     H_    0.874254 0.949563 0.367392 0.190930
H36   H     H_    0.814931 0.809036 0.434651 0.227218

loop_
_geom_bond_atom_site_label_1
_geom_bond_atom_site_label_2
_ccdc_geom_bond_type
O5    Zn1   S    
C23   O5    A    
C16   C21   A    
C6    H9    S    
C28   N1    A    
C31   O8    A    
C19   C20   A    
C4    C8    A    
C25   H7    S    
C41   C42   S    
C26   H8    S    
C23   O6    A    
C1    C18   S    
C18   C19   A    
C3    C7    A    
C5    C6    A    
C15   C16   A    
O7    Zn1   S    
C34   C35   A    
O8    Zn2   S    
C9    C32   A    
C35   C36   A    
C16   C17   A    
C37   H17   S    
O2    Zn2   S    
C31   C33   S    
C38   H19   S    
C34   C41   S    
C44   H33   S    
C22   O10   S    
C41   H30   S    
C5    C32   A    
C29   O9    S    
C22   C28   A    
C13   C14   A    
C9    C33   A    
C35   H14   S    
O4    Zn2   S    
C30   N2    A    
C43   H36   S    
C39   C40   S    
C24   C25   A    
C15   H5    S    
C19   C43   S    
O1    Zn1   S    
C25   C26   A    
C31   O7    A    
C11   H2    S    
C2    C4    A    
C40   H22   S    
C8    H12   S    
C29   C30   A    
N2    Zn1   S    
C37   H18   S    
C38   H21   S    
C9    H1    S    
C17   C18   A    
C26   C27   A    
C10   C34   A    
C41   H31   S    
C43   C44   S    
C44   H34   S    
C40   H23   S    
C12   O3    A    
C10   C12   S    
C1    O1    A    
C12   O4    A    
C42   H27   S    
C42   H28   S    
C39   H25   S    
C21   C23   S    
C32   H11   S    
O3    Zn1   S    
C2    C36   A    
C43   H35   S    
C11   C17   A    
C30   H10   S    
C4    C5    A    
C39   H26   S    
N1    Zn2   S    
C20   H6    S    
C27   N2    A    
C6    C7    A    
C42   H29   S    
O6    Zn2   S    
O9    C37   S    
C2    C3    A    
C1    O2    A    
C7    H15   S    
C3    C10   A    
C11   C13   A    
C24   C39   S    
C22   C24   A    
C8    C33   A    
O10   C38   S    
C40   H24   S    
C13   H3    S    
C14   H4    S    
C20   C21   A    
C37   H16   S    
C27   C28   A    
C14   C15   A    
C38   H20   S    
C44   H32   S    
C36   H13   S    
C29   N1    A    
