data_str_m2_o10_o29_f0_pcu.sym.164
_audit_creation_date              2012-12-10T16:51:15-0500
_audit_creation_method            fapswitch 2.2
_symmetry_space_group_name_H-M    P1
_symmetry_Int_Tables_number       1
_space_group_crystal_system       triclinic
_cell_length_a                    27.746835
_cell_length_b                    8.675299
_cell_length_c                    7.443218
_cell_angle_alpha                 103.081357
_cell_angle_beta                  94.039166
_cell_angle_gamma                 92.426216
_cell_volume                      1737.70933333

loop_
_atom_site_label
_atom_site_type_symbol
_atom_type_description
_atom_site_fract_x
_atom_site_fract_y
_atom_site_fract_z
_atom_type_partial_charge
C1    C     C_R   0.498544 0.199649 0.453136 0.887921
C2    C     C_R   0.501463 0.800352 0.546864 0.887137
C3    C     C_R   0.102898 0.488474 0.547578 -0.040898
C4    C     C_R   0.898654 0.492830 0.520336 -0.043153
C5    C     C_R   0.125389 0.346286 0.482310 -0.022079
C6    C     C_R   0.875944 0.637328 0.544524 -0.020147
C7    C     C_R   0.097126 0.204317 0.422513 -0.130455
C8    C     C_R   0.904175 0.779851 0.585333 -0.135482
C9    C     C_R   0.131692 0.630437 0.613622 -0.025615
C10   C     C_R   0.869994 0.349874 0.486455 -0.031225
C11   C     C_R   0.354809 0.497539 0.509557 -0.096001
C12   C     C_R   0.645368 0.501760 0.492562 -0.116654
C13   C     C_R   0.972189 0.344289 0.493162 0.045262
C14   C     C_R   0.029514 0.635068 0.599124 0.040447
C15   C     C_R   0.978313 0.637013 0.579546 0.046676
C16   C     C_R   0.023286 0.343551 0.488801 0.044043
C17   C     C_R   0.949922 0.491364 0.531175 0.076598
C18   C     C_R   0.051708 0.488929 0.545689 0.078281
C19   C     C_R   0.942310 0.202811 0.460232 -0.210478
C20   C     C_R   0.059529 0.774646 0.670391 -0.210347
C21   C     C_R   0.892257 0.206007 0.458748 -0.117336
C22   C     C_R   0.109630 0.771872 0.678287 -0.107570
C23   C     C_R   0.407562 0.499440 0.502723 0.823302
C24   C     C_R   0.592487 0.500693 0.497446 0.826712
C25   C     C_R   0.047112 0.202461 0.426682 -0.212556
C26   C     C_R   0.954336 0.780103 0.603806 -0.209494
C27   C     C_2   0.497845 0.031647 0.426813 -0.359868
C28   C     C_2   0.502170 0.968357 0.573188 -0.360191
C29   C     C_R   0.175829 0.350220 0.475352 0.604199
C30   C     C_R   0.825239 0.635713 0.526881 0.588733
C31   C     C_R   0.182132 0.627708 0.611462 0.675048
C32   C     C_R   0.819464 0.354451 0.482694 0.654012
C33   C     C_R   0.275193 0.539887 0.375598 0.420614
C34   C     C_R   0.716831 0.441613 0.322761 0.439632
C35   C     C_R   0.325503 0.539885 0.368998 -0.298422
C36   C     C_R   0.666410 0.444255 0.326118 -0.298084
C37   C     C_R   0.333422 0.451748 0.655928 -0.200307
C38   C     C_R   0.675182 0.559955 0.655932 -0.144266
C39   C     C_R   0.283391 0.447226 0.661051 -0.070856
C40   C     C_R   0.725171 0.558001 0.654069 -0.053545
C41   C     C_R   0.254125 0.492633 0.523420 0.228845
C42   C     C_R   0.746364 0.497730 0.489520 0.210284
Cu1   Cu    Cu3+1 0.505380 0.517380 0.684380 0.962942
Cu2   Cu    Cu3+1 0.494620 0.482620 0.315620 0.961131
H1    H     H_    0.355311 0.416882 0.764750 0.167722
H2    H     H_    0.659886 0.606888 0.785711 0.188172
H3    H     H_    0.462137 0.378036 0.948574 0.225059
H4    H     H_    0.537861 0.621971 0.051422 0.228747
H5    H     H_    0.267166 0.408571 0.772653 0.219615
H6    H     H_    0.747709 0.602712 0.781626 0.210961
H7    H     H_    0.113554 0.093418 0.371288 0.199807
H8    H     H_    0.887574 0.892512 0.605154 0.184407
H9    H     H_    0.643460 0.400259 0.199520 0.187412
H10   H     H_    0.341999 0.574334 0.255342 0.190242
H11   H     H_    0.870938 0.094554 0.432445 0.196601
H12   H     H_    0.131021 0.882152 0.732668 0.198338
H13   H     H_    0.956513 0.087110 0.438778 0.135882
H14   H     H_    0.045430 0.888097 0.724962 0.146359
H15   H     H_    0.028037 0.088621 0.374175 0.144887
H16   H     H_    0.973367 0.894867 0.632207 0.135026
H17   H     H_    0.493769 0.959740 0.285893 0.180324
H18   H     H_    0.506248 0.040264 0.714109 0.179817
N1    N     N_R   0.202850 0.490235 0.536121 -0.456830
N2    N     N_R   0.798119 0.495370 0.495471 -0.454670
N3    N     N_2   0.486510 0.456430 0.038510 -0.216661
N4    N     N_2   0.513490 0.543570 0.961490 -0.215466
O1    O     O_R   0.503500 0.286120 0.619780 -0.584331
O2    O     O_R   0.496500 0.713880 0.380220 -0.584464
O3    O     O_R   0.494410 0.256780 0.308360 -0.584308
O4    O     O_R   0.505590 0.743220 0.691640 -0.584495
O5    O     O_R   0.434810 0.514700 0.655690 -0.589524
O6    O     O_R   0.565190 0.485300 0.344310 -0.589878
O7    O     O_R   0.425720 0.485350 0.344280 -0.580517
O8    O     O_R   0.574280 0.514650 0.655720 -0.579234
O9    O     O_2   0.197711 0.215730 0.407461 -0.491890
O10   O     O_2   0.803152 0.773202 0.541751 -0.495267
O11   O     O_2   0.791900 0.219621 0.468612 -0.460566
O12   O     O_2   0.210272 0.761709 0.680860 -0.473693
S1    S     S_3+6 0.741802 0.372763 0.108761 0.020810
O13   O     O_2   0.781323 0.489201 0.086507 -0.275377
O14   O     O_2   0.762903 0.215194 0.102946 -0.239352
O15   O     O_3   0.698975 0.351833 0.932121 -0.547145
H19   H     H_    0.682495 0.246221 0.921407 0.358295
S2    S     S_3+6 0.239609 0.593697 0.194863 0.014195
O16   O     O_2   0.210196 0.449703 0.084321 -0.268840
O17   O     O_2   0.205738 0.718036 0.271868 -0.259663
O18   O     O_3   0.275037 0.664943 0.054348 -0.532418
H20   H     H_    0.287511 0.771260 0.126445 0.365129

loop_
_geom_bond_atom_site_label_1
_geom_bond_atom_site_label_2
_ccdc_geom_bond_type
O18   H20   S    
C29   N1    A    
C30   N2    A    
C8    C26   A    
C14   C18   A    
C34   C42   A    
S2    O18   S    
C39   C41   A    
C19   H13   S    
C3    C18   A    
C19   C21   A    
S2    O17   D    
C2    O2    A    
C9    C22   A    
C14   C20   A    
C11   C37   A    
C36   H9    S    
C27   H17   S    
C1    O1    A    
C32   O11   S    
C5    C7    A    
C12   C36   A    
C8    H8    S    
Cu1   O8    S    
C40   C42   A    
C35   H10   S    
Cu2   N3    S    
C23   O7    A    
C5    C29   A    
C10   C21   A    
C13   C19   A    
C31   N1    A    
S2    O16   D    
C32   N2    A    
C4    C6    A    
C21   H11   S    
C15   C26   A    
C6    C8    A    
C1    O3    A    
Cu1   Cu2   S    
C3    C9    A    
C23   O5    A    
C34   S1    S    
C30   O10   S    
Cu2   O3    S    
C4    C17   A    
Cu1   O1    S    
C39   H5    S    
C20   C22   A    
O15   H19   S    
Cu1   O4    S    
Cu2   O2    S    
C41   N1    S    
C20   H14   S    
C42   N2    S    
C24   O6    A    
C31   O12   S    
S1    O14   D    
C16   C25   A    
C15   C17   A    
Cu1   O5    S    
C6    C30   A    
C4    C10   A    
C3    C5    A    
S1    O15   S    
C22   H12   S    
C29   O9    S    
C12   C24   S    
C7    C25   A    
C13   C17   A    
C33   C41   A    
C11   C35   A    
C7    H7    S    
C37   C39   A    
C38   C40   A    
C24   O8    A    
C26   H16   S    
Cu1   N4    S    
C40   H6    S    
C11   C23   S    
C33   C35   A    
Cu2   O6    S    
C34   C36   A    
C12   C38   A    
Cu2   O7    S    
C33   S2    S    
C38   H2    S    
C9    C31   A    
S1    O13   D    
C10   C32   A    
C16   C18   A    
N3    N4    D    
C13   C16   A    
C27   C28   D    
C1    C27   S    
C14   C15   A    
C2    C28   S    
C25   H15   S    
H4    N4    S    
C2    O4    A    
C37   H1    S    
H3    N3    S    
C28   H18   S    
