data_str_m3_o5_o29_f0_pcu.sym.21
_audit_creation_date              2013-03-05T16:48:41-0500
_audit_creation_method            fapswitch 2.2
_symmetry_space_group_name_H-M    P1
_symmetry_Int_Tables_number       1
_space_group_crystal_system       triclinic
_cell_length_a                    27.75299
_cell_length_b                    8.950215
_cell_length_c                    8.096284
_cell_angle_alpha                 89.999618
_cell_angle_beta                  90.000495
_cell_angle_gamma                 90.000393
_cell_volume                      2011.07830505

loop_
_atom_site_label
_atom_site_type_symbol
_atom_site_description
_atom_site_fract_x
_atom_site_fract_y
_atom_site_fract_z
_atom_type_partial_charge
O1    O     O_R   0.500000 0.285350 0.636850 -0.614120
O2    O     O_R   0.500000 0.714650 0.363150 -0.614124
O3    O     O_R   0.500000 0.714650 0.636850 -0.614124
O4    O     O_R   0.500000 0.285350 0.363150 -0.614121
C1    C     C_R   0.500000 0.217926 0.500000 0.944034
C2    C     C_R   0.500000 0.782073 0.500000 0.944027
O5    O     O_R   0.428760 0.500000 0.636860 -0.623454
O6    O     O_R   0.571240 0.500000 0.363140 -0.623459
O7    O     O_R   0.571240 0.500000 0.636860 -0.623457
O8    O     O_R   0.428760 0.500000 0.363140 -0.623459
C3    C     C_R   0.405735 0.500012 0.499998 0.892602
C4    C     C_R   0.594265 0.499995 0.500000 0.892606
Zn1   Zn    Zn3+2 0.500000 0.500000 0.682780 0.999706
Zn2   Zn    Zn3+2 0.500000 0.500000 0.317220 0.999704
C5    C     C_R   0.177408 0.367846 0.482344 0.482789
C6    C     C_R   0.822591 0.632560 0.482409 0.482770
C7    C     C_R   0.177395 0.632771 0.517557 0.482807
C8    C     C_R   0.822607 0.367628 0.517551 0.482833
O9    O     O_2   0.202496 0.239546 0.465272 -0.540262
O10   O     O_2   0.797503 0.760860 0.465359 -0.540288
O11   O     O_2   0.202468 0.761097 0.534616 -0.540309
O12   O     O_2   0.797534 0.239296 0.534595 -0.540269
N1    N     N_R   0.201242 0.500322 0.499951 -0.361769
N2    N     N_R   0.798760 0.500080 0.499981 -0.361768
C9    C     C_R   0.277741 0.515022 0.349979 0.137104
C10   C     C_R   0.722264 0.485349 0.349985 0.137084
C11   C     C_R   0.277731 0.485539 0.649975 0.137066
C12   C     C_R   0.722264 0.514746 0.649991 0.137079
C13   C     C_R   0.327833 0.514500 0.350818 -0.175737
C14   C     C_R   0.672172 0.485711 0.350823 -0.175730
C15   C     C_R   0.327823 0.485826 0.649149 -0.175718
C16   C     C_R   0.672172 0.514309 0.649164 -0.175730
C17   C     C_R   0.252595 0.500330 0.499973 0.237441
C18   C     C_R   0.747405 0.500049 0.499988 0.237445
C19   C     C_R   0.101550 0.500265 0.499963 -0.053374
C20   C     C_R   0.898451 0.500140 0.499982 -0.053376
C21   C     C_R   0.127048 0.365157 0.482428 -0.017135
C22   C     C_R   0.872950 0.635252 0.482492 -0.017115
C23   C     C_R   0.127034 0.635404 0.517489 -0.017119
C24   C     C_R   0.872968 0.364997 0.517470 -0.017138
C25   C     C_R   0.101864 0.231166 0.463745 -0.137553
C26   C     C_R   0.898135 0.769247 0.463848 -0.137544
C27   C     C_R   0.101833 0.769363 0.536185 -0.137569
C28   C     C_R   0.898169 0.231033 0.536112 -0.137568
C29   C     C_R   0.353096 0.500096 0.499991 -0.139560
C30   C     C_R   0.646904 0.499998 0.499998 -0.139559
H1    H     H_    0.346881 0.474211 0.765284 0.181143
H2    H     H_    0.653112 0.525848 0.765299 0.181148
H3    H     H_    0.346898 0.526022 0.234694 0.181150
H4    H     H_    0.653110 0.474186 0.234692 0.181149
H5    H     H_    0.120708 0.126683 0.444711 0.187777
H6    H     H_    0.879291 0.873732 0.444846 0.187763
H7    H     H_    0.120665 0.873869 0.555222 0.187736
H8    H     H_    0.879338 0.126525 0.555107 0.187725
C31   C     C_R   0.974621 0.362622 0.507165 0.048241
C32   C     C_R   0.025379 0.637783 0.507206 0.048241
C33   C     C_R   0.974605 0.637753 0.492795 0.048237
C34   C     C_R   0.025395 0.362654 0.492745 0.048240
C35   C     C_R   0.949391 0.500172 0.499982 0.069487
C36   C     C_R   0.050609 0.500234 0.499972 0.069488
C37   C     C_R   0.948144 0.229628 0.530992 -0.221166
C38   C     C_R   0.051858 0.770772 0.531076 -0.221190
C39   C     C_R   0.948110 0.770714 0.468967 -0.221193
C40   C     C_R   0.051889 0.229697 0.468872 -0.221198
H9    H     H_    0.965301 0.123376 0.551900 0.133402
H10   H     H_    0.034701 0.877018 0.552020 0.133425
H11   H     H_    0.965254 0.876985 0.448056 0.133425
H12   H     H_    0.034746 0.123427 0.447940 0.133441
C41   C     C_1   0.500000 0.065145 0.499999 -0.180008
C42   C     C_1   0.500000 0.934855 0.500000 -0.180007
N3    N     N_1   0.500000 0.500000 0.073640 -0.034184
N4    N     N_1   0.500000 0.500000 0.926360 -0.034183
N5    N     N_3   0.252887 0.469943 0.804018 -0.445670
H13   H     H_    0.230842 0.375434 0.797318 0.208710
H14   H     H_    0.230833 0.563427 0.820595 0.208779
N6    N     N_3   0.747104 0.530429 0.804035 -0.445658
H15   H     H_    0.769114 0.625020 0.797337 0.208735
H16   H     H_    0.769193 0.437024 0.820624 0.208753
N7    N     N_3   0.252908 0.530745 0.195932 -0.445649
H17   H     H_    0.230910 0.625369 0.202620 0.208739
H18   H     H_    0.230802 0.437369 0.179341 0.208754
N8    N     N_3   0.747102 0.469802 0.195923 -0.445669
H19   H     H_    0.769133 0.375261 0.202525 0.208694
H20   H     H_    0.769169 0.563267 0.179417 0.208802

loop_
_geom_bond_atom_site_label_1
_geom_bond_atom_site_label_2
_geom_bond_distance
_ccdc_geom_bond_type
C31   C35   1.417496 A    
N5    H14   1.045326 S    
Zn2   N3    1.972093 S    
C20   C35   1.413762 A    
C13   H3    1.083755 S    
C11   C17   1.406781 A    
C5    O9    1.350003 S    
C7    N1    1.365145 A    
O1    C1    1.261660 A    
C40   H12   1.076916 S    
C19   C21   1.408272 A    
N6    H16   1.045354 S    
C22   C26   1.396273 A    
C7    C23   1.397864 A    
C33   C35   1.417507 A    
C34   C36   1.417514 A    
C32   C33   1.413957 A    
N5    H13   1.045339 S    
O7    Zn1   2.011775 S    
C5    C21   1.397842 A    
C1    C41   1.367424 S    
C27   H7    1.082488 S    
N1    C17   1.425224 S    
C8    N2    1.365149 A    
C8    O12   1.350006 S    
C24   C28   1.396271 A    
O3    Zn1   1.956819 S    
C6    O10   1.349989 S    
O3    C2    1.261648 A    
C5    N1    1.365161 A    
C14   H4    1.083752 S    
C12   C18   1.406799 A    
C6    N2    1.365142 A    
C15   H1    1.083802 S    
C21   C25   1.396278 A    
C16   H2    1.083781 S    
O2    C2    1.261660 A    
C10   C18   1.406803 A    
C33   C39   1.412124 A    
C9    C13   1.390227 A    
C39   H11   1.076897 S    
C38   H10   1.076909 S    
C11   C15   1.390232 A    
C12   C16   1.390227 A    
N6    H15   1.045373 S    
C4    C30   1.460895 S    
O8    Zn2   2.011778 S    
N7    H18   1.045408 S    
C23   C27   1.396290 A    
C34   C40   1.412133 A    
C7    O11   1.349980 S    
C32   C36   1.417508 A    
C13   C29   1.402430 A    
C19   C36   1.413762 A    
C19   C23   1.408290 A    
C28   H8    1.082448 S    
O5    C3    1.279115 A    
C20   C24   1.408271 A    
O6    C4    1.279101 A    
C10   C14   1.390229 A    
N8    H20   1.045321 S    
C32   C38   1.412131 A    
C3    C29   1.460901 S    
O1    Zn1   1.956824 S    
C12   N6    1.431920 S    
C2    C42   1.367424 S    
O6    Zn2   2.011769 S    
C9    N7    1.431893 S    
C16   C30   1.402386 A    
C14   C30   1.402433 A    
O4    C1    1.261648 A    
Zn1   N4    1.972093 S    
C28   C37   1.387616 A    
C20   C22   1.408284 A    
N3    N4    1.192420 T    
C31   C37   1.412115 A    
O4    Zn2   1.956819 S    
C41   C42   1.166130 T    
O2    Zn2   1.956823 S    
O7    C4    1.279112 A    
N2    C18   1.425230 S    
C9    C17   1.406798 A    
O8    C3    1.279100 A    
N7    H17   1.045418 S    
C37   H9    1.076910 S    
O5    Zn1   2.011772 S    
C8    C24   1.397859 A    
C10   N8    1.431918 S    
N8    H19   1.045327 S    
C15   C29   1.402367 A    
C31   C34   1.413954 A    
C6    C22   1.397834 A    
C25   C40   1.387614 A    
C11   N5    1.431914 S    
C26   C39   1.387634 A    
C25   H5    1.082488 S    
C27   C38   1.387640 A    
C26   H6    1.082452 S    
