data_str_m12_o9_o22_f0_bcu.sym.28
_audit_creation_date              2012-12-11T17:45:25-0500
_audit_creation_method            fapswitch 2.2
_symmetry_space_group_name_H-M    P1
_symmetry_Int_Tables_number       1
_space_group_crystal_system       triclinic
_cell_length_a                    14.998888
_cell_length_b                    14.92872
_cell_length_c                    15.103454
_cell_angle_alpha                 110.330606
_cell_angle_beta                  109.145704
_cell_angle_gamma                 109.070054
_cell_volume                      2598.8008178

loop_
_atom_site_label
_atom_site_type_symbol
_atom_type_description
_atom_site_fract_x
_atom_site_fract_y
_atom_site_fract_z
_atom_type_partial_charge
C1    C     C_R   0.972701 0.248201 0.061620 -0.123471
C2    C     C_R   0.705780 0.193703 0.794785 -0.138651
C3    C     C_R   0.777335 0.592244 0.024081 -0.090034
C4    C     C_R   0.314973 0.759566 0.225027 -0.132781
C5    C     C_R   0.940819 0.408931 0.685515 -0.136502
C6    C     C_R   0.675349 0.500051 0.948460 0.023783
C7    C     C_R   0.957221 0.503084 0.678634 0.044903
C8    C     C_R   0.704816 0.128102 0.702684 0.068432
C9    C     C_R   0.063940 0.870171 0.074505 0.070914
C10   C     C_R   0.616636 0.226688 0.091024 -0.109877
C11   C     C_R   0.686700 0.321283 0.194298 -0.160202
C12   C     C_R   0.324269 0.789191 0.327639 0.056942
C13   C     C_R   0.751298 0.315803 0.281554 0.105433
C14   C     C_R   0.738264 0.212660 0.265729 -0.160072
C15   C     C_R   0.665631 0.117796 0.163057 -0.123496
C16   C     C_R   0.208282 0.407986 0.903282 -0.148348
C17   C     C_R   0.606292 0.125228 0.075397 -0.101540
C18   C     C_R   0.848465 0.423791 0.482656 -0.239524
C19   C     C_R   0.938690 0.511513 0.582582 0.068471
C20   C     C_R   0.017097 0.600761 0.587890 -0.008714
C21   C     C_R   0.002817 0.599375 0.493191 -0.226656
C22   C     C_R   0.920629 0.506323 0.392387 0.057914
C23   C     C_R   0.300600 0.499005 0.933051 0.026847
C24   C     C_R   0.839562 0.417927 0.385851 0.033845
C25   C     C_R   0.145987 0.793310 0.747249 -0.168008
C26   C     C_R   0.245034 0.870370 0.844024 -0.098992
C27   C     C_R   0.324395 0.841833 0.878209 -0.098441
C28   C     C_R   0.994322 0.591530 0.297823 -0.123233
C29   C     C_R   0.305744 0.736768 0.815230 -0.100044
C30   C     C_R   0.206317 0.658620 0.719448 -0.060719
C31   C     C_R   0.125061 0.685966 0.685785 0.152595
C32   C     C_R   0.254354 0.043073 0.529956 -0.119484
C33   C     C_R   0.329659 0.012612 0.516965 -0.160455
C34   C     C_R   0.938051 0.500653 0.301994 0.071451
C35   C     C_R   0.339848 0.930996 0.538354 -0.065293
C36   C     C_R   0.273754 0.880472 0.574890 0.508823
C37   C     C_R   0.194773 0.908280 0.581765 -0.171327
C38   C     C_R   0.185706 0.989670 0.560458 -0.223544
C39   C     C_R   0.525806 0.974907 0.627074 -0.222191
C40   C     C_R   0.299939 0.590902 0.995979 -0.143103
C41   C     C_R   0.621779 0.011278 0.622756 0.050759
C42   C     C_R   0.622020 0.947408 0.528278 0.029426
C43   C     C_R   0.522461 0.865194 0.434612 -0.245316
C44   C     C_R   0.424898 0.853002 0.432731 0.078192
C45   C     C_R   0.686847 0.407831 0.931454 -0.115102
C46   C     C_R   0.427496 0.909305 0.531579 0.012704
C47   C     C_R   0.736925 0.006392 0.450046 -0.199852
C48   C     C_R   0.840286 0.055051 0.462037 -0.116612
C49   C     C_R   0.928816 0.065482 0.543145 -0.114206
C50   C     C_R   0.913671 0.025258 0.610908 -0.136022
C51   C     C_R   0.811061 0.978332 0.600751 -0.141802
C52   C     C_R   0.910774 0.408769 0.210687 -0.140626
C53   C     C_R   0.722725 0.971767 0.522372 0.123493
C54   C     C_3   0.555298 0.580033 0.898588 -0.471044
C55   C     C_3   0.455686 0.586537 0.903848 -0.421111
C56   C     C_R   0.021199 0.592491 0.782207 -0.122591
C57   C     C_3   0.472632 0.383678 0.852097 -0.420147
C58   C     C_3   0.584241 0.542474 0.052395 0.397681
C59   C     C_3   0.574013 0.500582 0.936925 0.237182
C60   C     C_3   0.397269 0.499009 0.928918 0.335958
C61   C     C_3   0.368359 0.385701 0.840799 -0.408268
C62   C     C_3   0.474691 0.523948 0.042620 -0.484870
C63   C     C_R   0.177726 0.063356 0.811828 -0.136132
C64   C     C_R   0.220279 0.751344 0.313228 -0.115863
C65   C     C_R   0.134302 0.062998 0.880396 -0.196678
C66   C     C_R   0.199842 0.138649 0.992771 0.107381
C67   C     C_R   0.793013 0.195463 0.701194 -0.144646
C68   C     C_R   0.308767 0.214238 0.035751 -0.142844
C69   C     C_R   0.351773 0.213092 0.966639 -0.136972
C70   C     C_R   0.286988 0.136977 0.854986 -0.111046
C71   C     C_R   0.169183 0.042634 0.087194 -0.231207
C72   C     C_R   0.098784 0.988037 0.115596 0.057792
C73   C     C_R   0.049469 0.041716 0.162148 0.022617
C74   C     C_R   0.058150 0.136288 0.159994 -0.239465
C75   C     C_R   0.095922 0.165606 0.095212 0.062253
C76   C     C_R   0.067948 0.252382 0.974190 -0.141141
C77   C     C_R   0.159718 0.122978 0.065393 0.027991
C78   C     C_R   0.001176 0.802328 0.097825 -0.150545
C79   C     C_R   0.861234 0.942259 0.127828 -0.144939
C80   C     C_R   0.789156 0.888490 0.155588 -0.174928
C81   C     C_R   0.829327 0.885265 0.251257 -0.091310
C82   C     C_R   0.941546 0.940534 0.321977 -0.111317
C83   C     C_R   0.013944 0.998712 0.297013 -0.192560
C84   C     C_R   0.974133 0.995041 0.197140 0.117125
C85   C     C_R   0.050815 0.222804 0.047663 0.058134
C86   C     C_R   0.094259 0.807112 0.010228 -0.147038
H1    H     H_    0.937065 0.234953 0.110289 0.093678
H2    H     H_    0.573032 0.232277 0.022182 0.093506
H3    H     H_    0.696174 0.399934 0.205299 0.168859
H4    H     H_    0.379541 0.775615 0.205533 0.091147
H5    H     H_    0.787493 0.206281 0.331567 0.106840
H6    H     H_    0.657748 0.039100 0.150788 0.108001
H7    H     H_    0.788512 0.356504 0.479951 0.128426
H8    H     H_    0.066909 0.665648 0.499272 0.166897
H9    H     H_    0.083752 0.815244 0.722880 0.103041
H10   H     H_    0.259912 0.951532 0.894043 0.136043
H11   H     H_    0.400009 0.900743 0.954028 0.093989
H12   H     H_    0.042698 0.676767 0.807696 0.115446
H13   H     H_    0.368152 0.715989 0.841606 0.090719
H14   H     H_    0.191807 0.576500 0.672549 0.092570
H15   H     H_    0.126376 0.012487 0.569092 0.122741
H16   H     H_    0.176435 0.322815 0.845323 0.097831
H17   H     H_    0.249770 0.108625 0.516985 0.112204
H18   H     H_    0.382157 0.054510 0.492625 0.133336
H19   H     H_    0.140360 0.866974 0.604348 0.130338
H20   H     H_    0.523738 0.015959 0.700349 0.127592
H21   H     H_    0.521962 0.818150 0.361192 0.125037
H22   H     H_    0.670108 0.003377 0.390085 0.116409
H23   H     H_    0.824436 0.174061 0.647799 0.133072
H24   H     H_    0.852163 0.086656 0.409839 0.124659
H25   H     H_    0.009212 0.105137 0.553751 0.099987
H26   H     H_    0.982027 0.034272 0.674087 0.112972
H27   H     H_    0.015198 0.675511 0.347924 0.097775
H28   H     H_    0.801781 0.953160 0.657831 0.111662
H29   H     H_    0.540395 0.549814 0.813803 0.187821
H30   H     H_    0.628018 0.663720 0.950385 0.152076
H31   H     H_    0.483862 0.670743 0.968042 0.144399
H32   H     H_    0.398164 0.571072 0.824443 0.164529
H33   H     H_    0.468247 0.354125 0.771405 0.170781
H34   H     H_    0.977621 0.822931 0.157992 0.132942
H35   H     H_    0.317942 0.369334 0.758106 0.162089
H36   H     H_    0.641502 0.633006 0.102575 0.089417
H37   H     H_    0.488026 0.598943 0.109036 0.141385
H38   H     H_    0.356042 0.675863 0.026816 0.085864
H39   H     H_    0.437858 0.454263 0.054534 0.187389
H40   H     H_    0.477059 0.323048 0.877182 0.137985
H41   H     H_    0.320970 0.318278 0.849244 0.166993
H42   H     H_    0.321358 0.135412 0.802059 0.125122
H43   H     H_    0.127299 0.003918 0.725988 0.107787
H44   H     H_    0.050734 0.001907 0.846702 0.120064
H45   H     H_    0.154040 0.836145 0.987367 0.098751
H46   H     H_    0.360975 0.270978 0.122650 0.122514
H47   H     H_    0.435559 0.270417 0.000024 0.101170
H48   H     H_    0.217592 0.010669 0.062867 0.124367
H49   H     H_    0.020286 0.175804 0.196062 0.127216
H50   H     H_    0.861052 0.323509 0.183186 0.119313
H51   H     H_    0.829359 0.940522 0.051316 0.114746
H52   H     H_    0.702278 0.847479 0.101977 0.105033
H53   H     H_    0.773535 0.840786 0.271137 0.121303
H54   H     H_    0.972215 0.936893 0.395312 0.122537
H55   H     H_    0.100534 0.039707 0.350955 0.119052
H56   H     H_    0.659847 0.167358 0.831603 0.087818
H57   H     H_    0.194728 0.750893 0.371507 0.114106
H58   H     H_    0.124190 0.248992 0.945899 0.127459
H59   H     H_    0.624772 0.322104 0.880506 0.088242
H60   H     H_    0.336186 0.786549 0.588340 0.317132
H61   H     H_    0.587583 0.416332 0.061140 0.303038
H62   H     H_    0.796906 0.677257 0.060706 0.096058
H63   H     H_    0.895394 0.324404 0.619556 0.101467
H64   H     H_    0.553636 0.052859 0.994921 0.104848
N1    N     N_R   0.947080 0.293830 0.002870 -0.041597
N2    N     N_R   0.153670 0.443180 0.946090 -0.037227
N3    N     N_R   0.002360 0.556820 0.208890 -0.043845
N4    N     N_R   0.210070 0.556820 0.002870 -0.033958
N5    N     N_R   0.945960 0.443180 0.152110 -0.041429
N6    N     N_R   0.151710 0.706170 0.208890 -0.045031
N7    N     N_R   0.004320 0.293830 0.946090 -0.041823
N8    N     N_R   0.789930 0.443180 0.997130 -0.034801
N9    N     N_R   0.054040 0.556820 0.847890 -0.040971
N10   N     N_R   0.848290 0.293830 0.791110 -0.042130
N11   N     N_R   0.995680 0.706170 0.053910 -0.045054
N12   N     N_R   0.052920 0.706170 0.997130 -0.041432
N13   N     N_R   0.791050 0.293830 0.847890 -0.041501
N14   N     N_R   0.846330 0.556820 0.053910 -0.034892
N15   N     N_R   0.997640 0.443180 0.791110 -0.040154
N16   N     N_R   0.208950 0.706170 0.152110 -0.040086
Ni1   Ni    Ni4+2 0.869690 0.369690 0.000000 0.214686
Ni2   Ni    Ni4+2 0.130310 0.630310 0.000000 0.212909
Ni3   Ni    Ni4+2 0.000970 0.369690 0.869780 0.213545
Ni4   Ni    Ni4+2 0.999030 0.630310 0.130220 0.221876
O1    O     O_3   0.281012 0.802291 0.601128 -0.782282
O2    O     O_3   0.627502 0.496897 0.110211 -0.770533

loop_
_geom_bond_atom_site_label_1
_geom_bond_atom_site_label_2
_ccdc_geom_bond_type
C25   C31   A    
C39   H20   S    
C66   C68   A    
C63   C65   A    
C58   C62   S    
C6    C45   A    
C27   C29   A    
C33   H18   S    
C41   C42   A    
N14   Ni4   S    
C17   H64   S    
C9    C72   S    
C56   H12   S    
C3    C6    A    
N4    Ni2   S    
C71   H48   S    
N11   N12   A    
C39   C41   A    
C52   N5    A    
C26   H10   S    
C10   H2    S    
C26   C27   A    
C29   C30   A    
C83   C84   A    
C45   H59   S    
N1    N7    A    
C61   H35   S    
C36   C37   A    
C56   N9    A    
C32   C38   A    
C42   C53   S    
C30   C31   A    
C12   C64   A    
C80   H52   S    
C86   H45   S    
C57   C59   S    
C21   H8    S    
C10   C17   A    
C23   C40   A    
C30   H14   S    
C5    H63   S    
N9    Ni2   S    
C60   C62   S    
C18   C19   A    
C73   C74   A    
C1    H1    S    
C68   H46   S    
C82   H54   S    
C13   C14   A    
N7    Ni3   S    
C15   H6    S    
C75   C85   S    
C35   C36   A    
N5    Ni1   S    
C68   C69   A    
C54   H30   S    
N3    Ni4   S    
N10   Ni3   S    
C67   N10   A    
C86   N12   A    
C5    N15   A    
C4    C12   A    
C73   C84   S    
N8    N14   A    
C57   H33   S    
C28   C34   A    
C3    H62   S    
C21   C22   A    
C74   H49   S    
N16   Ni2   S    
C40   N4    A    
C7    C56   A    
C40   H38   S    
C62   H37   S    
C44   C46   A    
N8    Ni1   S    
C81   C82   A    
C4    H4    S    
C54   C59   S    
N15   Ni3   S    
C23   C60   S    
C22   C34   S    
C76   N7    A    
C58   H36   S    
C51   H28   S    
C74   C75   A    
C29   H13   S    
N10   N13   A    
C8    C41   S    
C16   N2    A    
C10   C11   A    
C57   H40   S    
C83   H55   S    
C72   C73   A    
C52   H50   S    
C25   C26   A    
C82   C83   A    
N9    N15   A    
C13   C24   S    
C60   C61   S    
C51   C53   A    
C78   H34   S    
C43   C44   A    
C37   H19   S    
C37   C38   A    
C9    C86   A    
C11   H3    S    
C47   H22   S    
C47   C48   A    
C63   C70   A    
N6    N16   A    
N13   Ni1   S    
C54   H29   S    
C50   H26   S    
C50   C51   A    
C32   H17   S    
C61   H41   S    
C43   H21   S    
C57   C61   S    
C75   C77   A    
C3    N14   A    
C8    C67   A    
C39   C46   A    
N12   Ni2   S    
N11   Ni4   S    
C76   H58   S    
C16   H16   S    
C48   C49   A    
C79   H51   S    
N2    N4    A    
C49   C50   A    
C16   C23   A    
C7    C19   S    
C28   N3    A    
C2    H56   S    
C18   C24   A    
C1    C85   A    
N3    N5    A    
C42   C43   A    
C71   C77   A    
H61   O2    S    
C5    C7    A    
C55   H31   S    
C70   H42   S    
C15   C17   A    
C66   C77   S    
C54   C55   S    
C27   H11   S    
C36   O1    S    
C69   H47   S    
C6    C59   S    
C2    C8    A    
C45   N8    A    
C80   C81   A    
C2    N13   A    
C62   H39   S    
C25   H9    S    
C58   O2    S    
C64   H57   S    
C38   H15   S    
C64   N6    A    
C34   C52   A    
C81   H53   S    
C49   H25   S    
C32   C33   A    
C19   C20   A    
C58   C59   S    
C71   C72   A    
C12   C44   S    
N2    Ni3   S    
C11   C13   A    
C67   H23   S    
C79   C84   A    
N1    Ni1   S    
C47   C53   A    
N6    Ni4   S    
C33   C35   A    
C4    N16   A    
C1    N1    A    
C22   C24   A    
C9    C78   A    
C63   H43   S    
C69   C70   A    
H60   O1    S    
C14   H5    S    
C28   H27   S    
C79   C80   A    
C20   C21   A    
C78   N11   A    
C65   C66   A    
C65   H44   S    
C18   H7    S    
C14   C15   A    
C48   H24   S    
C55   C60   S    
C35   C46   S    
C76   C85   A    
C55   H32   S    
C20   C31   S    
