data_str_m9_o2_o19_f0_sra.sym.38
_audit_creation_date              2012-12-11T16:28:26-0500
_audit_creation_method            fapswitch 2.2
_symmetry_space_group_name_H-M    P1
_symmetry_Int_Tables_number       1
_space_group_crystal_system       triclinic
_cell_length_a                    16.825016
_cell_length_b                    7.253947
_cell_length_c                    15.004282
_cell_angle_alpha                 89.905951
_cell_angle_beta                  94.553446
_cell_angle_gamma                 90.100253
_cell_volume                      1825.45443839

loop_
_atom_site_label
_atom_site_type_symbol
_atom_type_description
_atom_site_fract_x
_atom_site_fract_y
_atom_site_fract_z
_atom_type_partial_charge
O1    O     O_R   0.663460 0.361760 0.165970 -0.535745
O2    O     O_R   0.336540 0.638240 0.834030 -0.535745
O3    O     O_R   0.836540 0.861760 0.334030 -0.535590
O4    O     O_R   0.163460 0.138240 0.665970 -0.535590
O5    O     O_R   0.827100 0.689870 0.163730 -0.530231
O6    O     O_R   0.172900 0.310130 0.836270 -0.530231
O7    O     O_R   0.672900 0.189870 0.336270 -0.540421
O8    O     O_R   0.327100 0.810130 0.663730 -0.540420
C1    C     C_R   0.854070 0.523280 0.144516 0.755363
C2    C     C_R   0.145930 0.476720 0.855483 0.755363
C3    C     C_R   0.645608 0.023100 0.355059 0.707379
C4    C     C_R   0.354392 0.976900 0.644941 0.707379
O9    O     O_R   0.663490 0.691370 0.155500 -0.527062
O10   O     O_R   0.336510 0.308630 0.844500 -0.527062
O11   O     O_R   0.836510 0.191370 0.344500 -0.538577
O12   O     O_R   0.163490 0.808630 0.655500 -0.538577
O13   O     O_R   0.671770 0.863320 0.325740 -0.536878
O14   O     O_R   0.328230 0.136680 0.674260 -0.536878
O15   O     O_R   0.828230 0.363320 0.174260 -0.531431
O16   O     O_R   0.171770 0.636680 0.825740 -0.531430
C5    C     C_R   0.637464 0.522678 0.132011 0.775074
C6    C     C_R   0.362536 0.477322 0.867989 0.775074
C7    C     C_R   0.861152 0.022447 0.369682 0.675194
C8    C     C_R   0.138848 0.977553 0.630318 0.675194
H1    H     H_    0.095538 0.100597 0.211802 0.128904
H2    H     H_    0.904462 0.899403 0.788198 0.128904
H3    H     H_    0.404207 0.372867 0.285416 0.132186
H4    H     H_    0.595792 0.627133 0.714584 0.132186
O17   O     O_3   0.752910 0.528800 0.305860 -0.381156
O18   O     O_3   0.247090 0.471200 0.694140 -0.381156
O19   O     O_3   0.747090 0.028800 0.194140 -0.372447
O20   O     O_3   0.252910 0.971200 0.805860 -0.372447
V1    V     V_3+5 0.749460 0.803010 0.239640 1.427840
V2    V     V_3+5 0.250540 0.196990 0.760360 1.427840
V3    V     V_3+5 0.750540 0.303010 0.260360 1.420322
V4    V     V_3+5 0.249460 0.696990 0.739640 1.420322
C9    C     C_1   0.469178 0.994741 0.530544 0.007937
C10   C     C_1   0.530822 0.005259 0.469456 0.007937
C11   C     C_1   0.030883 0.494447 0.969549 -0.002275
C12   C     C_1   0.969117 0.505553 0.030450 -0.002275
H5    H     H_    0.783516 0.927355 0.687772 0.131869
H6    H     H_    0.216484 0.072644 0.312227 0.131869
H7    H     H_    0.714708 0.643993 0.819267 0.117062
H8    H     H_    0.285292 0.356007 0.180733 0.117062
C13   C     C_R   0.016770 0.061048 0.315553 -0.135538
C14   C     C_R   0.983229 0.938951 0.684447 -0.135538
C15   C     C_R   0.482786 0.438325 0.184201 -0.143831
C16   C     C_R   0.517214 0.561675 0.815799 -0.143831
C17   C     C_R   0.090871 0.076891 0.282477 -0.201151
C18   C     C_R   0.909128 0.923109 0.717523 -0.201151
C19   C     C_R   0.409360 0.396176 0.214801 -0.149691
C20   C     C_R   0.590640 0.603823 0.785199 -0.149691
C21   C     C_R   0.158917 0.061236 0.339484 -0.071403
C22   C     C_R   0.841083 0.938763 0.660516 -0.071403
C23   C     C_R   0.342430 0.386434 0.155415 -0.156988
C24   C     C_R   0.657570 0.613566 0.844585 -0.156988
C25   C     C_R   0.154509 0.030660 0.430793 0.191486
C26   C     C_R   0.845490 0.969340 0.569207 0.191486
C27   C     C_R   0.347602 0.418068 0.063965 0.196185
C28   C     C_R   0.652397 0.581932 0.936035 0.196185
C29   C     C_R   0.078458 0.016020 0.468332 0.014296
C30   C     C_R   0.921542 0.983980 0.531668 0.014296
C31   C     C_R   0.423004 0.457087 0.029666 0.075745
C32   C     C_R   0.576996 0.542912 0.970334 0.075745
C33   C     C_R   0.008308 0.030271 0.407839 0.046595
C34   C     C_R   0.991692 0.969729 0.592161 0.046595
C35   C     C_R   0.491766 0.468618 0.092102 0.005008
C36   C     C_R   0.508234 0.531382 0.907898 0.005008
C37   C     C_R   0.069358 0.986661 0.561639 -0.151399
C38   C     C_R   0.930642 0.013339 0.438361 -0.151398
C39   C     C_R   0.431854 0.487789 0.936738 -0.164859
C40   C     C_R   0.568146 0.512211 0.063262 -0.164859
C41   C     C_1   0.416870 0.986124 0.582500 -0.160082
C42   C     C_1   0.583130 0.013876 0.417500 -0.160081
C43   C     C_1   0.083297 0.485535 0.917749 -0.204302
C44   C     C_1   0.916703 0.514464 0.082250 -0.204301
H9    H     H_    0.966137 0.073542 0.266852 0.119879
H10   H     H_    0.033863 0.926458 0.733148 0.119880
H11   H     H_    0.532349 0.447397 0.234478 0.112135
H12   H     H_    0.467651 0.552603 0.765522 0.112135
N1    N     N_3   0.229589 0.013864 0.481185 -0.697453
H13   H     H_    0.233457 0.884695 0.511906 0.231308
H14   H     H_    0.236432 0.123047 0.526216 0.238751
N2    N     N_3   0.770411 0.986136 0.518814 -0.697453
H15   H     H_    0.766543 0.115305 0.488094 0.231308
H16   H     H_    0.763568 0.876953 0.473783 0.238751
N3    N     N_3   0.274874 0.413993 0.007957 -0.684004
H17   H     H_    0.236587 0.513161 0.031328 0.213888
H18   H     H_    0.248456 0.284532 0.014442 0.228103
N4    N     N_3   0.725125 0.586007 0.992043 -0.684004
H19   H     H_    0.763413 0.486839 0.968672 0.213888
H20   H     H_    0.751544 0.715467 0.985557 0.228103

loop_
_geom_bond_atom_site_label_1
_geom_bond_atom_site_label_2
_ccdc_geom_bond_type
C26   C30   A    
N3    H17   S    
O1    C5    A    
C23   C27   A    
O3    C7    A    
C15   H11   S    
N1    H13   S    
O7    C3    A    
C18   C22   A    
C32   C36   A    
N2    H16   S    
C14   C34   A    
H2    C18   S    
H6    C21   S    
C10   C42   T    
O4    C8    A    
C34   C37   A    
O3    V1    S    
O2    V4    S    
C33   C38   A    
C30   C38   A    
C35   C40   A    
O8    V4    S    
O11   V3    S    
C9    C41   T    
C1    O15   A    
C2    O16   A    
O5    V1    S    
O2    C6    A    
O19   V1    S    
C1    C44   S    
C11   C43   T    
O11   C7    A    
O12   C8    A    
C4    C41   S    
C7    C38   S    
O13   V1    S    
C15   C35   A    
N1    H14   S    
H3    C19   S    
C8    C37   S    
O4    V2    S    
C31   C35   A    
C30   C34   A    
C5    C40   S    
N2    H15   S    
C27   N3    S    
C11   C12   S    
C14   H10   S    
C21   C25   A    
C15   C19   A    
O6    V2    S    
O20   V2    S    
O5    C1    A    
C9    C10   S    
C26   N2    S    
C2    C43   S    
N4    H20   S    
C13   C17   A    
O8    C4    A    
O9    C5    A    
C16   C36   A    
O14   V2    S    
C31   C39   A    
N3    H18   S    
C13   C33   A    
C25   N1    S    
C6    C39   S    
O1    V3    S    
C22   C26   A    
C29   C37   A    
C14   C18   A    
C3    O13   A    
O7    V3    S    
C3    C42   S    
O10   V2    S    
C25   C29   A    
C28   N4    S    
O17   V3    S    
C27   C31   A    
O18   V4    S    
C28   C32   A    
O10   C6    A    
O15   V3    S    
O12   V4    S    
H4    C20   S    
H8    C23   S    
C16   H12   S    
N4    H19   S    
C36   C39   A    
C17   C21   A    
C19   C23   A    
C32   C40   A    
H1    C17   S    
H5    C22   S    
O6    C2    A    
O16   V4    S    
C29   C33   A    
H7    C24   S    
C16   C20   A    
C24   C28   A    
O9    V1    S    
C12   C44   T    
C4    O14   A    
C13   H9    S    
C20   C24   A    
