data_str_m3_o10_o28_f0_pcu.sym.34
_audit_creation_date              2012-12-10T16:58:29-0500
_audit_creation_method            fapswitch 2.2
_symmetry_space_group_name_H-M    P1
_symmetry_Int_Tables_number       1
_space_group_crystal_system       triclinic
_cell_length_a                    7.753453
_cell_length_b                    8.5478
_cell_length_c                    23.393417
_cell_angle_alpha                 90.907229
_cell_angle_beta                  85.865132
_cell_angle_gamma                 93.748343
_cell_volume                      1542.95808903

loop_
_atom_site_label
_atom_site_type_symbol
_atom_type_description
_atom_site_fract_x
_atom_site_fract_y
_atom_site_fract_z
_atom_type_partial_charge
C1    C     C_R   0.545878 0.794806 0.498502 0.945161
C2    C     C_R   0.346834 0.417231 0.302106 0.388097
C3    C     C_R   0.383961 0.585985 0.766528 0.171583
C4    C     C_R   0.335565 0.432241 0.242816 0.179940
C5    C     C_R   0.516384 0.510898 0.791056 0.223931
C6    C     C_R   0.479041 0.500317 0.209366 0.215948
C7    C     C_2   0.570021 0.958359 0.497687 -0.374832
C8    C     C_2   0.429772 0.041629 0.502257 -0.408185
C9    C     C_R   0.502978 0.504230 0.610495 0.898386
C10   C     C_R   0.497308 0.497780 0.389611 0.900079
C11   C     C_R   0.463537 0.361922 0.118823 0.550343
C12   C     C_R   0.454073 0.205190 0.501498 0.950779
C13   C     C_R   0.557240 0.644354 0.880689 0.538618
C14   C     C_R   0.509582 0.641469 0.120342 0.487252
C15   C     C_R   0.486354 0.367597 0.879235 0.499456
C16   C     C_R   0.526106 0.644564 0.060585 -0.013080
C17   C     C_R   0.480943 0.362910 0.938945 -0.014638
C18   C     C_R   0.501325 0.502990 0.029838 -0.022565
C19   C     C_R   0.511238 0.503915 0.969679 -0.019470
C20   C     C_R   0.466650 0.360531 0.059092 -0.021751
C21   C     C_R   0.550733 0.645970 0.940429 -0.019566
C22   C     C_R   0.567241 0.785224 0.031060 -0.165498
C23   C     C_R   0.645092 0.441029 0.756747 -0.151084
C24   C     C_R   0.443091 0.221874 0.968516 -0.168237
C25   C     C_R   0.580798 0.785758 0.971436 -0.174089
C26   C     C_R   0.437198 0.220559 0.028109 -0.170120
C27   C     C_3   0.328012 0.815131 0.656441 0.104356
C28   C     C_3   0.298273 0.955884 0.696366 -0.381071
C29   C     C_3   0.348008 0.110401 0.665789 -0.883705
C30   C     C_3   0.264515 0.194854 0.354366 0.082667
C31   C     C_3   0.229488 0.061779 0.311176 -0.385877
C32   C     C_3   0.276826 0.904434 0.333673 -0.866574
C33   C     C_3   0.108441 0.535156 0.819442 -0.733956
C34   C     C_R   0.625210 0.563020 0.235389 -0.164065
C35   C     C_3   0.078333 0.500390 0.199107 -0.756408
C36   C     C_R   0.641660 0.442320 0.697755 -0.284676
C37   C     C_R   0.630306 0.560601 0.294198 -0.285106
C38   C     C_R   0.510658 0.515963 0.672423 -0.199693
C39   C     C_R   0.491016 0.490856 0.327816 -0.180241
C40   C     C_R   0.386427 0.596833 0.706753 0.393851
H1    H     H_    0.590939 0.894717 0.053918 0.194412
H2    H     H_    0.297382 0.990353 0.506596 0.175151
H3    H     H_    0.013901 0.382726 0.456831 0.207587
H4    H     H_    0.986147 0.617320 0.543171 0.195584
H5    H     H_    0.258482 0.830009 0.617173 0.182257
H6    H     H_    0.468541 0.814473 0.642239 0.107233
H7    H     H_    0.159336 0.953843 0.712020 0.238942
H8    H     H_    0.377750 0.948866 0.733811 0.247743
H9    H     H_    0.487199 0.116627 0.650402 0.258448
H10   H     H_    0.324942 0.209400 0.696068 0.280435
H11   H     H_    0.268044 0.122253 0.628750 0.256581
H12   H     H_    0.417316 0.112512 0.945760 0.194226
H13   H     H_    0.186859 0.166923 0.395133 0.165635
H14   H     H_    0.403003 0.199141 0.364583 0.118050
H15   H     H_    0.089953 0.053840 0.302676 0.229316
H16   H     H_    0.307478 0.086661 0.270215 0.256157
H17   H     H_    0.416568 0.908683 0.341726 0.262095
H18   H     H_    0.250701 0.810683 0.301415 0.274372
H19   H     H_    0.198303 0.874780 0.374122 0.258619
H20   H     H_    0.202937 0.749895 0.787438 0.261574
H21   H     H_    0.045145 0.488057 0.781091 0.243849
H22   H     H_    0.010563 0.592045 0.848355 0.242993
H23   H     H_    0.613657 0.895843 0.949784 0.190444
H24   H     H_    0.157451 0.437161 0.842827 0.253998
H25   H     H_    0.108337 0.289730 0.238060 0.264540
H26   H     H_    0.966536 0.447328 0.176911 0.239982
H27   H     H_    0.154505 0.581464 0.168888 0.254785
H28   H     H_    0.029591 0.567637 0.237303 0.236292
H29   H     H_    0.406854 0.110274 0.049826 0.191053
H30   H     H_    0.745734 0.382670 0.776089 0.167357
H31   H     H_    0.734280 0.616501 0.209727 0.176307
H32   H     H_    0.738982 0.382073 0.671965 0.195367
H33   H     H_    0.742460 0.615083 0.313532 0.190249
H34   H     H_    0.702395 0.009660 0.493355 0.180667
N1    N     N_R   0.481086 0.501364 0.148194 -0.339844
N2    N     N_R   0.521647 0.507197 0.851714 -0.336620
N3    N     N_2   0.950330 0.457950 0.484560 -0.169771
N4    N     N_2   0.049670 0.542050 0.515440 -0.173990
N5    N     N_2   0.248302 0.648796 0.802386 -0.281116
N6    N     N_2   0.182297 0.377576 0.216505 -0.269377
O1    O     O_R   0.389250 0.738570 0.503790 -0.627333
O2    O     O_2   0.597538 0.778505 0.851594 -0.553110
O3    O     O_2   0.521123 0.777261 0.150520 -0.541631
O4    O     O_2   0.453771 0.234713 0.848827 -0.552961
O5    O     O_3   0.257731 0.674396 0.682871 -0.637653
O6    O     O_3   0.211762 0.339378 0.334610 -0.647796
O7    O     O_R   0.610750 0.261430 0.496210 -0.610365
O8    O     O_R   0.678390 0.711620 0.493890 -0.630708
O9    O     O_R   0.321610 0.288380 0.506110 -0.640662
O10   O     O_R   0.355400 0.513520 0.588790 -0.579459
O11   O     O_R   0.644600 0.486480 0.411210 -0.615702
O12   O     O_R   0.644550 0.486570 0.578900 -0.630965
O13   O     O_R   0.355450 0.513430 0.421100 -0.589134
O14   O     O_2   0.445668 0.225073 0.147341 -0.547771
Zn1   Zn    Zn3+2 0.306930 0.518000 0.506610 0.952022
Zn2   Zn    Zn3+2 0.693070 0.482000 0.493390 0.945689

loop_
_geom_bond_atom_site_label_1
_geom_bond_atom_site_label_2
_ccdc_geom_bond_type
C24   H12   S    
O8    Zn2   S    
C28   H7    S    
C34   C37   A    
C32   H18   S    
C3    N5    S    
C7    C8    D    
H20   N5    S    
C29   H9    S    
N3    N4    D    
C30   H14   S    
C14   O3    S    
C28   C29   S    
C19   C21   A    
C8    H2    S    
C4    N6    S    
C30   C31   S    
O1    Zn1   S    
C22   H1    S    
C1    O1    A    
C35   N6    S    
O12   Zn2   S    
C18   C19   A    
C25   H23   S    
C27   O5    S    
C37   H33   S    
O11   Zn2   S    
C2    C39   A    
C33   H22   S    
C22   C25   A    
C31   H16   S    
C30   O6    S    
C27   H5    S    
C1    O8    A    
C15   N2    A    
O13   Zn1   S    
H25   N6    S    
C23   H30   S    
C32   H17   S    
C9    O12   A    
C7    H34   S    
C29   H10   S    
C30   H13   S    
C11   C20   A    
C17   C24   A    
C12   O9    A    
O10   Zn1   S    
C4    C6    A    
C33   N5    S    
C35   H26   S    
C13   O2    S    
C6    C34   A    
C10   C39   S    
C40   O5    S    
O9    Zn1   S    
C2    C4    A    
C31   C32   S    
C5    C23   A    
C13   N2    A    
C35   H27   S    
N4    Zn1   S    
C8    C12   S    
O7    Zn2   S    
C13   C21   A    
C27   H6    S    
C16   C18   A    
C3    C40   A    
C14   C16   A    
C11   O14   S    
C29   H11   S    
C15   C17   A    
C21   C25   A    
C28   H8    S    
C16   C22   A    
C12   O7    A    
C1    C7    S    
C24   C26   A    
C3    C5    A    
C9    O10   A    
C10   O11   A    
C15   O4    S    
H3    N3    S    
N3    Zn2   S    
C10   O13   A    
C14   N1    A    
C5    N2    S    
C36   C38   A    
C37   C39   A    
C11   N1    A    
C38   C40   A    
C20   C26   A    
C35   H28   S    
C33   H24   S    
H4    N4    S    
C9    C38   S    
C17   C19   A    
C2    O6    S    
C18   C20   A    
C33   H21   S    
C23   C36   A    
C27   C28   S    
C26   H29   S    
C32   H19   S    
C31   H15   S    
C34   H31   S    
C36   H32   S    
C6    N1    S    
