data_str_m9_o2_o23_f0_sra.sym.14
_audit_creation_date              2012-12-11T16:31:24-0500
_audit_creation_method            fapswitch 2.2
_symmetry_space_group_name_H-M    P1
_symmetry_Int_Tables_number       1
_space_group_crystal_system       triclinic
_cell_length_a                    6.958041
_cell_length_b                    18.25156
_cell_length_c                    20.213989
_cell_angle_alpha                 68.310554
_cell_angle_beta                  90.468876
_cell_angle_gamma                 91.068985
_cell_volume                      2384.91277786

loop_
_atom_site_label
_atom_site_type_symbol
_atom_type_description
_atom_site_fract_x
_atom_site_fract_y
_atom_site_fract_z
_atom_type_partial_charge
O1    O     O_R   0.488990 0.443920 0.942160 -0.533019
O2    O     O_R   0.823840 0.406530 0.087600 -0.541170
O3    O     O_R   0.999650 0.556080 0.057840 -0.538633
C1    C     C_R   0.654797 0.384106 0.115376 0.675485
O4    O     O_R   0.818390 0.434590 0.944530 -0.542021
O5    O     O_R   0.994160 0.584350 0.913750 -0.544184
C2    C     C_R   0.648727 0.420275 0.924325 0.697733
O6    O     O_R   0.494480 0.415650 0.086250 -0.542758
O7    O     O_3   0.662600 0.549100 0.990070 -0.347035
V1    V     V_3+5 0.935320 0.490890 0.001840 1.502754
O8    O     O_R   0.324240 0.593470 0.912400 -0.511959
C3    C     C_R   0.156219 0.620819 0.888064 0.766918
O9    O     O_R   0.329690 0.565410 0.055470 -0.512067
C4    C     C_R   0.162369 0.578161 0.077016 0.772031
V2    V     V_3+5 0.435990 0.509110 0.998160 1.554863
O10   O     O_3   0.158840 0.450900 0.009930 -0.375027
C5    C     C_3   0.038409 0.653085 0.283892 0.657531
C6    C     C_3   0.342581 0.728710 0.228079 -0.347699
C7    C     C_3   0.332020 0.770953 0.282138 -0.360491
H1    H     H_    0.411782 0.768959 0.178065 0.207483
H2    H     H_    0.435826 0.676629 0.249805 0.259304
H3    H     H_    0.403513 0.734650 0.332790 0.246295
H4    H     H_    0.411828 0.828052 0.260533 0.236506
C8    C     C_1   0.109936 0.873402 0.379653 -0.052001
C9    C     C_3   0.138535 0.703734 0.211509 -0.006664
C10   C     C_3   0.013981 0.705095 0.330878 0.226312
C11   C     C_3   0.120690 0.786498 0.296166 -0.029441
C12   C     C_3   0.028100 0.832177 0.222024 0.211205
C13   C     C_3   0.024746 0.780871 0.175217 -0.398526
C14   C     C_1   0.114847 0.834382 0.342270 0.141933
C15   C     C_1   0.150361 0.659514 0.162556 0.111992
C16   C     C_1   0.156745 0.622862 0.123218 -0.079467
H5    H     H_    0.874630 0.766382 0.164532 0.237044
H6    H     H_    0.089319 0.815653 0.122442 0.183496
H7    H     H_    0.858870 0.717248 0.333544 0.169980
H8    H     H_    0.115964 0.886408 0.194372 0.161834
H9    H     H_    0.023822 0.523906 0.698317 0.143266
C17   C     C_R   0.251650 0.789363 0.874121 0.333985
C18   C     C_R   0.254040 0.866721 0.871013 -0.142762
C19   C     C_R   0.199150 0.927512 0.810268 -0.094070
C20   C     C_R   0.149141 0.913604 0.749327 0.340736
C21   C     C_R   0.148291 0.834828 0.749085 -0.057212
C22   C     C_R   0.184850 0.770125 0.815081 -0.038210
C23   C     C_R   0.113738 0.818895 0.685902 -0.144184
C24   C     C_R   0.091546 0.740124 0.689715 0.052845
C25   C     C_R   0.106840 0.676229 0.756170 0.064484
C26   C     C_R   0.151891 0.690381 0.819147 -0.138078
C27   C     C_R   0.052983 0.723516 0.627615 -0.140284
C28   C     C_R   0.028183 0.646333 0.631043 -0.070330
C29   C     C_R   0.042346 0.583889 0.695885 -0.112170
C30   C     C_R   0.081915 0.598227 0.757691 -0.149573
H10   H     H_    0.302605 0.880481 0.916251 0.205136
H11   H     H_    0.200096 0.986916 0.810249 0.230806
H12   H     H_    0.040767 0.769833 0.575643 0.094024
H13   H     H_    0.998071 0.634949 0.583068 0.182490
H14   H     H_    0.094810 0.547106 0.806351 0.111619
H15   H     H_    0.545780 0.473486 0.312061 0.210212
C31   C     C_R   0.693131 0.226325 0.119497 -0.196425
C32   C     C_R   0.705183 0.151484 0.117475 0.398674
C33   C     C_R   0.682220 0.085801 0.179356 -0.137038
C34   C     C_R   0.650668 0.093316 0.244713 0.288017
C35   C     C_R   0.644493 0.170013 0.249231 -0.018902
C36   C     C_R   0.661597 0.237409 0.184183 -0.030303
C37   C     C_R   0.619473 0.182393 0.314650 -0.150185
C38   C     C_R   0.601704 0.260291 0.313661 0.056103
C39   C     C_R   0.611537 0.326222 0.248223 0.057942
C40   C     C_R   0.643437 0.314856 0.183716 -0.118069
C41   C     C_R   0.574091 0.274132 0.377472 -0.158446
C42   C     C_R   0.553987 0.350311 0.376533 -0.081068
C43   C     C_R   0.561929 0.414465 0.312504 -0.003645
C44   C     C_R   0.591303 0.402974 0.248987 -0.152984
H16   H     H_    0.707683 0.275609 0.069398 0.141818
H17   H     H_    0.686304 0.027939 0.176286 0.237540
H18   H     H_    0.567318 0.226442 0.428865 0.082325
H19   H     H_    0.532118 0.359573 0.425819 0.143804
H20   H     H_    0.598148 0.454949 0.200638 0.121357
O11   O     O_R   0.770890 0.084490 0.414040 -0.533150
O12   O     O_R   0.445980 0.065450 0.555510 -0.531412
O13   O     O_R   0.270670 0.915620 0.586180 -0.534623
C45   C     C_R   0.615346 0.079467 0.576119 0.724937
O14   O     O_R   0.441480 0.093500 0.412450 -0.538269
O15   O     O_R   0.266140 0.943870 0.442100 -0.522015
C46   C     C_R   0.610307 0.115454 0.384381 0.778681
O16   O     O_R   0.775410 0.056240 0.558120 -0.510131
O17   O     O_3   0.602660 0.950990 0.510100 -0.362500
V3    V     V_3+5 0.329740 0.009100 0.498130 1.566623
O18   O     O_R   0.936120 0.934420 0.444240 -0.520301
C47   C     C_R   0.103771 0.920155 0.424118 0.721834
O19   O     O_R   0.940610 0.906370 0.587310 -0.532933
C48   C     C_R   0.108456 0.883806 0.615044 0.769778
V4    V     V_3+5 0.829110 0.990690 0.501470 1.589553
O20   O     O_3   0.106080 0.049010 0.489880 -0.363061
C49   C     C_3   0.836876 0.239137 0.715769 0.316695
C50   C     C_3   0.499041 0.278612 0.679562 -0.533635
C51   C     C_3   0.498529 0.326667 0.729214 0.552420
H21   H     H_    0.891885 0.346719 0.737810 0.180006
H22   H     H_    0.881325 0.280640 0.661984 0.108012
H23   H     H_    0.350160 0.259229 0.672897 0.251715
H24   H     H_    0.549048 0.317466 0.625586 0.142148
H25   H     H_    0.552080 0.387627 0.698602 0.069048
C52   C     C_1   0.638508 0.373824 0.879635 -0.111953
C53   C     C_3   0.631499 0.206010 0.709904 -0.048392
C54   C     C_3   0.836634 0.285622 0.766838 -0.489669
C55   C     C_3   0.630924 0.288264 0.795128 -0.091723
C56   C     C_3   0.565626 0.200989 0.836610 0.277356
C57   C     C_3   0.550926 0.154818 0.785271 0.226303
C58   C     C_1   0.633907 0.335236 0.841863 0.129630
C59   C     C_1   0.628752 0.161353 0.661218 0.135973
C60   C     C_1   0.624707 0.124431 0.622051 -0.065876
H26   H     H_    0.397706 0.141272 0.778617 0.199387
H27   H     H_    0.674969 0.173029 0.878361 0.199590
H28   H     H_    0.935847 0.258368 0.812477 0.285993
Cl1   Cl    Cl    0.082017 0.655916 0.422774 -0.585093
Cl2   Cl    Cl    0.806399 0.618044 0.268187 -0.680061
Cl3   Cl    Cl    0.364756 0.725364 0.950716 -0.658873
Cl4   Cl    Cl    0.077941 0.999881 0.678870 -0.590974
Cl5   Cl    Cl    0.174094 0.564979 0.328150 -0.547465
Cl6   Cl    Cl    0.744393 0.139970 0.036214 -0.540341
Cl7   Cl    Cl    0.609477 0.002338 0.315455 -0.625447
F1    F     F_    0.312235 0.332692 0.750152 -0.642568
Cl8   Cl    Cl    0.658333 0.059668 0.824385 -0.513632
Cl9   Cl    Cl    0.015551 0.164518 0.741814 -0.541746
Cl10  Cl    Cl    0.343242 0.193370 0.883395 -0.462989
Cl11  Cl    Cl    0.791813 0.865401 0.229129 -0.668633

loop_
_geom_bond_atom_site_label_1
_geom_bond_atom_site_label_2
_ccdc_geom_bond_type
C9    C15   S    
O18   C47   A    
C52   C58   T    
C17   Cl3   S    
O18   V4    S    
C34   Cl7   S    
C6    H2    S    
C20   C21   A    
O2    C1    A    
C1    O6    A    
C49   C54   S    
O17   V4    S    
O17   V3    S    
C51   C55   S    
C27   H12   S    
C10   C11   S    
C5    C10   S    
C12   C13   S    
C30   H14   S    
C42   C43   A    
O5    C3    A    
C17   C18   A    
O12   C45   A    
C50   H23   S    
C41   H18   S    
V2    O10   S    
C13   H5    S    
C33   H17   S    
C59   C60   T    
C56   Cl10  S    
C6    C7    S    
O13   C48   A    
C35   C37   A    
O8    V2    S    
O11   V4    S    
C39   C44   A    
C41   C42   A    
C45   C60   S    
C53   C59   S    
C43   C44   A    
O1    V2    S    
O16   V4    S    
H15   C43   S    
O19   V4    S    
C7    C11   S    
O7    V1    S    
O14   V3    S    
C45   O16   A    
O12   V3    S    
C39   C40   A    
C56   H27   S    
C32   C33   A    
O9    C4    A    
C11   C14   S    
C34   C35   A    
C6    C9    S    
C21   C23   A    
C3    C26   S    
C55   C56   S    
O14   C46   A    
C5    Cl2   S    
C9    C13   S    
C36   C40   A    
C7    H3    S    
C49   Cl9   S    
V4    O20   S    
O4    C2    A    
C51   H25   S    
C31   C32   A    
C28   H13   S    
C25   C30   A    
C54   H28   S    
C7    H4    S    
C37   C46   S    
C35   C36   A    
C15   C16   T    
C38   C41   A    
C29   C30   A    
C8    C47   S    
C12   H8    S    
O3    C4    A    
C27   C28   A    
C28   C29   A    
O6    V2    S    
O9    V2    S    
H21   C54   S    
C21   C22   A    
C20   Cl4   S    
O2    V1    S    
C49   H22   S    
C18   C19   A    
C23   C48   S    
C23   C24   A    
C57   H26   S    
C24   C27   A    
C31   C36   A    
C25   C26   A    
C19   C20   A    
O1    C2    A    
C4    C16   S    
C49   C53   S    
O5    V1    S    
C1    C40   S    
O8    C3    A    
C12   Cl11  S    
C5    Cl5   S    
C51   F1    S    
C32   Cl6   S    
C56   C57   S    
C5    C9    S    
C37   C38   A    
O7    V2    S    
C10   Cl1   S    
C17   C22   A    
O3    V1    S    
V3    O20   S    
O15   V3    S    
H9    C29   S    
C31   H16   S    
C44   H20   S    
C42   H19   S    
C50   H24   S    
O15   C47   A    
C13   H6    S    
C57   Cl8   S    
C18   H10   S    
C6    H1    S    
O13   V3    S    
C50   C51   S    
C8    C14   T    
C19   H11   S    
C24   C25   A    
C10   H7    S    
O4    V1    S    
C50   C53   S    
C38   C39   A    
C2    C52   S    
C53   C57   S    
C54   C55   S    
O11   C46   A    
C33   C34   A    
V1    O10   S    
O19   C48   A    
C22   C26   A    
C55   C58   S    
C11   C12   S    
