data_str_m2_o22_o22_f0_pcu.sym.163
_audit_creation_date              2013-03-05T16:10:35-0500
_audit_creation_method            fapswitch 2.2
_symmetry_space_group_name_H-M    P1
_symmetry_Int_Tables_number       1
_space_group_crystal_system       triclinic
_cell_length_a                    15.233486
_cell_length_b                    15.23352
_cell_length_c                    9.407686
_cell_angle_alpha                 89.743852
_cell_angle_beta                  89.883704
_cell_angle_gamma                 89.938758
_cell_volume                      2183.1164387

loop_
_atom_site_label
_atom_site_type_symbol
_atom_site_description
_atom_site_fract_x
_atom_site_fract_y
_atom_site_fract_z
_atom_type_partial_charge
O1    O     O_R   0.091250 0.408820 0.620260 -0.606901
O2    O     O_R   0.091250 0.408820 0.379740 -0.586081
O3    O     O_R   0.091250 0.591180 0.620260 -0.604899
O4    O     O_R   0.091250 0.591180 0.379740 -0.591551
O5    O     O_R   0.591250 0.908820 0.620260 -0.589109
O6    O     O_R   0.591250 0.908820 0.379740 -0.610142
O7    O     O_R   0.591250 0.091180 0.620260 -0.609218
O8    O     O_R   0.591250 0.091180 0.379740 -0.590301
C1    C     C_R   0.120016 0.379864 0.500489 0.818064
C2    C     C_R   0.119770 0.620385 0.499576 0.808560
C3    C     C_R   0.620366 0.880281 0.500364 0.812898
C4    C     C_R   0.620455 0.119578 0.499858 0.801002
O9    O     O_R   0.908940 0.408800 0.620260 -0.585908
O10   O     O_R   0.908940 0.408800 0.379740 -0.565691
O11   O     O_R   0.908940 0.591200 0.620260 -0.572179
O12   O     O_R   0.908940 0.591200 0.379740 -0.568778
O13   O     O_R   0.408940 0.908800 0.620260 -0.555747
O14   O     O_R   0.408940 0.908800 0.379740 -0.589152
O15   O     O_R   0.408940 0.091200 0.620260 -0.578966
O16   O     O_R   0.408940 0.091200 0.379740 -0.553199
C5    C     C_R   0.878894 0.380645 0.500369 0.810372
C6    C     C_R   0.880081 0.620409 0.500270 0.817726
C7    C     C_R   0.378742 0.881002 0.499931 0.857009
C8    C     C_R   0.379341 0.119600 0.500268 0.851350
Cu1   Cu    Cu3+1 0.000100 0.500000 0.642410 0.935522
Cu2   Cu    Cu3+1 0.000100 0.500000 0.357590 0.953552
Cu3   Cu    Cu3+1 0.500100 0.000000 0.642410 0.954308
Cu4   Cu    Cu3+1 0.500100 0.000000 0.357590 0.949579
C9    C     C_3   0.776968 0.290164 0.656803 0.170667
C10   C     C_3   0.847181 0.223712 0.436121 0.184395
C11   C     C_3   0.783602 0.714002 0.659088 0.161333
C12   C     C_3   0.847021 0.776925 0.433122 0.182111
C13   C     C_3   0.347752 0.723069 0.553558 0.170042
C14   C     C_3   0.274444 0.795927 0.342729 0.164774
C15   C     C_3   0.279846 0.209647 0.659107 0.176530
C16   C     C_3   0.346711 0.276237 0.437077 0.172088
H1    H     H_    0.835041 0.267439 0.718987 0.096741
H2    H     H_    0.900101 0.200277 0.508738 0.076179
H3    H     H_    0.842105 0.744139 0.710488 0.086924
H4    H     H_    0.901493 0.800838 0.501842 0.073330
H5    H     H_    0.399652 0.702556 0.476739 0.075549
H6    H     H_    0.330534 0.769729 0.279474 0.089670
H7    H     H_    0.337412 0.239067 0.714200 0.094476
H8    H     H_    0.401674 0.298281 0.506417 0.082053
C17   C     C_3   0.275870 0.650988 0.553568 -0.418913
C18   C     C_3   0.202604 0.724964 0.345456 -0.397151
C19   C     C_3   0.206390 0.279041 0.656544 -0.413876
C20   C     C_3   0.275160 0.348667 0.440297 -0.421021
C21   C     C_3   0.710675 0.214540 0.654903 -0.403651
C22   C     C_3   0.774772 0.151986 0.432912 -0.419410
C23   C     C_3   0.710312 0.783319 0.656471 -0.393667
C24   C     C_3   0.774500 0.848543 0.433029 -0.419907
H9    H     H_    0.297013 0.595854 0.484055 0.131479
H10   H     H_    0.222290 0.670648 0.273129 0.157823
H11   H     H_    0.226036 0.335099 0.725099 0.165403
H12   H     H_    0.298045 0.404321 0.506996 0.135384
H13   H     H_    0.738300 0.157426 0.714308 0.152599
H14   H     H_    0.797687 0.093075 0.492800 0.130026
H15   H     H_    0.731376 0.840898 0.720496 0.150760
H16   H     H_    0.797676 0.906619 0.493791 0.128321
H17   H     H_    0.266280 0.622579 0.661642 0.217227
H18   H     H_    0.139534 0.751873 0.304528 0.245331
H19   H     H_    0.144590 0.251537 0.701924 0.206464
H20   H     H_    0.263221 0.376172 0.332255 0.213344
H21   H     H_    0.649113 0.233432 0.711202 0.215242
H22   H     H_    0.761232 0.129489 0.322820 0.221095
H23   H     H_    0.649619 0.756899 0.706967 0.245574
H24   H     H_    0.760495 0.872203 0.323310 0.217661
H25   H     H_    0.703833 0.405299 0.443057 0.203886
H26   H     H_    0.749625 0.352241 0.297057 0.220566
H27   H     H_    0.700458 0.597725 0.463408 0.208690
H28   H     H_    0.746248 0.641207 0.307141 0.221979
H29   H     H_    0.251614 0.852784 0.704843 0.232327
H30   H     H_    0.199435 0.901604 0.557839 0.231947
H31   H     H_    0.198628 0.098394 0.459873 0.234617
H32   H     H_    0.247179 0.140838 0.304587 0.246198
H33   H     H_    0.149834 0.743191 0.706334 0.202391
H34   H     H_    0.095983 0.794028 0.557853 0.177385
H35   H     H_    0.096053 0.205641 0.455513 0.194758
H36   H     H_    0.147341 0.252542 0.300268 0.233424
H37   H     H_    0.597846 0.297412 0.466363 0.204219
H38   H     H_    0.640051 0.250847 0.304970 0.217035
H39   H     H_    0.596182 0.704963 0.464358 0.190946
H40   H     H_    0.643389 0.749833 0.305088 0.198042
C25   C     C_3   0.729864 0.340759 0.409053 -0.326635
C26   C     C_3   0.728656 0.658679 0.417979 -0.325078
C27   C     C_3   0.229873 0.839514 0.594499 -0.281355
C28   C     C_3   0.228479 0.158587 0.414838 -0.287186
C29   C     C_3   0.809457 0.311526 0.500486 -0.113200
C30   C     C_3   0.810937 0.689626 0.501786 -0.093553
C31   C     C_3   0.308795 0.812643 0.498723 -0.110132
C32   C     C_3   0.309729 0.188234 0.501934 -0.119660
C33   C     C_3   0.188222 0.689435 0.498526 0.014947
C34   C     C_3   0.188863 0.311199 0.502257 -0.009282
C35   C     C_3   0.689458 0.187838 0.500223 -0.003734
C36   C     C_3   0.689549 0.812085 0.501622 0.015099
C37   C     C_3   0.159741 0.766684 0.595264 -0.381721
C38   C     C_3   0.158872 0.231800 0.412270 -0.335644
C39   C     C_3   0.657703 0.269792 0.415356 -0.301268
C40   C     C_3   0.657993 0.730979 0.417034 -0.363364
C41   C     C_3   0.004774 0.590415 0.083086 -0.151272
C42   C     C_3   0.005338 0.590481 0.915492 -0.196532
C43   C     C_3   0.921255 0.458292 0.084063 -0.172408
C44   C     C_3   0.921402 0.458580 0.916877 -0.119728
C45   C     C_3   0.500393 0.090494 0.083137 -0.151824
C46   C     C_3   0.500461 0.090560 0.915550 -0.189865
C47   C     C_3   0.423319 0.954409 0.084061 -0.153031
C48   C     C_3   0.423434 0.954190 0.916849 -0.160359
H41   H     H_    0.064147 0.625160 0.121813 0.168295
H42   H     H_    0.065678 0.624248 0.877544 0.157921
H43   H     H_    0.916967 0.389210 0.121068 0.222833
H44   H     H_    0.917174 0.389530 0.879968 0.178955
H45   H     H_    0.558169 0.127947 0.121658 0.172251
H46   H     H_    0.558597 0.127692 0.876837 0.154193
H47   H     H_    0.421731 0.885209 0.122054 0.168404
H48   H     H_    0.422569 0.884992 0.880294 0.211347
H49   H     H_    0.947319 0.628606 0.120492 0.228717
H50   H     H_    0.949022 0.630059 0.876031 0.183262
H51   H     H_    0.861551 0.492382 0.124208 0.172260
H52   H     H_    0.862490 0.493964 0.877341 0.240734
H53   H     H_    0.441295 0.126059 0.120875 0.225760
H54   H     H_    0.441775 0.126845 0.876925 0.185650
H55   H     H_    0.362373 0.986583 0.123069 0.220487
H56   H     H_    0.362204 0.985335 0.876764 0.214670
H57   H     H_    0.139966 0.481463 0.122999 0.149692
H58   H     H_    0.139914 0.480795 0.875852 0.156899
H59   H     H_    0.077202 0.382520 0.121903 0.186219
H60   H     H_    0.076669 0.382226 0.879645 0.161652
H61   H     H_    0.640714 0.988086 0.123297 0.155583
H62   H     H_    0.640724 0.988091 0.875888 0.147968
H63   H     H_    0.582726 0.886302 0.121417 0.164010
H64   H     H_    0.582723 0.886322 0.879583 0.177406
C49   C     C_3   0.077885 0.451754 0.083834 -0.184896
C50   C     C_3   0.077745 0.451528 0.916316 -0.198235
C51   C     C_3   0.580150 0.955571 0.083786 -0.194161
C52   C     C_3   0.580161 0.955578 0.916270 -0.188078
N1    N     N_3   0.001260 0.500000 0.143650 -0.165722
N2    N     N_3   0.001260 0.500000 0.856350 -0.161796
N3    N     N_3   0.501260 0.000000 0.143650 -0.167714
N4    N     N_3   0.501260 1.000000 0.856350 -0.154602
N5    N     N_R   0.737223 0.364624 0.732706 0.164498
O17   O     O_R   0.665875 0.400930 0.684343 -0.326595
O18   O     O_R   0.752111 0.371099 0.868275 -0.364505
N6    N     N_R   0.885766 0.235223 0.293617 0.138250
O19   O     O_R   0.836456 0.242433 0.181264 -0.384093
O20   O     O_R   0.970055 0.227167 0.276483 -0.399093
N7    N     N_R   0.756743 0.640205 0.750768 0.145865
O21   O     O_R   0.737956 0.563427 0.699909 -0.315970
O22   O     O_R   0.750163 0.652452 0.887187 -0.343382
N8    N     N_R   0.882940 0.765206 0.289400 0.133840
O23   O     O_R   0.831622 0.751782 0.181189 -0.371122
O24   O     O_R   0.965967 0.779536 0.266599 -0.390804
N9    N     N_R   0.388922 0.729773 0.694325 0.137850
O25   O     O_R   0.341669 0.736485 0.809224 -0.385669
O26   O     O_R   0.473522 0.720773 0.706177 -0.384019
N10   N     N_R   0.241703 0.873976 0.266089 0.140054
O27   O     O_R   0.235290 0.950579 0.325635 -0.400894
O28   O     O_R   0.221089 0.866804 0.132445 -0.344487
N11   N     N_R   0.251685 0.133901 0.746134 0.137665
O29   O     O_R   0.238140 0.056578 0.692439 -0.403610
O30   O     O_R   0.240875 0.144409 0.882254 -0.340193
N12   N     N_R   0.381748 0.266263 0.292299 0.133108
O31   O     O_R   0.329678 0.255524 0.184215 -0.372484
O32   O     O_R   0.464794 0.279759 0.268736 -0.410921

loop_
_geom_bond_atom_site_label_1
_geom_bond_atom_site_label_2
_geom_bond_distance
_ccdc_geom_bond_type
C3    C36   1.479069 S    
C16   N12   1.470301 S    
O14   Cu4   1.975444 S    
C49   N1    1.489479 S    
C41   C42   1.576677 S    
C7    C31   1.490785 S    
C27   C31   1.556494 S    
C13   C17   1.551558 S    
H38   C39   1.112656 S    
H35   C38   1.112587 S    
N7    O21   1.298113 A    
C14   H6    1.114814 S    
C47   H55   1.111807 S    
C52   N4    1.489277 S    
Cu2   N1    2.012722 S    
C17   C33   1.546712 S    
C9    C29   1.583220 S    
C21   H13   1.114551 S    
C51   C52   1.575941 S    
C9    C21   1.532983 S    
C51   N3    1.489430 S    
O13   C7    1.295848 A    
C21   H21   1.114272 S    
C46   H46   1.111238 S    
C43   H51   1.113039 S    
O10   C5    1.294322 A    
C45   H45   1.111622 S    
N10   O27   1.300178 A    
N7    O22   1.301344 A    
O5    C3    1.288389 A    
H63   C51   1.112187 S    
N5    O18   1.300050 A    
C19   H19   1.114325 S    
C13   N9    1.470452 S    
C22   C35   1.544845 S    
O11   Cu1   1.973949 S    
C34   C38   1.549278 S    
C41   H41   1.111309 S    
O7    Cu3   1.975120 S    
C10   H2    1.115118 S    
C43   H43   1.108925 S    
C42   N2    1.490107 S    
C17   H17   1.112633 S    
C14   C31   1.580851 S    
H29   C27   1.109768 S    
C24   H16   1.113612 S    
C20   H20   1.112896 S    
O5    Cu3   1.974344 S    
O11   C6    1.289419 A    
C12   C30   1.574947 S    
C28   C32   1.554325 S    
C44   N2    1.482532 S    
C47   C48   1.573097 S    
N11   O30   1.301358 A    
C4    C35   1.479386 S    
H33   C37   1.113022 S    
C14   C18   1.539182 S    
H30   C27   1.106967 S    
N9    O26   1.300845 A    
C15   H7    1.115014 S    
H32   C28   1.109593 S    
C18   H10   1.114092 S    
C42   H50   1.111525 S    
H64   C52   1.112123 S    
C23   C36   1.552461 S    
C11   N7    1.471731 S    
C15   C32   1.581528 S    
C16   C32   1.574734 S    
C10   C22   1.553851 S    
C19   H11   1.114012 S    
C15   C19   1.538677 S    
H61   C51   1.112977 S    
O1    Cu1   1.974344 S    
O9    Cu1   1.977348 S    
Cu4   N3    2.012722 S    
C48   H56   1.111857 S    
C10   C29   1.578169 S    
C8    C32   1.488506 S    
C16   C20   1.550470 S    
N12   O32   1.300319 A    
O12   Cu2   1.974665 S    
O7    C4    1.289220 A    
O6    Cu4   1.973628 S    
C41   N1    1.489159 S    
O9    C5    1.293230 A    
O14   C7    1.289765 A    
O13   Cu3   1.977348 S    
O16   C8    1.295403 A    
O3    Cu1   1.975120 S    
O1    C1    1.287720 A    
N6    O20   1.299510 A    
C26   C30   1.556773 S    
O6    C3    1.292563 A    
C44   H44   1.111146 S    
C25   C29   1.551762 S    
C5    C29   1.493271 S    
O16   Cu4   1.974665 S    
C2    C33   1.481926 S    
Cu1   Cu2   2.679496 S    
C21   C35   1.547562 S    
C22   H14   1.113673 S    
C25   C39   1.543482 S    
H25   C25   1.108002 S    
H60   C50   1.112260 S    
C45   N3    1.489167 S    
H27   C26   1.107213 S    
C46   N4    1.490060 S    
N11   O29   1.300566 A    
O8    C4    1.291847 A    
C11   C30   1.582195 S    
C9    N5    1.472104 S    
C46   H54   1.111420 S    
H34   C37   1.113522 S    
C6    C30   1.489684 S    
C45   H53   1.108794 S    
O2    Cu2   1.973628 S    
C23   H23   1.113450 S    
C12   C24   1.551816 S    
O10   Cu2   1.975444 S    
C22   H22   1.112148 S    
C47   H47   1.111863 S    
C20   C34   1.545724 S    
C18   H18   1.112946 S    
H39   C40   1.113292 S    
C49   C50   1.575989 S    
O8    Cu4   1.977024 S    
N8    O24   1.300936 A    
C16   H8    1.115389 S    
C23   H15   1.114114 S    
C10   N6    1.472565 S    
O4    C2    1.290184 A    
C33   C37   1.551823 S    
C43   C44   1.572815 S    
O15   Cu3   1.973949 S    
C48   N4    1.487261 S    
N12   O31   1.301886 A    
H57   C49   1.112994 S    
C20   H12   1.113691 S    
O12   C6    1.295793 A    
H36   C38   1.112911 S    
O15   C8    1.289210 A    
H62   C52   1.112951 S    
H59   C49   1.112358 S    
C11   C23   1.536048 S    
N6    O19   1.302134 A    
C24   H24   1.112778 S    
C50   N2    1.489346 S    
H40   C40   1.113208 S    
O4    Cu2   1.977024 S    
C14   N10   1.474711 S    
H28   C26   1.109575 S    
H37   C39   1.112619 S    
C45   C46   1.576592 S    
Cu3   N4    2.012794 S    
C13   H5    1.115418 S    
C48   H48   1.110371 S    
C43   N1    1.486912 S    
Cu1   N2    2.012794 S    
C41   H49   1.108070 S    
O3    C2    1.292134 A    
N5    O17   1.301027 A    
C26   C40   1.539234 S    
O2    C1    1.293888 A    
C18   C33   1.551330 S    
C36   C40   1.549994 S    
N10   O28   1.301610 A    
C19   C34   1.553384 S    
C11   H3    1.115098 S    
C24   C36   1.547424 S    
C35   C39   1.556110 S    
C12   H4    1.115419 S    
C47   N3    1.488041 S    
C15   N11   1.475458 S    
C42   H42   1.111296 S    
C17   H9    1.113672 S    
H31   C28   1.106218 S    
C12   N8    1.469135 S    
H58   C50   1.112881 S    
C9    H1    1.115495 S    
Cu3   Cu4   2.679496 S    
N8    O23   1.301825 A    
C27   C37   1.541022 S    
N9    O25   1.301795 A    
H26   C25   1.108380 S    
C1    C34   1.480526 S    
C28   C38   1.538235 S    
C44   H52   1.110319 S    
C13   C31   1.572721 S    
