data_str_m9_o17_o25_f0_sra.sym.35
_audit_creation_date              2012-12-11T15:24:34-0500
_audit_creation_method            fapswitch 2.2
_symmetry_space_group_name_H-M    P1
_symmetry_Int_Tables_number       1
_space_group_crystal_system       triclinic
_cell_length_a                    23.04936
_cell_length_b                    7.011272
_cell_length_c                    20.613823
_cell_angle_alpha                 90.001436
_cell_angle_beta                  93.217339
_cell_angle_gamma                 90.000853
_cell_volume                      3326.05300057

loop_
_atom_site_label
_atom_site_type_symbol
_atom_type_description
_atom_site_fract_x
_atom_site_fract_y
_atom_site_fract_z
_atom_type_partial_charge
O1    O     O_R   0.188030 0.379840 0.189340 -0.538186
O2    O     O_R   0.811970 0.620160 0.810660 -0.537888
O3    O     O_R   0.311970 0.879840 0.310660 -0.538180
O4    O     O_R   0.688030 0.120160 0.689340 -0.538420
O5    O     O_R   0.307090 0.708420 0.185790 -0.535162
O6    O     O_R   0.692910 0.291580 0.814210 -0.535001
O7    O     O_R   0.192910 0.208420 0.314210 -0.535229
O8    O     O_R   0.807090 0.791580 0.685790 -0.535370
C1    C     C_R   0.326545 0.541079 0.170725 0.721627
C2    C     C_R   0.673442 0.458919 0.829263 0.722000
C3    C     C_R   0.173446 0.041081 0.329266 0.721001
C4    C     C_R   0.826561 0.958917 0.670742 0.720887
O9    O     O_R   0.188180 0.709480 0.181650 -0.544087
O10   O     O_R   0.811820 0.290520 0.818350 -0.543900
O11   O     O_R   0.311820 0.209480 0.318350 -0.543817
O12   O     O_R   0.688180 0.790520 0.681650 -0.544011
O13   O     O_R   0.192210 0.880960 0.306500 -0.535121
O14   O     O_R   0.807790 0.119040 0.693500 -0.535204
O15   O     O_R   0.307790 0.380960 0.193500 -0.534974
O16   O     O_R   0.692210 0.619040 0.806500 -0.534984
C5    C     C_R   0.167723 0.540642 0.165595 0.704260
C6    C     C_R   0.832275 0.459338 0.834414 0.705659
C7    C     C_R   0.332277 0.040655 0.334401 0.704633
C8    C     C_R   0.667722 0.959345 0.665599 0.703963
O17   O     O_3   0.251460 0.546730 0.290970 -0.369397
O18   O     O_3   0.748540 0.453270 0.709030 -0.369855
O19   O     O_3   0.248540 0.046730 0.209030 -0.369417
O20   O     O_3   0.751460 0.953270 0.790970 -0.368878
V1    V     V_3+5 0.249730 0.821120 0.242400 1.427480
V2    V     V_3+5 0.750270 0.178880 0.757600 1.430530
V3    V     V_3+5 0.250270 0.321120 0.257600 1.427897
V4    V     V_3+5 0.749730 0.678880 0.742400 1.429419
C9    C     C_R   0.581907 0.131803 0.613535 -0.151821
C10   C     C_R   0.418092 0.868196 0.386466 -0.151785
C11   C     C_R   0.918088 0.631412 0.886603 -0.148001
C12   C     C_R   0.082042 0.367822 0.113403 -0.152847
C13   C     C_R   0.618194 0.970296 0.616350 -0.109143
C14   C     C_R   0.381806 0.029703 0.383650 -0.109286
C15   C     C_R   0.881793 0.470142 0.883702 -0.114804
C16   C     C_R   0.118198 0.529583 0.116337 -0.110405
C17   C     C_R   0.606833 0.820321 0.572101 -0.195169
C18   C     C_R   0.393166 0.179676 0.427900 -0.195164
C19   C     C_R   0.893167 0.319918 0.927811 -0.185682
C20   C     C_R   0.106751 0.679489 0.072133 -0.196553
C21   C     C_R   0.560284 0.831321 0.524887 0.016232
C22   C     C_R   0.439714 0.168675 0.475114 0.016204
C23   C     C_R   0.939780 0.329930 0.975124 0.024660
C24   C     C_R   0.060241 0.668075 0.024894 0.006070
C25   C     C_R   0.523664 0.993530 0.523248 -0.012359
C26   C     C_R   0.476334 0.006466 0.476753 -0.012347
C27   C     C_R   0.976344 0.492472 0.976838 -0.022874
C28   C     C_R   0.023657 0.505655 0.023244 -0.021894
C29   C     C_R   0.534490 0.143364 0.567942 0.080058
C30   C     C_R   0.465508 0.856633 0.432059 0.080066
C31   C     C_R   0.965507 0.642532 0.932159 0.077777
C32   C     C_R   0.034601 0.355913 0.067788 0.089513
C33   C     C_R   0.550065 0.684586 0.478789 0.446433
C34   C     C_R   0.449934 0.315407 0.521213 0.446466
C35   C     C_R   0.949879 0.181271 0.020764 0.451382
C36   C     C_R   0.050054 0.814603 0.978754 0.442893
C37   C     C_R   0.502189 0.696985 0.433589 -0.212663
C38   C     C_R   0.497809 0.303011 0.566412 -0.212669
C39   C     C_R   0.998252 0.195454 0.066153 -0.231279
C40   C     C_R   0.002218 0.802077 0.933586 -0.213898
H1    H     H_    0.590000 0.247814 0.647637 0.121136
H2    H     H_    0.409999 0.752186 0.352363 0.121251
H3    H     H_    0.910012 0.747591 0.852565 0.121715
H4    H     H_    0.090278 0.251777 0.147455 0.121036
H5    H     H_    0.635009 0.696517 0.573850 0.169700
H6    H     H_    0.364990 0.303480 0.426152 0.169735
H7    H     H_    0.864868 0.196461 0.925720 0.174133
H8    H     H_    0.134841 0.803503 0.073911 0.170686
H9    H     H_    0.493386 0.580103 0.400053 0.131462
H10   H     H_    0.506611 0.419892 0.599949 0.131461
H11   H     H_    0.008677 0.080381 0.099782 0.121546
H12   H     H_    0.993465 0.918863 0.899996 0.133087
C41   C     C_3   0.044132 0.095724 0.528687 0.366829
C42   C     C_3   0.955945 0.904283 0.471404 0.367071
C43   C     C_3   0.455884 0.595867 0.971295 0.366748
C44   C     C_3   0.544002 0.404138 0.028597 0.367625
C45   C     C_3   0.019418 0.905994 0.552808 0.364905
C46   C     C_3   0.980658 0.094012 0.447286 0.364871
C47   C     C_3   0.480578 0.406139 0.947145 0.364564
C48   C     C_3   0.519309 0.593866 0.052741 0.364418
H13   H     H_    0.032130 0.675439 0.470102 0.165659
H14   H     H_    0.967946 0.324566 0.529991 0.165697
H15   H     H_    0.467765 0.175445 0.029776 0.165719
H16   H     H_    0.532119 0.824568 0.970114 0.165907
C49   C     C_1   0.871939 0.966969 0.624863 -0.187279
C50   C     C_1   0.128092 0.033027 0.375175 -0.187799
C51   C     C_1   0.628071 0.466973 0.875155 -0.185778
C52   C     C_1   0.371880 0.533021 0.124796 -0.187367
C53   C     C_3   0.982304 0.179300 0.516637 -0.407119
C54   C     C_3   0.017772 0.820704 0.483456 -0.407269
C55   C     C_3   0.517724 0.679302 0.983414 -0.406961
C56   C     C_3   0.482163 0.320708 0.016474 -0.407270
C57   C     C_3   0.957354 0.986604 0.540982 -0.035326
C58   C     C_3   0.042720 0.013400 0.459108 -0.035229
C59   C     C_3   0.542654 0.486602 0.959039 -0.035504
C60   C     C_3   0.457238 0.513398 0.040849 -0.035124
C61   C     C_1   0.910267 0.974111 0.586859 0.071670
C62   C     C_1   0.089787 0.025889 0.413206 0.071382
C63   C     C_1   0.589748 0.474112 0.913166 0.072628
C64   C     C_1   0.410172 0.525883 0.086749 0.071783
O21   O     O_3   0.584424 0.522556 0.481114 -0.553937
C65   C     C_3   0.619435 0.522295 0.427191 -0.274286
H17   H     H_    0.645603 0.655506 0.424978 0.133917
H18   H     H_    0.592941 0.501088 0.380997 0.135462
H19   H     H_    0.650291 0.401134 0.432427 0.169700
O22   O     O_3   0.415577 0.477440 0.518891 -0.553907
C66   C     C_3   0.380531 0.477598 0.572784 -0.274426
H20   H     H_    0.407003 0.498571 0.619011 0.135407
H21   H     H_    0.354326 0.344433 0.574918 0.133902
H22   H     H_    0.349708 0.598859 0.567570 0.169687
O23   O     O_3   0.913907 0.020946 0.015762 -0.557414
C67   C     C_3   0.908244 0.926765 0.075581 -0.258553
H23   H     H_    0.901789 0.028536 0.116029 0.126339
H24   H     H_    0.946144 0.832063 0.086709 0.144320
H25   H     H_    0.869216 0.834139 0.071054 0.168150
O24   O     O_3   0.084422 0.976586 0.980932 -0.553353
C68   C     C_3   0.119973 0.974875 0.927450 -0.269317
H26   H     H_    0.093855 0.993140 0.880802 0.134557
H27   H     H_    0.146482 0.842024 0.926371 0.134104
H28   H     H_    0.150526 0.096979 0.932347 0.168951
O25   O     O_3   0.036518 0.808454 0.610554 -0.556121
C69   C     C_3   0.096172 0.761906 0.611282 0.090155
H29   H     H_    0.123395 0.872953 0.589639 0.156585
H30   H     H_    0.102283 0.629652 0.583084 0.149507
C70   C     C_3   0.118716 0.735444 0.681553 -0.756006
H31   H     H_    0.093357 0.623315 0.705265 0.231203
H32   H     H_    0.165344 0.695091 0.683503 0.180666
H33   H     H_    0.114156 0.870346 0.708969 0.220464
O26   O     O_3   0.963555 0.191566 0.389545 -0.556340
C71   C     C_3   0.903904 0.238141 0.388832 0.089196
H34   H     H_    0.897804 0.370401 0.417030 0.149670
H35   H     H_    0.876681 0.127102 0.410480 0.156729
C72   C     C_3   0.881351 0.264609 0.318566 -0.754674
H36   H     H_    0.885912 0.129709 0.291149 0.220575
H37   H     H_    0.834723 0.304953 0.316624 0.181252
H38   H     H_    0.906706 0.376743 0.294852 0.230304
O27   O     O_3   0.463491 0.308742 0.889365 -0.556160
C73   C     C_3   0.403832 0.262259 0.888595 0.090286
H39   H     H_    0.376610 0.373349 0.910215 0.156600
H40   H     H_    0.397688 0.130026 0.916790 0.149442
C74   C     C_3   0.381325 0.235795 0.818310 -0.756249
H41   H     H_    0.406699 0.123665 0.794617 0.231145
H42   H     H_    0.334698 0.195432 0.816327 0.180710
H43   H     H_    0.385903 0.370699 0.790902 0.220462
O28   O     O_3   0.536369 0.691264 0.110529 -0.556337
C75   C     C_3   0.596034 0.737681 0.111352 0.090859
H44   H     H_    0.602210 0.869913 0.083167 0.149958
H45   H     H_    0.623261 0.626566 0.089755 0.157565
C76   C     C_3   0.618489 0.764116 0.181655 -0.755784
H46   H     H_    0.613878 0.629212 0.209055 0.220278
H47   H     H_    0.665120 0.804445 0.183686 0.182058
H48   H     H_    0.593102 0.876258 0.205325 0.230848
O29   O     O_3   0.092881 0.194914 0.555780 -0.555156
C77   C     C_3   0.084469 0.242901 0.621156 0.089949
H49   H     H_    0.060949 0.132624 0.647973 0.155131
H50   H     H_    0.058491 0.375453 0.623229 0.149967
C78   C     C_3   0.143679 0.269598 0.656561 -0.753899
H51   H     H_    0.168687 0.381670 0.632371 0.230180
H52   H     H_    0.138295 0.310039 0.707929 0.179622
H53   H     H_    0.168843 0.134765 0.655835 0.222076
O30   O     O_3   0.907199 0.805098 0.444301 -0.555042
C79   C     C_3   0.915619 0.757132 0.378925 0.088978
H54   H     H_    0.941594 0.624572 0.376851 0.149787
H55   H     H_    0.939147 0.867408 0.352115 0.154660
C80   C     C_3   0.856413 0.730467 0.343508 -0.753188
H56   H     H_    0.831252 0.865304 0.344240 0.222352
H57   H     H_    0.861804 0.690054 0.292138 0.178973
H58   H     H_    0.831400 0.618391 0.367687 0.230256
O31   O     O_3   0.407168 0.695198 0.944192 -0.555151
C81   C     C_3   0.415618 0.743253 0.878830 0.089951
H59   H     H_    0.439161 0.633023 0.852015 0.155060
H60   H     H_    0.441593 0.875826 0.876796 0.150012
C82   C     C_3   0.356426 0.769947 0.843383 -0.753925
H61   H     H_    0.331403 0.882016 0.867554 0.230144
H62   H     H_    0.361841 0.810383 0.792021 0.179507
H63   H     H_    0.331259 0.635117 0.844087 0.222091
O32   O     O_3   0.592698 0.304800 0.055744 -0.554379
C83   C     C_3   0.584177 0.256682 0.121086 0.088217
H64   H     H_    0.558209 0.124079 0.123072 0.149924
H65   H     H_    0.560592 0.366869 0.147877 0.154877
C84   C     C_3   0.643330 0.230018 0.156619 -0.748212
H66   H     H_    0.668498 0.364848 0.155945 0.222842
H67   H     H_    0.637854 0.189612 0.207973 0.178304
H68   H     H_    0.668383 0.117937 0.132495 0.232157

loop_
_geom_bond_atom_site_label_1
_geom_bond_atom_site_label_2
_ccdc_geom_bond_type
C34   C38   A    
C59   C63   S    
O1    C5    A    
O29   C77   S    
O19   V1    S    
O13   V1    S    
C80   H56   S    
C43   O31   S    
O3    C7    A    
C66   H20   S    
C3    C50   S    
C60   C64   S    
C44   C48   S    
O15   V3    S    
C10   H2    S    
C71   C72   S    
C74   H41   S    
C9    H1    S    
O31   C81   S    
O7    C3    A    
C72   H37   S    
C21   C33   A    
O30   C79   S    
C39   H11   S    
O9    V1    S    
C14   C18   A    
O16   V4    S    
C79   C80   S    
O4    C8    A    
C55   C59   S    
C84   H67   S    
C65   H17   S    
C54   C58   S    
O23   C67   S    
O1    V3    S    
C67   H23   S    
O17   V1    S    
O2    V4    S    
C18   C22   A    
O3    V1    S    
C42   C46   S    
C81   H59   S    
C50   C62   T    
C68   H28   S    
C77   C78   S    
C74   H42   S    
C83   H64   S    
C77   H50   S    
C2    O16   A    
C82   H62   S    
C75   C76   S    
O2    C6    A    
C19   H7    S    
C20   H8    S    
O14   V2    S    
C21   C25   A    
C44   C56   S    
C16   C20   A    
C27   C31   A    
C72   H36   S    
C70   H33   S    
C49   C61   T    
C48   O28   S    
C74   H43   S    
O11   C7    A    
O25   C69   S    
H16   C55   S    
O12   C8    A    
C46   C53   S    
C34   O22   S    
C22   C34   A    
C79   H55   S    
C46   C58   S    
C73   C74   S    
O10   V2    S    
C1    C52   S    
C78   H53   S    
C78   H52   S    
C1    O15   A    
C24   C36   A    
O5    V1    S    
C9    C29   A    
C72   H38   S    
O7    V3    S    
C33   O21   S    
C11   C31   A    
C27   C28   A    
O8    V4    S    
C4    C49   S    
O20   V4    S    
C47   O27   S    
O18   V4    S    
C84   H68   S    
C23   C27   A    
C69   C70   S    
C37   H9    S    
O32   C83   S    
O19   V3    S    
C9    C13   A    
O22   C66   S    
C83   C84   S    
C48   C60   S    
C43   C55   S    
C11   C15   A    
C18   H6    S    
O5    C1    A    
C12   C32   A    
H14   C53   S    
O26   C71   S    
H13   C54   S    
C43   C60   S    
C41   C45   S    
O8    C4    A    
C82   H63   S    
C57   C61   S    
C31   C40   A    
C42   C57   S    
C8    C13   S    
C40   H12   S    
C32   C39   A    
O9    C5    A    
C41   C58   S    
C66   H21   S    
C26   C30   A    
C44   O32   S    
C76   H48   S    
C33   C37   A    
C81   C82   S    
C68   H26   S    
C67   H24   S    
O6    V2    S    
C2    C51   S    
O18   V2    S    
C44   C59   S    
C79   H54   S    
C80   H58   S    
C73   H40   S    
C76   H47   S    
C53   C57   S    
C78   H51   S    
C12   C16   A    
O24   C68   S    
C65   H18   S    
C17   H5    S    
C70   H31   S    
C80   H57   S    
C3    O13   A    
C42   O30   S    
C69   H30   S    
C45   O25   S    
C10   C14   A    
C6    C15   S    
O17   V3    S    
C51   C63   T    
C82   H61   S    
O6    C2    A    
C15   C19   A    
C12   H4    S    
H15   C56   S    
O11   V3    S    
C71   H34   S    
C30   C37   A    
O12   V4    S    
C7    C14   S    
O21   C65   S    
C22   C26   A    
C35   C39   A    
C67   H25   S    
C36   C40   A    
O10   C6    A    
C46   O26   S    
O20   V2    S    
C58   C62   S    
O28   C75   S    
C43   C47   S    
C45   C54   S    
C10   C30   A    
C84   H66   S    
C77   H49   S    
C5    C16   S    
C45   C57   S    
C42   C54   S    
C69   H29   S    
C25   C29   A    
C47   C56   S    
C56   C60   S    
C41   C53   S    
C81   H60   S    
C71   H35   S    
C36   O24   S    
C66   H22   S    
C75   H45   S    
C13   C17   A    
C83   H65   S    
C68   H27   S    
C11   H3    S    
C52   C64   T    
C23   C35   A    
C28   C32   A    
C24   C28   A    
C29   C38   A    
C35   O23   S    
C25   C26   A    
C4    O14   A    
C73   H39   S    
C17   C21   A    
C75   H44   S    
C38   H10   S    
C47   C59   S    
C76   H46   S    
O27   C73   S    
C19   C23   A    
C48   C55   S    
O4    V2    S    
C20   C24   A    
C41   O29   S    
C70   H32   S    
C65   H19   S    
