data_str_m4_o17_o17_f0_acs.sym.3
_audit_creation_date              2012-12-11T14:30:13-0500
_audit_creation_method            fapswitch 2.2
_symmetry_space_group_name_H-M    P1
_symmetry_Int_Tables_number       1
_space_group_crystal_system       triclinic
_cell_length_a                    12.687136
_cell_length_b                    12.687299
_cell_length_c                    27.080285
_cell_angle_alpha                 89.99978
_cell_angle_beta                  90.002639
_cell_angle_gamma                 120.003188
_cell_volume                      3774.87590921

loop_
_atom_site_label
_atom_site_type_symbol
_atom_type_description
_atom_site_fract_x
_atom_site_fract_y
_atom_site_fract_z
_atom_type_partial_charge
C1    C     C_R   0.557786 0.455667 0.822191 0.552553
C2    C     C_R   0.456037 0.559024 0.177526 0.552001
C3    C     C_R   0.961333 0.296486 0.470127 0.465076
C4    C     C_R   0.289240 0.951823 0.021093 0.453637
C5    C     C_R   0.703515 0.664891 0.470148 0.465077
C6    C     C_R   0.336109 0.046051 0.521291 0.453150
C7    C     C_R   0.040859 0.336659 0.969909 0.466076
C8    C     C_R   0.709868 0.664062 0.521334 0.453241
C9    C     C_R   0.295847 0.959301 0.969917 0.466115
C10   C     C_R   0.953966 0.290058 0.521307 0.453147
C11   C     C_R   0.663565 0.704103 0.969947 0.466141
C12   C     C_R   0.442220 0.897914 0.322189 0.552624
C13   C     C_R   0.103003 0.543965 0.177521 0.552009
C14   C     C_R   0.998951 0.504486 0.973229 -0.150148
C15   C     C_R   0.508735 0.011681 0.524973 -0.149121
C16   C     C_R   0.495615 0.494402 0.973249 -0.150173
C17   C     C_R   0.988266 0.497041 0.524973 -0.149083
C18   C     C_R   0.505566 0.001119 0.973235 -0.150139
C19   C     C_R   0.502900 0.491324 0.524986 -0.149126
C20   C     C_R   0.504312 0.998746 0.473265 -0.149850
C21   C     C_R   0.897028 0.440997 0.677531 0.551699
C22   C     C_R   0.011999 0.508881 0.024928 -0.149421
C23   C     C_R   0.494412 0.495747 0.473276 -0.149876
C24   C     C_R   0.496892 0.988000 0.024932 -0.149394
C25   C     C_R   0.001305 0.505582 0.473269 -0.149837
C26   C     C_R   0.491196 0.503052 0.024949 -0.149430
C27   C     C_R   0.956602 0.671395 0.977192 0.465528
C28   C     C_R   0.677215 0.971773 0.528387 0.471818
C29   C     C_R   0.328591 0.285180 0.977196 0.465593
C30   C     C_R   0.028014 0.705381 0.528370 0.471704
C31   C     C_R   0.714790 0.043336 0.977194 0.465491
C32   C     C_R   0.544334 0.102119 0.822190 0.552538
C33   C     C_R   0.294563 0.322684 0.528369 0.471727
C34   C     C_R   0.672502 0.958316 0.477063 0.464473
C35   C     C_R   0.970175 0.676085 0.028509 0.473258
C36   C     C_R   0.285843 0.327403 0.477042 0.464560
C37   C     C_R   0.705892 0.029710 0.028508 0.473191
C38   C     C_R   0.041518 0.714134 0.477048 0.464498
C39   C     C_R   0.323880 0.294058 0.028513 0.473237
C40   C     C_R   0.948556 0.573620 0.897839 0.410568
C41   C     C_R   0.605911 0.023483 0.604138 0.408465
C42   C     C_R   0.426399 0.374930 0.897848 0.410591
C43   C     C_R   0.558977 0.456050 0.677536 0.551678
C44   C     C_R   0.976360 0.582383 0.604126 0.408438
C45   C     C_R   0.625087 0.051502 0.897849 0.410554
C46   C     C_R   0.417536 0.394071 0.604137 0.408423
C47   C     C_R   0.574012 0.949338 0.397780 0.410260
C48   C     C_R   0.022920 0.605399 0.104171 0.408777
C49   C     C_R   0.375387 0.425928 0.397767 0.410240
C50   C     C_R   0.582460 0.976984 0.104170 0.408765
C51   C     C_R   0.050627 0.624653 0.397775 0.410248
C52   C     C_R   0.394597 0.417479 0.104182 0.408775
C53   C     C_R   0.052087 0.523914 0.127217 -0.022722
C54   C     C_R   0.897903 0.442229 0.822187 0.552521
C55   C     C_R   0.480875 0.954613 0.371289 -0.025661
C56   C     C_R   0.476102 0.528127 0.127231 -0.022720
C57   C     C_R   0.045524 0.526295 0.371304 -0.025701
C58   C     C_R   0.471819 0.947863 0.127216 -0.022713
C59   C     C_R   0.473757 0.519172 0.371295 -0.025689
C60   C     C_R   0.523860 0.051760 0.627268 -0.022766
C61   C     C_R   0.954606 0.480997 0.871273 -0.025743
C62   C     C_R   0.527839 0.476170 0.627282 -0.022763
C63   C     C_R   0.526418 0.045483 0.871285 -0.025737
C64   C     C_R   0.948157 0.472080 0.627262 -0.022740
C65   C     C_R   0.543954 0.102951 0.677531 0.551695
C66   C     C_R   0.519083 0.473588 0.871291 -0.025764
C67   C     C_R   0.969856 0.585286 0.949085 -0.035089
C68   C     C_R   0.597402 0.001048 0.552837 -0.037438
C69   C     C_R   0.414753 0.384541 0.949095 -0.035081
C70   C     C_R   0.998793 0.596308 0.552826 -0.037528
C71   C     C_R   0.615448 0.030172 0.949091 -0.035119
C72   C     C_R   0.403623 0.402579 0.552835 -0.037509
C73   C     C_R   0.585717 0.970623 0.449033 -0.035707
C74   C     C_R   0.000453 0.596907 0.052873 -0.036923
C75   C     C_R   0.384935 0.414250 0.449025 -0.035743
C76   C     C_R   0.455698 0.557787 0.322190 0.552675
C77   C     C_R   0.596443 0.999467 0.052873 -0.036961
C78   C     C_R   0.029330 0.615074 0.449028 -0.035762
C79   C     C_R   0.403105 0.403499 0.052885 -0.036951
C80   C     C_R   0.994424 0.409221 0.895036 -0.115532
C81   C     C_R   0.429343 0.050062 0.599610 -0.125579
C82   C     C_R   0.590976 0.585140 0.895069 -0.115553
C83   C     C_R   0.949869 0.379267 0.599609 -0.125600
C84   C     C_R   0.414841 0.005741 0.895050 -0.115586
C85   C     C_R   0.620617 0.570776 0.599640 -0.125509
C86   C     C_R   0.408522 0.993608 0.395142 -0.116107
C87   C     C_R   0.440958 0.896983 0.177522 0.552002
C88   C     C_R   0.051432 0.430026 0.099471 -0.125469
C89   C     C_R   0.585062 0.591657 0.395170 -0.116052
C90   C     C_R   0.378593 0.948536 0.099469 -0.125479
C91   C     C_R   0.006756 0.415010 0.395175 -0.116189
C92   C     C_R   0.570046 0.621332 0.099494 -0.125430
C93   C     C_R   0.013792 0.417994 0.945799 -0.053124
C94   C     C_R   0.423435 0.034450 0.548789 -0.060260
C95   C     C_R   0.582189 0.595717 0.945830 -0.053240
C96   C     C_R   0.965507 0.388975 0.548793 -0.060270
C97   C     C_R   0.404253 0.986365 0.945809 -0.053211
C98   C     C_R   0.102123 0.544318 0.322193 0.552649
C99   C     C_R   0.610932 0.576689 0.548817 -0.060309
C100  C     C_R   0.417230 0.012783 0.445914 -0.053917
C101  C     C_R   0.035770 0.424169 0.048658 -0.059754
C102  C     C_R   0.595513 0.582922 0.445943 -0.054006
C103  C     C_R   0.388405 0.964228 0.048659 -0.059761
C104  C     C_R   0.987461 0.404518 0.445934 -0.054044
C105  C     C_R   0.575937 0.611522 0.048684 -0.059784
C106  C     C_R   0.048226 0.337448 0.021088 0.453634
C107  C     C_R   0.335308 0.038882 0.470105 0.465000
C108  C     C_R   0.662715 0.710688 0.021124 0.453729
Cr1   Cr    Cr6+3 0.487630 0.241180 0.750000 1.182807
Cr2   Cr    Cr6+3 0.753550 0.512370 0.750000 1.182816
Cr3   Cr    Cr6+3 0.758820 0.246450 0.750000 1.182821
Cr4   Cr    Cr6+3 0.241180 0.487630 0.250000 1.182848
Cr5   Cr    Cr6+3 0.512370 0.753550 0.250000 1.182881
Cr6   Cr    Cr6+3 0.246450 0.758820 0.250000 1.182894
F1    F     F_    0.021005 0.694614 0.131242 -0.517740
F2    F     F_    0.732392 0.085842 0.874567 -0.519420
F3    F     F_    0.977304 0.673168 0.631102 -0.518085
F4    F     F_    0.353350 0.267661 0.874552 -0.519352
F5    F     F_    0.951691 0.757333 0.054199 -0.396274
F6    F     F_    0.753479 0.933236 0.455052 -0.396126
F7    F     F_    0.242560 0.194333 0.054196 -0.396201
F8    F     F_    0.066595 0.820194 0.455034 -0.396025
F9    F     F_    0.805613 0.048132 0.054197 -0.396209
F10   F     F_    0.179794 0.246396 0.455020 -0.395971
F11   F     F_    0.759057 0.954067 0.554008 -0.394887
F12   F     F_    0.647488 0.915786 0.374412 -0.519404
F13   F     F_    0.930419 0.751692 0.955268 -0.398065
F14   F     F_    0.195017 0.240763 0.553974 -0.394800
F15   F     F_    0.821271 0.069493 0.955271 -0.398035
F16   F     F_    0.045662 0.804919 0.553984 -0.394787
F17   F     F_    0.248268 0.178701 0.955268 -0.397991
F18   F     F_    0.067290 0.253077 0.043748 -0.449136
F19   F     F_    0.252613 0.054924 0.444269 -0.451562
F20   F     F_    0.747063 0.814127 0.043793 -0.448992
F21   F     F_    0.945367 0.197770 0.444295 -0.451434
F22   F     F_    0.185779 0.932672 0.043754 -0.449202
F23   F     F_    0.305354 0.326356 0.131246 -0.517753
F24   F     F_    0.802260 0.747622 0.444322 -0.451352
F25   F     F_    0.251218 0.064182 0.544023 -0.447019
F26   F     F_    0.057563 0.254469 0.944005 -0.453480
F27   F     F_    0.812895 0.748937 0.544079 -0.446834
F28   F     F_    0.196967 0.942671 0.944015 -0.453310
F29   F     F_    0.935670 0.186983 0.544044 -0.447188
F30   F     F_    0.745823 0.802985 0.944050 -0.453224
F31   F     F_    0.083993 0.731624 0.374388 -0.519255
F32   F     F_    0.673582 0.978872 0.131238 -0.517760
F33   F     F_    0.268425 0.352303 0.374374 -0.519318
F34   F     F_    0.695750 0.022529 0.631117 -0.518069
F35   F     F_    0.914197 0.646574 0.874559 -0.519444
F36   F     F_    0.326753 0.304188 0.631101 -0.518096
H1    H     H_    0.072747 0.366019 0.116873 0.254003
H2    H     H_    0.338298 0.998950 0.874546 0.248499
H3    H     H_    0.929396 0.294278 0.617091 0.254234
H4    H     H_    0.660783 0.661663 0.874576 0.248585
H5    H     H_    0.338385 0.999858 0.374704 0.248841
H6    H     H_    0.634075 0.706635 0.116902 0.254036
H7    H     H_    0.000733 0.338693 0.374762 0.249063
H8    H     H_    0.293285 0.927251 0.116873 0.254019
H9    H     H_    0.661414 0.661900 0.374753 0.249008
H10   H     H_    0.364857 0.070584 0.617083 0.254216
H11   H     H_    0.001240 0.339489 0.874531 0.248459
H12   H     H_    0.705587 0.635332 0.617128 0.254261
O1    O     O_R   0.460870 0.120930 0.805240 -0.478773
O2    O     O_R   0.120930 0.460870 0.194760 -0.498449
O3    O     O_R   0.539130 0.660060 0.305240 -0.479214
O4    O     O_R   0.339940 0.879070 0.194760 -0.498463
O5    O     O_R   0.498910 0.350470 0.801870 -0.430680
O6    O     O_R   0.851560 0.501090 0.698130 -0.442109
O7    O     O_R   0.649530 0.148440 0.801870 -0.430645
O8    O     O_R   0.498910 0.350470 0.698130 -0.442142
O9    O     O_R   0.851560 0.501090 0.801870 -0.430680
O10   O     O_R   0.649530 0.148440 0.698130 -0.442139
O11   O     O_R   0.350470 0.498910 0.301870 -0.430647
O12   O     O_R   0.660060 0.539130 0.694760 -0.498500
O13   O     O_R   0.501090 0.851560 0.198130 -0.442447
O14   O     O_R   0.148440 0.649530 0.301870 -0.430612
O15   O     O_R   0.350470 0.498910 0.198130 -0.442460
O16   O     O_R   0.501090 0.851560 0.301870 -0.430610
O17   O     O_R   0.148440 0.649530 0.198130 -0.442444
O18   O     O_3   0.666667 0.333333 0.750000 -0.328846
O19   O     O_3   0.333333 0.666667 0.250000 -0.329106
O20   O     O_R   0.879070 0.339940 0.805240 -0.478678
O21   O     O_R   0.460870 0.120930 0.694760 -0.498505
O22   O     O_R   0.660060 0.539130 0.805240 -0.478752
O23   O     O_R   0.879070 0.339940 0.694760 -0.498527
O24   O     O_R   0.120930 0.460870 0.305240 -0.479359
O25   O     O_R   0.539130 0.660060 0.194760 -0.498460
O26   O     O_R   0.339940 0.879070 0.305240 -0.479204

loop_
_geom_bond_atom_site_label_1
_geom_bond_atom_site_label_2
_ccdc_geom_bond_type
C3    C104  A    
C12   O16   A    
C32   O7    A    
C4    C103  A    
C35   C74   A    
C89   C102  A    
C45   C71   A    
C35   F5    S    
C45   F2    S    
C91   C104  A    
C98   O24   A    
C58   C87   S    
C15   C94   A    
C88   C101  A    
C5    F24   S    
C64   C83   A    
Cr1   O8    S    
C44   C64   A    
C106  F18   S    
C49   F33   S    
C22   C101  A    
C46   C62   A    
C18   C24   A    
C84   C97   A    
C76   O11   A    
C28   C68   A    
C8    C99   A    
Cr5   O3    S    
C7    F26   S    
C43   O12   A    
C87   O4    A    
C51   F31   S    
C61   C80   A    
C12   O26   A    
C32   O1    A    
C18   C71   A    
C33   C36   A    
Cr6   O26   S    
C30   C38   A    
Cr3   O10   S    
C59   C89   A    
C6    F25   S    
C2    O25   A    
C21   C64   S    
C80   H11   S    
Cr1   O5    S    
C33   C72   A    
C37   F9    S    
C27   F13   S    
C1    O22   A    
Cr5   O19   S    
C6    C94   A    
C40   C67   A    
C20   C73   A    
C6    C107  A    
C49   C75   A    
C44   C70   A    
C8    F27   S    
C51   C57   A    
C2    O15   A    
C10   C96   A    
C52   C79   A    
C86   C100  A    
C11   F30   S    
C14   C93   A    
C46   C72   A    
C4    F22   S    
Cr2   O9    S    
C50   F32   S    
C31   C71   A    
Cr5   O16   S    
Cr2   O22   S    
C17   C70   A    
C81   H10   S    
C16   C26   A    
C85   H12   S    
C19   C72   A    
C15   C20   A    
Cr2   O6    S    
C7    C93   A    
C26   C105  A    
C30   C70   A    
C43   O8    A    
C89   H9    S    
C41   C68   A    
C29   C69   A    
Cr2   O12   S    
C34   F6    S    
C48   C53   A    
Cr4   O2    S    
C62   C85   A    
Cr3   O23   S    
C65   O10   A    
C25   C78   A    
C50   C58   A    
C48   C74   A    
C23   C102  A    
C47   C73   A    
Cr1   O1    S    
C19   C99   A    
C42   F4    S    
C38   C78   A    
C27   C35   A    
C30   F16   S    
C37   C77   A    
C45   C63   A    
C33   F14   S    
C40   C61   A    
C31   C37   A    
Cr3   O7    S    
C39   C79   A    
C90   H8    S    
C52   F23   S    
C19   C23   A    
C86   H5    S    
C13   C53   S    
C108  F20   S    
C85   C99   A    
C36   C75   A    
C66   C82   A    
C98   O14   A    
C60   C81   A    
C24   C77   A    
C20   C100  A    
Cr2   O18   S    
C14   C67   A    
Cr6   O4    S    
C29   C39   A    
C54   O20   A    
C1    C66   S    
C7    C106  A    
C76   O3    A    
C92   H6    S    
C17   C96   A    
C105  C108  A    
C58   C90   A    
C38   F8    S    
C48   F1    S    
C84   H2    S    
C18   C97   A    
C60   C65   S    
Cr3   O18   S    
C88   H1    S    
C22   C74   A    
C36   F10   S    
C47   F12   S    
C50   C77   A    
C28   F11   S    
C13   O2    A    
C47   C55   A    
C65   O21   A    
C11   C95   A    
C101  C106  A    
C5    C102  A    
C100  C107  A    
C9    C97   A    
C82   C95   A    
C57   C91   A    
C46   F36   S    
C21   O6    A    
C54   O9    A    
C16   C69   A    
C41   C60   A    
C23   C75   A    
C39   F7    S    
C5    C8    A    
C9    F28   S    
C25   C104  A    
C21   O23   A    
Cr4   O19   S    
C83   H3    S    
C54   C61   S    
C32   C63   S    
Cr6   O19   S    
C87   O13   A    
C42   C69   A    
C26   C79   A    
C49   C59   A    
Cr5   O13   S    
C63   C84   A    
C24   C103  A    
C17   C25   A    
C14   C22   A    
C55   C86   A    
C80   C93   A    
C51   C78   A    
C107  F19   S    
C3    C10   A    
C13   O17   A    
Cr4   O24   S    
C81   C94   A    
C16   C95   A    
Cr1   O18   S    
Cr1   O21   S    
C29   F17   S    
C41   F34   S    
C83   C96   A    
C44   F3    S    
C15   C68   A    
Cr6   O14   S    
C40   F35   S    
Cr4   O11   S    
C53   C88   A    
C3    F21   S    
C10   F29   S    
Cr3   O20   S    
C57   C98   S    
C90   C103  A    
C91   H7    S    
C12   C55   S    
C27   C67   A    
C34   C73   A    
C28   C34   A    
C82   H4    S    
C92   C105  A    
C56   C92   A    
C31   F15   S    
Cr6   O17   S    
C11   C108  A    
C42   C66   A    
C1    O5    A    
C2    C56   S    
C4    C9    A    
C59   C76   S    
C52   C56   A    
C43   C62   S    
Cr4   O15   S    
Cr5   O25   S    
