data_str_m3_o16_o22_f0_pcu.sym.274
_audit_creation_date              2012-12-10T18:09:53-0500
_audit_creation_method            fapswitch 2.2
_symmetry_space_group_name_H-M    P1
_symmetry_Int_Tables_number       1
_space_group_crystal_system       triclinic
_cell_length_a                    11.228893
_cell_length_b                    12.570692
_cell_length_c                    13.522405
_cell_angle_alpha                 81.393416
_cell_angle_beta                  91.515243
_cell_angle_gamma                 104.857538
_cell_volume                      1824.02027521

loop_
_atom_site_label
_atom_site_type_symbol
_atom_type_description
_atom_site_fract_x
_atom_site_fract_y
_atom_site_fract_z
_atom_type_partial_charge
C1    C     C_R   0.481496 0.437287 0.692990 1.034798
C2    C     C_R   0.476549 0.453018 0.977080 0.088186
C3    C     C_R   0.462704 0.480073 0.872152 0.051428
C4    C     C_R   0.743247 0.499442 0.502525 1.006656
C5    C     C_R   0.490403 0.537164 0.039600 0.097006
C6    C     C_R   0.472696 0.642398 0.000429 0.081160
C7    C     C_R   0.439339 0.662243 0.902344 -0.088630
C8    C     C_R   0.442153 0.586289 0.839371 0.030608
C9    C     C_R   0.521512 0.519994 0.140198 -0.293161
C10   C     C_R   0.526265 0.709786 0.157987 0.419902
C11   C     C_R   0.464200 0.399394 0.805570 -0.205869
C12   C     C_3   0.119372 0.484896 0.505083 -0.476174
C13   C     C_R   0.344869 0.094454 0.329402 0.340915
C14   C     C_R   0.607059 0.802230 0.649949 0.445319
C15   C     C_R   0.574785 0.886485 0.692499 0.246329
C16   C     C_R   0.519475 0.562607 0.309459 0.914703
C17   C     C_R   0.516576 0.955771 0.636172 -0.276075
C18   C     C_R   0.495689 0.948838 0.536260 0.010011
C19   C     C_R   0.503291 0.849669 0.500635 0.181966
C20   C     C_R   0.453342 0.033283 0.475746 -0.033820
C21   C     C_R   0.391506 0.010302 0.386820 -0.008613
C22   C     C_R   0.376566 0.903325 0.360453 -0.072273
C23   C     C_3   0.080868 0.550119 0.403308 0.240759
C24   C     C_R   0.432578 0.825592 0.415644 -0.070050
C25   C     C_R   0.474202 0.141394 0.501669 0.126191
C26   C     C_R   0.367389 0.199816 0.360836 -0.024601
C27   C     C_R   0.257349 0.496118 0.500743 1.058317
C28   C     C_3   0.889295 0.358257 0.515742 0.460341
C29   C     C_3   0.036052 0.358051 0.523437 0.514043
C30   C     C_3   0.941601 0.549762 0.404699 -0.499477
C31   C     C_3   0.956486 0.562864 0.591487 0.492718
C32   C     C_3   0.879179 0.491362 0.507478 -0.438408
C33   C     C_3   0.092429 0.551540 0.589126 0.049304
C34   C     C_R   0.494363 0.728694 0.058223 -0.122652
C35   C     C_R   0.527254 0.601140 0.201591 -0.132226
C36   C     C_R   0.454764 0.286780 0.852494 0.460625
C37   C     C_R   0.461733 0.262977 0.956114 -0.091393
C38   C     C_R   0.473876 0.343035 0.016821 -0.210696
Cl1   Cl    Cl    0.575846 0.826217 0.219920 -0.514709
Cl2   Cl    Cl    0.618713 0.920959 0.812945 -0.498723
Cl3   Cl    Cl    0.079286 0.283405 0.430755 -0.328740
H1    H     H_    0.144541 0.633096 0.554173 0.194695
H2    H     H_    0.333769 0.265228 0.317335 0.205348
H3    H     H_    0.323432 0.878686 0.296133 0.246596
H4    H     H_    0.527336 0.163261 0.565100 0.223286
H5    H     H_    0.488998 0.016453 0.671637 0.245886
H6    H     H_    0.414085 0.746407 0.391626 0.220944
H7    H     H_    0.890264 0.513801 0.342221 0.275788
H8    H     H_    0.870746 0.300771 0.245196 0.413722
H9    H     H_    0.365657 0.989464 0.843873 0.391107
H10   H     H_    0.762254 0.081729 0.654174 0.421597
H11   H     H_    0.284557 0.004522 0.085438 0.415179
H12   H     H_    0.932127 0.636262 0.388086 0.250812
H13   H     H_    0.773384 0.736785 0.873393 0.408666
H14   H     H_    0.025162 0.097388 0.698102 0.412575
H15   H     H_    0.242410 0.449176 0.209839 0.383803
H16   H     H_    0.103879 0.861036 0.476571 0.413420
H17   H     H_    0.875699 0.580478 0.855603 0.383867
H18   H     H_    0.260673 0.755789 0.671984 0.383884
H19   H     H_    0.128882 0.638093 0.403771 0.181374
H20   H     H_    0.419241 0.740423 0.871902 0.179552
H21   H     H_    0.489231 0.811487 0.025171 0.211929
H22   H     H_    0.541675 0.443418 0.173412 0.190466
H23   H     H_    0.474932 0.313688 0.095767 0.186384
H24   H     H_    0.459748 0.179635 0.992163 0.240887
H25   H     H_    0.426763 0.616982 0.765257 0.236169
N1    N     N_R   0.433240 0.222190 0.444680 -0.127494
N2    N     N_R   0.566070 0.776970 0.554790 -0.170713
O1    O     O_R   0.468120 0.366740 0.627160 -0.531124
O2    O     O_2   0.691516 0.285474 0.377166 -0.295466
O3    O     O_3   0.903943 0.350333 0.295369 -0.478602
O4    O     O_2   0.377347 0.168651 0.696828 -0.280494
O5    O     O_2   0.566459 0.150516 0.786420 -0.222862
O6    O     O_3   0.356081 0.055150 0.872125 -0.541260
O7    O     O_2   0.848276 0.252684 0.720658 -0.154300
O8    O     O_2   0.674820 0.290930 0.634960 -0.251344
O9    O     O_3   0.751868 0.130707 0.591925 -0.481297
O10   O     O_2   0.141636 0.983683 0.246224 -0.223484
O11   O     O_2   0.229543 0.176804 0.169559 -0.261769
O12   O     O_R   0.510770 0.544830 0.662520 -0.616539
O13   O     O_3   0.342181 0.027466 0.139615 -0.550310
O14   O     O_2   0.730554 0.651887 0.678842 -0.185037
O15   O     O_2   0.838236 0.841606 0.701521 -0.190234
O16   O     O_3   0.691915 0.718086 0.841242 -0.556951
O17   O     O_2   0.211277 0.263378 0.621375 -0.220653
O18   O     O_2   0.075306 0.309391 0.731562 -0.167018
O19   O     O_3   0.994751 0.139612 0.639375 -0.454784
O20   O     O_2   0.046758 0.541556 0.203183 -0.199192
O21   O     O_2   0.244363 0.649112 0.253946 -0.356463
O22   O     O_3   0.207222 0.437274 0.278229 -0.476550
O23   O     O_R   0.663880 0.410950 0.482330 -0.552350
O24   O     O_2   0.864431 0.757853 0.527736 -0.183128
O25   O     O_2   0.026445 0.770556 0.652489 -0.192929
O26   O     O_3   0.081109 0.780838 0.470211 -0.634227
O27   O     O_2   0.754238 0.459607 0.718564 -0.289629
O28   O     O_2   0.948130 0.429718 0.778023 -0.156613
O29   O     O_3   0.910707 0.616578 0.788769 -0.408032
O30   O     O_2   0.134970 0.588832 0.791256 -0.177121
O31   O     O_2   0.251766 0.481334 0.718958 -0.298079
O32   O     O_3   0.300040 0.695887 0.662677 -0.627319
O33   O     O_R   0.706530 0.589040 0.517700 -0.531638
O34   O     O_R   0.489230 0.455170 0.337480 -0.636308
O35   O     O_R   0.531880 0.633260 0.372840 -0.620469
O36   O     O_R   0.293470 0.410960 0.482300 -0.529338
O37   O     O_R   0.336120 0.589050 0.517670 -0.629469
O38   O     O_2   0.832028 0.171817 0.416137 -0.142185
S1    S     S_3+6 0.823658 0.290727 0.401150 0.117919
S2    S     S_3+6 0.192006 0.575318 0.696430 0.079982
S3    S     S_3+6 0.439503 0.166037 0.795854 0.060000
S4    S     S_3+6 0.792208 0.261144 0.619503 0.151722
S5    S     S_3+6 0.259414 0.071648 0.219220 0.053870
S6    S     S_3+6 0.720064 0.751803 0.717546 0.128062
S7    S     S_3+6 0.081968 0.271024 0.633068 0.155015
S8    S     S_3+6 0.144165 0.544082 0.281809 0.082441
S9    S     S_3+6 0.976221 0.719230 0.561725 0.083959
S10   S     S_3+6 0.889605 0.512747 0.719542 0.172752
Zn1   Zn    Zn3+2 0.471520 0.381090 0.476390 1.137142
Zn2   Zn    Zn3+2 0.528480 0.618910 0.523610 1.096979

loop_
_geom_bond_atom_site_label_1
_geom_bond_atom_site_label_2
_ccdc_geom_bond_type
C8    H25   S    
O3    S1    S    
C12   C29   S    
C25   N1    A    
O6    S3    S    
H13   O16   S    
C7    C8    A    
C14   S6    S    
O31   S2    D    
H17   O29   S    
C12   C23   S    
O16   S6    S    
O18   S7    D    
O33   Zn2   S    
C30   H7    S    
C36   C37   A    
O2    S1    D    
H9    O6    S    
C16   C35   S    
C5    C6    A    
O38   S1    D    
C27   O37   A    
C28   S1    S    
C27   O36   A    
C34   H21   S    
O30   S2    D    
C18   C19   A    
O25   S9    D    
C7    H20   S    
N2    Zn2   S    
O4    S3    D    
C22   H3    S    
O13   S5    S    
C37   H24   S    
C31   C33   S    
C10   C35   A    
C4    O23   A    
H15   O22   S    
C21   C22   A    
H14   O19   S    
H18   O32   S    
H11   O13   S    
C33   S2    S    
C31   S9    S    
C26   H2    S    
C38   H23   S    
C23   H19   S    
C30   H12   S    
O12   Zn2   S    
O32   S2    S    
C12   C27   S    
C23   C30   S    
C28   C32   S    
C17   H5    S    
C3    C8    A    
C28   S4    S    
C1    O1    A    
C6    C34   A    
C10   Cl1   S    
O14   S6    D    
H10   O9    S    
C5    C9    A    
C37   C38   A    
C11   C36   A    
C2    C38   A    
C16   O35   A    
C31   C32   S    
O27   S10   D    
C4    O33   A    
O23   Zn1   S    
C17   C18   A    
C13   C21   A    
C19   N2    A    
C10   C34   A    
C4    C32   S    
O29   S10   S    
O5    S3    D    
N1    Zn1   S    
O10   S5    D    
O34   Zn1   S    
C16   O34   A    
H16   O26   S    
H8    O3    S    
C22   C24   A    
C13   C26   A    
O35   Zn2   S    
C33   H1    S    
C25   H4    S    
C31   S10   S    
O36   Zn1   S    
C15   C17   A    
C29   S7    S    
O21   S8    D    
C28   C29   S    
O7    S4    D    
C29   Cl3   S    
C9    H22   S    
C24   H6    S    
O26   S9    S    
C26   N1    A    
C6    C7    A    
O11   S5    D    
O17   S7    D    
C2    C3    A    
C13   S5    S    
C23   S8    S    
C30   C32   S    
O15   S6    D    
O1    Zn1   S    
C19   C24   A    
C18   C20   A    
O22   S8    S    
O20   S8    D    
O9    S4    S    
O37   Zn2   S    
O24   S9    D    
C15   Cl2   S    
O19   S7    S    
C3    C11   A    
C2    C5    A    
C20   C21   A    
O8    S4    D    
C20   C25   A    
C36   S3    S    
C9    C35   A    
C1    O12   A    
C14   N2    A    
C14   C15   A    
O28   S10   D    
C1    C11   S    
C12   C33   S    
