data_str_m2_o1_o23_f0_pcu.sym.119
_audit_creation_date              2012-12-10T17:59:43-0500
_audit_creation_method            fapswitch 2.2
_symmetry_space_group_name_H-M    P1
_symmetry_Int_Tables_number       1
_space_group_crystal_system       triclinic
_cell_length_a                    10.851739
_cell_length_b                    9.696561
_cell_length_c                    15.811699
_cell_angle_alpha                 91.805805
_cell_angle_beta                  95.585305
_cell_angle_gamma                 89.056798
_cell_volume                      1654.9075397

loop_
_atom_site_label
_atom_site_type_symbol
_atom_type_description
_atom_site_fract_x
_atom_site_fract_y
_atom_site_fract_z
_atom_type_partial_charge
C1    C     C_R   0.263402 0.501109 0.502996 0.905716
C2    C     C_3   0.637657 0.432587 0.960258 0.532398
C3    C     C_3   0.614011 0.407524 0.055287 -0.406560
C4    C     C_1   0.504420 0.505334 0.825116 0.160933
C5    C     C_1   0.501792 0.493302 0.175108 0.062467
C6    C     C_1   0.501632 0.494220 0.250803 -0.033986
C7    C     C_R   0.074791 0.403010 0.549518 -0.184686
C8    C     C_R   0.058652 0.603366 0.462232 -0.183705
C9    C     C_R   0.946897 0.402550 0.551426 0.375785
C10   C     C_R   0.930666 0.598252 0.455385 0.377011
C11   C     C_R   0.872607 0.498706 0.501909 -0.274968
C12   C     C_R   0.130298 0.503187 0.505516 -0.159689
C13   C     C_R   0.429059 0.072186 0.434924 0.383832
C14   C     C_R   0.424800 0.921683 0.438143 0.386931
C15   C     C_R   0.501788 0.498076 0.340645 0.899696
C16   C     C_R   0.567505 0.928570 0.561667 -0.044063
C17   C     C_R   0.564802 0.075353 0.562915 -0.004634
C18   C     C_R   0.737677 0.499213 0.500727 0.874602
C19   C     C_R   0.501409 0.501858 0.659515 0.801526
C20   C     C_3   0.515743 0.647000 0.055909 -0.380669
C21   C     C_3   0.379381 0.435488 0.039340 -0.475849
C22   C     C_3   0.385621 0.408003 0.941251 0.497851
C23   C     C_3   0.488035 0.661629 0.957034 0.512288
C24   C     C_1   0.503240 0.505636 0.749336 0.027531
C25   C     C_3   0.502612 0.495478 0.082644 -0.025059
C26   C     C_3   0.504242 0.501948 0.917215 -0.287917
Cu1   Cu    Cu3+1 0.500020 0.640660 0.500000 1.093653
Cu2   Cu    Cu3+1 0.500020 0.359340 0.500000 1.103800
H1    H     H_    0.622998 0.876080 0.611711 0.173260
H2    H     H_    0.616779 0.130802 0.614587 0.209291
H3    H     H_    0.453371 0.713061 0.092340 0.236213
H4    H     H_    0.301861 0.503457 0.053598 0.251337
H5    H     H_    0.359689 0.340641 0.072993 0.195672
H6    H     H_    0.607464 0.684786 0.080473 0.252901
H7    H     H_    0.132255 0.327419 0.584355 0.187337
H8    H     H_    0.102291 0.683033 0.430520 0.257630
N1    N     N_R   0.500030 0.852070 0.500020 -0.237467
N2    N     N_R   0.500030 0.147930 0.500020 -0.242244
O1    O     O_R   0.319660 0.618740 0.500000 -0.537588
O2    O     O_R   0.319660 0.381260 0.500000 -0.540858
O3    O     O_R   0.500020 0.618840 0.379440 -0.488686
O4    O     O_R   0.500020 0.381160 0.379440 -0.517542
O5    O     O_R   0.680370 0.618830 0.500010 -0.534559
O6    O     O_R   0.680370 0.381170 0.500010 -0.529787
O7    O     O_R   0.500010 0.618730 0.620560 -0.604828
O8    O     O_R   0.500010 0.381270 0.620560 -0.562522
S1    S     S_3+6 0.339493 0.760764 0.947328 0.111760
O9    O     O_2   0.366584 0.895848 0.994013 -0.185123
O10   O     O_2   0.295729 0.795093 0.857261 -0.176156
O11   O     O_3   0.221531 0.698268 0.994212 -0.503291
H9    H     H_    0.155188 0.769628 0.987504 0.410381
S2    S     S_3+6 0.236029 0.444507 0.876489 0.136542
O12   O     O_2   0.243847 0.558315 0.815974 -0.227854
O13   O     O_2   0.192620 0.323409 0.820201 -0.146987
O14   O     O_3   0.121133 0.478304 0.938441 -0.401876
H10   H     H_    0.108143 0.390523 0.966394 0.390030
S3    S     S_3+6 0.385283 0.217646 0.930389 0.134473
O15   O     O_2   0.390244 0.166932 0.840160 -0.136866
O16   O     O_2   0.480896 0.144056 0.987262 -0.209473
O17   O     O_3   0.247643 0.165215 0.958394 -0.445555
H11   H     H_    0.260802 0.144845 0.019605 0.370114
S4    S     S_3+6 0.588009 0.790112 0.912902 0.133846
O18   O     O_2   0.657624 0.872134 0.983645 -0.137118
O19   O     O_2   0.676807 0.728642 0.855347 -0.269736
O20   O     O_3   0.507042 0.907184 0.852833 -0.378078
H12   H     H_    0.500801 0.868202 0.793885 0.348223
H13   H     H_    0.696008 0.432867 0.100605 0.229962
H14   H     H_    0.600100 0.298436 0.068015 0.245818
S5    S     S_3+6 0.787328 0.526149 0.971546 0.102133
O21   O     O_2   0.880099 0.430876 0.017709 -0.255802
O22   O     O_2   0.834056 0.550575 0.886851 -0.126653
O23   O     O_3   0.796414 0.672410 0.030644 -0.504948
H15   H     H_    0.883709 0.701363 0.031758 0.405639
S6    S     S_3+6 0.688974 0.272505 0.903141 0.148566
O24   O     O_2   0.814961 0.286601 0.872326 -0.126941
O25   O     O_2   0.701347 0.152752 0.961291 -0.170780
O26   O     O_3   0.598878 0.231309 0.814285 -0.498847
H16   H     H_    0.635533 0.145154 0.791669 0.395498
S7    S     S_3+6 0.886965 0.281226 0.617896 0.065943
O27   O     O_2   0.785291 0.345801 0.664489 -0.248001
O28   O     O_2   0.836514 0.161077 0.563684 -0.290417
O29   O     O_3   0.998656 0.223677 0.690091 -0.415637
H17   H     H_    0.035839 0.141915 0.662652 0.367981
S8    S     S_3+6 0.850323 0.712363 0.382541 0.052037
O30   O     O_2   0.749088 0.636697 0.329684 -0.317282
O31   O     O_2   0.795730 0.830835 0.430689 -0.233670
O32   O     O_3   0.947632 0.775093 0.317086 -0.480623
H18   H     H_    0.896800 0.840248 0.280890 0.403846
S9    S     S_3+6 0.358512 0.156094 0.337058 0.105387
O33   O     O_2   0.462467 0.174945 0.282285 -0.276922
O34   O     O_2   0.260124 0.082573 0.280876 -0.168511
O35   O     O_3   0.285920 0.307216 0.352835 -0.512986
H19   H     H_    0.266126 0.345153 0.295534 0.348751
S10   S     S_3+6 0.316896 0.832761 0.359144 0.089633
O36   O     O_2   0.192798 0.901103 0.366421 -0.237691
O37   O     O_2   0.362779 0.856735 0.274063 -0.227169
O38   O     O_3   0.282844 0.664708 0.353061 -0.555902
H20   H     H_    0.227102 0.651663 0.300014 0.368536

loop_
_geom_bond_atom_site_label_1
_geom_bond_atom_site_label_2
_ccdc_geom_bond_type
O32   H18   S    
C11   C18   S    
C3    H14   S    
S8    O32   S    
O14   H10   S    
C22   S3    S    
O38   H20   S    
C19   O8    A    
S1    O10   D    
O26   H16   S    
Cu2   O8    S    
S6    O25   D    
S8    O31   D    
C8    H8    S    
C5    C6    T    
C4    C24   T    
S3    O16   D    
C21   H5    S    
C20   C25   S    
Cu2   O2    S    
C9    S7    S    
C23   C26   S    
Cu2   O4    S    
S5    O22   D    
S4    O19   D    
C1    O2    A    
C6    C15   S    
C23   S4    S    
Cu1   O1    S    
C16   C17   A    
S6    O26   S    
S9    O34   D    
C2    S5    S    
C2    S6    S    
S2    O14   S    
C16   N1    A    
C20   H6    S    
Cu1   O7    S    
C13   C14   A    
C17   H2    S    
S10   O36   D    
C1    C12   S    
S2    O13   D    
S1    O11   S    
C7    C12   A    
C21   H4    S    
C23   S1    S    
S6    O24   D    
C3    C25   S    
S8    O30   D    
C15   O3    A    
S7    O28   D    
S3    O17   S    
S10   O38   S    
C16   H1    S    
Cu2   O6    S    
O17   H11   S    
S5    O23   S    
S4    O18   D    
C18   O6    A    
Cu1   O3    S    
S1    O9    D    
C20   C23   S    
Cu2   N2    S    
C8    C12   A    
O11   H9    S    
C2    C26   S    
S9    O35   S    
S10   O37   D    
C9    C11   A    
C13   N2    A    
C5    C25   S    
O29   H17   S    
S2    O12   D    
C22   S2    S    
C7    C9    A    
C21   C25   S    
S4    O20   S    
C13   S9    S    
C7    H7    S    
C3    H13   S    
C15   O4    A    
O23   H15   S    
S7    O29   S    
C4    C26   S    
C19   O7    A    
C2    C3    S    
C18   O5    A    
C14   N1    A    
S3    O15   D    
Cu1   N1    S    
C10   S8    S    
O35   H19   S    
C19   C24   S    
C17   N2    A    
S5    O21   D    
C10   C11   A    
C1    O1    A    
S7    O27   D    
Cu1   O5    S    
C8    C10   A    
O20   H12   S    
C22   C26   S    
Cu1   Cu2   S    
S9    O33   D    
C21   C22   S    
C14   S10   S    
C20   H3    S    
