data_str_m4_o14_o24_f0_acs.sym.142
_audit_creation_date              2012-12-11T14:24:48-0500
_audit_creation_method            fapswitch 2.2
_symmetry_space_group_name_H-M    P1
_symmetry_Int_Tables_number       1
_space_group_crystal_system       triclinic
_cell_length_a                    19.394213
_cell_length_b                    11.167013
_cell_length_c                    18.656494
_cell_angle_alpha                 89.694294
_cell_angle_beta                  91.225197
_cell_angle_gamma                 91.063199
_cell_volume                      4038.86965317

loop_
_atom_site_label
_atom_site_type_symbol
_atom_type_description
_atom_site_fract_x
_atom_site_fract_y
_atom_site_fract_z
_atom_type_partial_charge
C1    C     C_R   0.727047 0.372882 0.144940 0.539074
C2    C     C_R   0.289135 0.328440 0.860717 0.557400
C3    C     C_R   0.227047 0.872882 0.144940 0.539070
C4    C     C_R   0.789135 0.828440 0.860717 0.557402
C5    C     C_3   0.488914 0.052673 0.024669 -0.113673
C6    C     C_3   0.542240 0.076937 0.965224 -0.113702
C7    C     C_3   0.988913 0.552674 0.024669 -0.113679
C8    C     C_3   0.042239 0.576937 0.965224 -0.113695
C9    C     C_R   0.781714 0.840554 0.939693 -0.007844
C10   C     C_R   0.236959 0.906041 0.069399 0.004186
C11   C     C_R   0.281715 0.340554 0.939693 -0.007843
C12   C     C_R   0.736959 0.406041 0.069399 0.004185
C13   C     C_R   0.718545 0.810197 0.971968 -0.011167
C14   C     C_R   0.297273 0.872085 0.035185 -0.010599
C15   C     C_R   0.218545 0.310198 0.971968 -0.011167
C16   C     C_R   0.797273 0.372085 0.035185 -0.010598
C17   C     C_R   0.700343 0.867933 0.034951 0.005505
C18   C     C_R   0.297025 0.861058 0.959827 0.012601
C19   C     C_R   0.200343 0.367933 0.034951 0.005506
C20   C     C_R   0.797025 0.361058 0.959827 0.012598
C21   C     C_R   0.820304 0.919879 0.054574 -0.125837
C22   C     C_R   0.182915 0.942167 0.952742 -0.137459
C23   C     C_R   0.320304 0.419879 0.054574 -0.125839
C24   C     C_R   0.682915 0.442167 0.952742 -0.137471
C25   C     C_R   0.833763 0.897870 0.982671 0.119895
C26   C     C_R   0.179000 0.943684 0.026475 0.111274
C27   C     C_R   0.333764 0.397871 0.982671 0.119897
C28   C     C_R   0.679000 0.443683 0.026475 0.111278
C29   C     C_R   0.669349 0.734673 0.939535 -0.084654
C30   C     C_R   0.357477 0.844499 0.074294 -0.090630
C31   C     C_R   0.169349 0.234674 0.939535 -0.084654
C32   C     C_R   0.857477 0.344499 0.074294 -0.090630
C33   C     C_R   0.100729 0.243784 0.952047 -0.121246
C34   C     C_R   0.910659 0.289200 0.041286 -0.159679
C35   C     C_R   0.600729 0.743784 0.952047 -0.121246
C36   C     C_R   0.410659 0.789200 0.041286 -0.159677
C37   C     C_R   0.581435 0.821248 0.004041 -0.171467
C38   C     C_R   0.409359 0.774994 0.967002 -0.118527
C39   C     C_R   0.081435 0.321248 0.004041 -0.171470
C40   C     C_R   0.909360 0.274995 0.967002 -0.118528
C41   C     C_R   0.629663 0.879895 0.047355 -0.124919
C42   C     C_R   0.351796 0.804089 0.927238 -0.044604
C43   C     C_R   0.129663 0.379895 0.047355 -0.124919
C44   C     C_R   0.851796 0.304089 0.927238 -0.044604
C45   C     C_R   0.536930 0.154168 0.142474 0.535156
C46   C     C_R   0.467980 0.155679 0.854771 0.539024
C47   C     C_R   0.036930 0.654168 0.142474 0.535157
C48   C     C_R   0.967980 0.655679 0.854771 0.539012
C49   C     C_R   0.753167 0.915446 0.079462 -0.025957
C50   C     C_R   0.243310 0.910636 0.919001 -0.040901
C51   C     C_R   0.253167 0.415446 0.079462 -0.025958
C52   C     C_R   0.743310 0.410636 0.919001 -0.040913
C53   C     C_R   0.461295 0.154275 0.563295 -0.015486
C54   C     C_R   0.534564 0.160339 0.435084 -0.011560
C55   C     C_R   0.961360 0.654304 0.563311 -0.015223
C56   C     C_R   0.034609 0.660357 0.435091 -0.011629
C57   C     C_R   0.483011 0.046816 0.530872 0.039034
C58   C     C_R   0.530841 0.055244 0.476182 0.024490
C59   C     C_R   0.983059 0.546846 0.530879 0.039046
C60   C     C_R   0.030887 0.555268 0.476191 0.024419
C61   C     C_R   0.507420 0.265632 0.462660 -0.150379
C62   C     C_R   0.473551 0.263287 0.527968 -0.162150
C63   C     C_R   0.007475 0.765658 0.462671 -0.150431
C64   C     C_R   0.973619 0.763319 0.527987 -0.162035
C65   C     C_R   0.466349 0.931220 0.557064 -0.084200
C66   C     C_R   0.575461 0.959573 0.466358 -0.091288
C67   C     C_R   0.966377 0.431251 0.557056 -0.084206
C68   C     C_R   0.075506 0.459596 0.466373 -0.091327
C69   C     C_R   0.012886 0.339974 0.550999 -0.132102
C70   C     C_R   0.067883 0.355303 0.506345 -0.126749
C71   C     C_R   0.512864 0.839951 0.551001 -0.132121
C72   C     C_R   0.567847 0.855275 0.506326 -0.126757
C73   C     C_R   0.779976 0.852846 0.558149 -0.008438
C74   C     C_R   0.237759 0.898560 0.434493 -0.001984
C75   C     C_R   0.279983 0.352839 0.558148 -0.008446
C76   C     C_R   0.737734 0.398500 0.434507 -0.001973
C77   C     C_R   0.826390 0.926909 0.518452 -0.003086
C78   C     C_R   0.182665 0.947580 0.474133 0.008669
C79   C     C_R   0.326390 0.426919 0.518454 -0.003092
C80   C     C_R   0.682627 0.447457 0.474160 0.008696
C81   C     C_R   0.831161 0.905771 0.444455 0.061361
C82   C     C_R   0.176962 0.917430 0.546964 0.052969
C83   C     C_R   0.331164 0.405788 0.444456 0.061382
C84   C     C_R   0.676953 0.417309 0.546997 0.052984
C85   C     C_R   0.723184 0.801037 0.444588 -0.186555
C86   C     C_R   0.291169 0.837775 0.546968 -0.171354
C87   C     C_R   0.223196 0.301034 0.444587 -0.186568
C88   C     C_R   0.791190 0.337784 0.546968 -0.171395
C89   C     C_R   0.740670 0.972625 0.147928 0.537401
C90   C     C_R   0.256993 0.966906 0.849395 0.523867
C91   C     C_R   0.240670 0.472625 0.147928 0.537395
C92   C     C_R   0.756993 0.466906 0.849395 0.523905
C93   C     C_R   0.733414 0.779354 0.518531 -0.165561
C94   C     C_R   0.290436 0.839269 0.472383 -0.152281
C95   C     C_R   0.233432 0.279334 0.518527 -0.165569
C96   C     C_R   0.790436 0.339255 0.472385 -0.152272
C97   C     C_R   0.861005 0.030136 0.545096 -0.126911
C98   C     C_R   0.134190 0.027890 0.445245 -0.117524
C99   C     C_R   0.360994 0.530152 0.545102 -0.126911
C100  C     C_R   0.634136 0.527759 0.445296 -0.117548
C101  C     C_R   0.903203 0.097648 0.500150 -0.186725
C102  C     C_R   0.077703 0.060700 0.484371 -0.191433
C103  C     C_R   0.403189 0.597675 0.500161 -0.186738
C104  C     C_R   0.577666 0.560559 0.484452 -0.191416
C105  C     C_R   0.918908 0.056556 0.432250 -0.091406
C106  C     C_R   0.066131 0.012196 0.551771 -0.108537
C107  C     C_R   0.418899 0.556598 0.432259 -0.091426
C108  C     C_R   0.566117 0.512036 0.551853 -0.108488
C109  C     C_R   0.888258 0.951555 0.406389 0.178336
C110  C     C_R   0.114287 0.935770 0.583129 0.185666
C111  C     C_R   0.388259 0.451592 0.406393 0.178341
C112  C     C_R   0.614292 0.435621 0.583195 0.185637
C113  C     C_R   0.768439 0.878518 0.409394 -0.000639
C114  C     C_R   0.238186 0.891841 0.583855 -0.000667
C115  C     C_R   0.268444 0.378525 0.409394 -0.000657
C116  C     C_R   0.738204 0.391829 0.583862 -0.000749
C117  C     C_R   0.728047 0.373765 0.357283 0.534564
C118  C     C_R   0.286747 0.336648 0.637174 0.550273
C119  C     C_R   0.228057 0.873786 0.357276 0.534544
C120  C     C_R   0.786745 0.836652 0.637174 0.550286
C121  C     C_R   0.559453 0.154231 0.361365 0.544551
C122  C     C_R   0.438916 0.152446 0.638552 0.533886
C123  C     C_R   0.059471 0.654231 0.361363 0.544596
C124  C     C_R   0.938944 0.652455 0.638550 0.533893
C125  C     C_R   0.745497 0.960516 0.350663 0.546377
C126  C     C_R   0.255533 0.964508 0.647359 0.547983
C127  C     C_R   0.245498 0.460518 0.350663 0.546337
C128  C     C_R   0.755538 0.464511 0.647359 0.548155
C129  C     C_3   0.521661 0.268592 0.971304 -0.131168
C130  C     C_3   0.468123 0.242486 0.031123 -0.127147
C131  C     C_3   0.021661 0.768592 0.971304 -0.131157
C132  C     C_3   0.968123 0.742487 0.031123 -0.127155
C133  C     C_3   0.572796 0.183154 0.008368 -0.129063
C134  C     C_3   0.437943 0.136870 0.987859 -0.098580
C135  C     C_3   0.072795 0.683153 0.008368 -0.129058
C136  C     C_3   0.937943 0.636870 0.987859 -0.098585
C137  C     C_3   0.518924 0.158954 0.066221 0.026483
C138  C     C_3   0.491516 0.162171 0.929424 0.049836
C139  C     C_3   0.018924 0.658954 0.066221 0.026480
C140  C     C_3   0.991516 0.662172 0.929424 0.049862
Cr1   Cr    Cr6+3 0.772820 0.169820 0.252640 1.014827
Cr2   Cr    Cr6+3 0.227180 0.169820 0.747360 1.005816
Cr3   Cr    Cr6+3 0.272820 0.669820 0.252640 1.014823
Cr4   Cr    Cr6+3 0.727180 0.669820 0.747360 1.005804
Cr5   Cr    Cr6+3 0.615040 0.323610 0.249150 0.972307
Cr6   Cr    Cr6+3 0.384960 0.323610 0.750850 0.979632
Cr7   Cr    Cr6+3 0.115040 0.823610 0.249150 0.972302
Cr8   Cr    Cr6+3 0.884960 0.823610 0.750850 0.979615
Cr9   Cr    Cr6+3 0.616720 0.011130 0.250660 0.981576
Cr10  Cr    Cr6+3 0.383280 0.011130 0.749340 0.983073
Cr11  Cr    Cr6+3 0.116720 0.511130 0.250660 0.981573
Cr12  Cr    Cr6+3 0.883280 0.511130 0.749340 0.983075
H1    H     H_    0.513233 0.349462 0.434190 0.166859
H2    H     H_    0.457582 0.346214 0.551258 0.150727
H3    H     H_    0.013281 0.849486 0.434197 0.166868
H4    H     H_    0.957647 0.846245 0.551275 0.150708
H5    H     H_    0.007250 0.258615 0.582151 0.103131
H6    H     H_    0.103231 0.284911 0.502328 0.122021
H7    H     H_    0.507240 0.758591 0.582155 0.103134
H8    H     H_    0.603190 0.784873 0.502288 0.121957
H9    H     H_    0.678866 0.764490 0.415842 0.112885
H10   H     H_    0.333746 0.798565 0.576088 0.111481
H11   H     H_    0.178871 0.264509 0.415844 0.112899
H12   H     H_    0.833781 0.298607 0.576081 0.111495
H13   H     H_    0.850323 0.068554 0.596444 0.158570
H14   H     H_    0.140972 0.072031 0.394227 0.142894
H15   H     H_    0.350303 0.568565 0.596449 0.158571
H16   H     H_    0.640902 0.571930 0.394284 0.142895
H17   H     H_    0.701346 0.713871 0.545677 0.153344
H18   H     H_    0.331313 0.795802 0.444455 0.152804
H19   H     H_    0.201372 0.213837 0.545671 0.153348
H20   H     H_    0.831320 0.295821 0.444450 0.152796
H21   H     H_    0.922359 0.183137 0.517314 0.106976
H22   H     H_    0.043614 0.126061 0.462216 0.114224
H23   H     H_    0.422332 0.683169 0.517327 0.106986
H24   H     H_    0.543573 0.625936 0.462324 0.114228
H25   H     H_    0.951038 0.110179 0.397405 0.098972
H26   H     H_    0.020556 0.036274 0.580387 0.104569
H27   H     H_    0.451030 0.610234 0.397421 0.098972
H28   H     H_    0.520556 0.536131 0.580491 0.104566
H29   H     H_    0.537279 0.353747 0.945158 0.126245
H30   H     H_    0.437066 0.295853 0.067574 0.116611
H31   H     H_    0.037279 0.853747 0.945158 0.126259
H32   H     H_    0.937066 0.795854 0.067574 0.116616
H33   H     H_    0.475080 0.976263 0.058418 0.130054
H34   H     H_    0.572462 0.015872 0.932036 0.146957
H35   H     H_    0.975080 0.476264 0.058419 0.130056
H36   H     H_    0.072462 0.515872 0.932037 0.146963
H37   H     H_    0.861305 0.950660 0.090385 0.134725
H38   H     H_    0.138830 0.972817 0.921540 0.143576
H39   H     H_    0.361306 0.450660 0.090385 0.134723
H40   H     H_    0.638830 0.472816 0.921540 0.143562
H41   H     H_    0.682817 0.672050 0.902635 0.186976
H42   H     H_    0.365217 0.866759 0.130186 0.135378
H43   H     H_    0.182817 0.172050 0.902635 0.186978
H44   H     H_    0.865217 0.366759 0.130186 0.135379
H45   H     H_    0.063493 0.193042 0.920294 0.101403
H46   H     H_    0.953351 0.258802 0.074454 0.087359
H47   H     H_    0.563493 0.693041 0.920294 0.101395
H48   H     H_    0.453351 0.758802 0.074454 0.087359
H49   H     H_    0.029427 0.337196 0.009928 0.122711
H50   H     H_    0.951933 0.238241 0.939368 0.104888
H51   H     H_    0.529427 0.837195 0.009928 0.122711
H52   H     H_    0.451933 0.738241 0.939368 0.104886
H53   H     H_    0.609538 0.940773 0.084782 0.186580
H54   H     H_    0.350344 0.778914 0.871340 0.142870
H55   H     H_    0.109539 0.440774 0.084782 0.186580
H56   H     H_    0.850344 0.278914 0.871340 0.142881
O1    O     O_R   0.788190 0.043000 0.172520 -0.517187
O2    O     O_R   0.211810 0.043000 0.827480 -0.558735
O3    O     O_R   0.288190 0.543000 0.172520 -0.517184
O4    O     O_R   0.711810 0.543000 0.827480 -0.558740
O5    O     O_R   0.556550 0.253260 0.323480 -0.509541
O6    O     O_R   0.443450 0.253260 0.676520 -0.521936
O7    O     O_R   0.056550 0.753260 0.323480 -0.509551
O8    O     O_R   0.943450 0.753260 0.676520 -0.522089
O9    O     O_R   0.545830 0.051610 0.330160 -0.516335
O10   O     O_R   0.454170 0.051610 0.669840 -0.520183
O11   O     O_R   0.045830 0.551610 0.330160 -0.516309
O12   O     O_R   0.954170 0.551610 0.669840 -0.520229
O13   O     O_R   0.681920 0.959720 0.327070 -0.538798
O14   O     O_R   0.318080 0.959720 0.672930 -0.538880
O15   O     O_R   0.181920 0.459720 0.327070 -0.538804
O16   O     O_R   0.818080 0.459720 0.672930 -0.538859
O17   O     O_3   0.668190 0.168190 0.250820 -0.269540
O18   O     O_3   0.331810 0.168190 0.749180 -0.308858
O19   O     O_3   0.168190 0.668190 0.250820 -0.269550
O20   O     O_3   0.831810 0.668190 0.749180 -0.308840
O21   O     O_R   0.766240 0.292300 0.176860 -0.509962
O22   O     O_R   0.233760 0.292300 0.823140 -0.503856
O23   O     O_R   0.266240 0.792300 0.176860 -0.509962
O24   O     O_R   0.733760 0.792300 0.823140 -0.503861
O25   O     O_R   0.670310 0.409160 0.168720 -0.520120
O26   O     O_R   0.329690 0.409160 0.831280 -0.490589
O27   O     O_R   0.170310 0.909160 0.168720 -0.520123
O28   O     O_R   0.829690 0.909160 0.831280 -0.490577
O29   O     O_R   0.556160 0.251900 0.173380 -0.519143
O30   O     O_R   0.443840 0.251900 0.826620 -0.545739
O31   O     O_R   0.056160 0.751900 0.173380 -0.519142
O32   O     O_R   0.943840 0.751900 0.826620 -0.545746
O33   O     O_R   0.545410 0.050140 0.168240 -0.545011
O34   O     O_R   0.454590 0.050140 0.831760 -0.504879
O35   O     O_R   0.045410 0.550140 0.168240 -0.545013
O36   O     O_R   0.954590 0.550140 0.831760 -0.504901
O37   O     O_R   0.681530 0.958350 0.176970 -0.527273
O38   O     O_R   0.318470 0.958350 0.823030 -0.509259
O39   O     O_R   0.181530 0.458350 0.176970 -0.527273
O40   O     O_R   0.818470 0.458350 0.823030 -0.509244
O41   O     O_R   0.788610 0.044480 0.334450 -0.480888
O42   O     O_R   0.211390 0.044480 0.665550 -0.495757
O43   O     O_R   0.288610 0.544480 0.334450 -0.480879
O44   O     O_R   0.711390 0.544480 0.665550 -0.495732
O45   O     O_R   0.766630 0.293670 0.326970 -0.501934
O46   O     O_R   0.233370 0.293670 0.673030 -0.483769
O47   O     O_R   0.266630 0.793670 0.326970 -0.501934
O48   O     O_R   0.733370 0.793670 0.673030 -0.483778
O49   O     O_R   0.670730 0.410640 0.330640 -0.538309
O50   O     O_R   0.329270 0.410640 0.669360 -0.533405
O51   O     O_R   0.170730 0.910640 0.330640 -0.538298
O52   O     O_R   0.829270 0.910640 0.669360 -0.533392
H57   H     H_    0.628609 0.200046 0.019215 0.123504
H58   H     H_    0.382212 0.117344 0.977746 0.112939
H59   H     H_    0.128609 0.700046 0.019215 0.123506
H60   H     H_    0.882212 0.617345 0.977746 0.112940
H61   H     H_    0.422187 0.914298 0.589369 0.150646
H62   H     H_    0.618704 0.968795 0.432027 0.153738
H63   H     H_    0.922206 0.414336 0.589348 0.150625
H64   H     H_    0.118753 0.468821 0.432049 0.153710
N1    N     N_2   0.904855 0.911057 0.336101 -0.501467
H65   H     H_    0.950753 0.944329 0.316460 0.241156
C141  C     C_3   0.889515 0.787400 0.317254 -0.269207
H66   H     H_    0.919147 0.762519 0.269423 0.158270
H67   H     H_    0.834055 0.775604 0.302987 0.139724
H68   H     H_    0.903335 0.726032 0.362034 0.157163
N2    N     N_2   0.101412 0.885609 0.652481 -0.498179
H69   H     H_    0.055896 0.911227 0.675016 0.254728
C142  C     C_3   0.115523 0.759463 0.662433 -0.262164
H70   H     H_    0.090284 0.725781 0.711708 0.164126
H71   H     H_    0.171650 0.745370 0.669570 0.145381
H72   H     H_    0.095666 0.706498 0.615981 0.162111
N3    N     N_2   0.404862 0.411111 0.336103 -0.501458
H73   H     H_    0.450763 0.444385 0.316469 0.241136
C143  C     C_3   0.389513 0.287467 0.317232 -0.269188
H74   H     H_    0.419139 0.262609 0.269391 0.158240
H75   H     H_    0.334050 0.275687 0.302968 0.139725
H76   H     H_    0.403334 0.226070 0.361999 0.157162
N4    N     N_2   0.601493 0.385608 0.652605 -0.498110
H77   H     H_    0.556017 0.411340 0.675185 0.254667
C144  C     C_3   0.615505 0.259441 0.662621 -0.261910
H78   H     H_    0.590974 0.226293 0.712393 0.163624
H79   H     H_    0.671666 0.244946 0.668847 0.145200
H80   H     H_    0.594837 0.206311 0.616624 0.162491
N5    N     N_2   0.897533 0.937790 0.952963 -0.497067
H81   H     H_    0.919027 0.884716 0.915664 0.293476
C145  C     C_3   0.945633 0.013109 0.993028 -0.325777
H82   H     H_    0.982524 0.055137 0.955900 0.136975
H83   H     H_    0.976020 0.964910 0.033423 0.135125
H84   H     H_    0.917335 0.076973 0.023867 0.176746
N6    N     N_2   0.113200 0.971598 0.054392 -0.522774
H85   H     H_    0.085185 0.900528 0.074353 0.283454
C146  C     C_3   0.105225 0.083015 0.092477 -0.261102
H86   H     H_    0.094311 0.066900 0.149856 0.155319
H87   H     H_    0.058793 0.127429 0.071145 0.129135
H88   H     H_    0.151864 0.141490 0.088485 0.176905
N7    N     N_2   0.397533 0.437791 0.952963 -0.497068
H89   H     H_    0.419027 0.384717 0.915664 0.293473
C147  C     C_3   0.445634 0.513108 0.993029 -0.325777
H90   H     H_    0.482525 0.555137 0.955900 0.136970
H91   H     H_    0.476020 0.464909 0.033423 0.135127
H92   H     H_    0.417335 0.576972 0.023867 0.176746
N8    N     N_2   0.613200 0.471597 0.054392 -0.522773
H93   H     H_    0.585185 0.400527 0.074353 0.283453
C148  C     C_3   0.605226 0.583014 0.092477 -0.261100
H94   H     H_    0.594311 0.566898 0.149856 0.155320
H95   H     H_    0.558793 0.627429 0.071146 0.129134
H96   H     H_    0.651864 0.641488 0.088486 0.176906

loop_
_geom_bond_atom_site_label_1
_geom_bond_atom_site_label_2
_ccdc_geom_bond_type
Cr11  O19   S    
C124  O12   A    
C133  C137  S    
C55   C59   A    
Cr1   O41   S    
C99   C103  A    
C73   C93   A    
C136  C140  S    
C128  O16   A    
Cr6   O26   S    
C75   C95   A    
C146  H86   S    
C135  C139  S    
C84   C112  A    
Cr3   O43   S    
C4    O24   A    
C79   C99   A    
Cr12  O36   S    
Cr5   O25   S    
C5    C6    S    
C141  H66   S    
C100  C104  A    
C9    C13   A    
C109  N1    S    
C131  C140  S    
C3    O27   A    
C11   C15   A    
C50   C90   S    
C66   C72   A    
C12   C16   A    
C1    O25   A    
N4    C144  S    
C22   H38   S    
C87   C115  A    
C32   H44   S    
C25   N5    S    
C59   C60   A    
C38   H52   S    
C8    C135  S    
C101  C105  A    
C130  C134  S    
Cr8   O52   S    
C99   H15   S    
Cr5   O49   S    
C56   C123  S    
C105  H25   S    
C120  O52   A    
Cr5   O17   S    
C121  O5    A    
C78   C82   A    
C11   C27   A    
C16   C20   A    
Cr9   O9    S    
Cr6   O6    S    
C129  C133  S    
C40   H50   S    
N1    C141  S    
Cr11  O11   S    
C3    O23   A    
Cr1   O1    S    
C146  H88   S    
C67   C69   A    
C29   C35   A    
C107  H27   S    
Cr8   O32   S    
Cr3   O19   S    
C39   C43   A    
C5    C137  S    
C118  O50   A    
C54   C61   A    
C6    H34   S    
C30   C36   A    
C8    C140  S    
C125  O41   A    
C76   C96   A    
C31   H43   S    
C29   H41   S    
C28   N8    S    
C89   O37   A    
C26   N6    S    
C69   C70   A    
C45   O29   A    
Cr11  O35   S    
C27   N7    S    
C73   C77   A    
C103  C107  A    
C147  H91   S    
C75   C79   A    
C94   H18   S    
C79   C83   A    
C6    C138  S    
C101  H21   S    
Cr8   O20   S    
C21   C49   A    
C92   O40   A    
C35   H47   S    
C7    C8    S    
C145  H83   S    
C132  C139  S    
C133  H57   S    
C7    H35   S    
Cr7   O7    S    
C53   C122  S    
C18   C42   A    
C114  C126  S    
C148  H95   S    
C67   H63   S    
C59   C67   A    
C85   C93   A    
Cr6   O30   S    
N7    C147  S    
C87   C95   A    
C69   H5    S    
C77   C97   A    
C84   C116  A    
Cr3   O47   S    
C142  H70   S    
C143  H76   S    
C4    O28   A    
C1    C12   S    
C2    C11   S    
Cr8   O8    S    
C20   C44   A    
C37   H51   S    
C68   H64   S    
C48   C140  S    
C80   C84   A    
C83   C115  A    
Cr4   O4    S    
C91   O3    A    
C10   C14   A    
C17   C49   A    
Cr7   O19   S    
C89   O1    A    
C88   H12   S    
N5    H81   S    
C34   H46   S    
C21   H37   S    
C132  C136  S    
C144  H78   S    
C24   H40   S    
C98   H14   S    
C47   O31   A    
C54   C121  S    
N8    C148  S    
C74   C78   A    
Cr6   O50   S    
C81   C113  A    
C129  C130  S    
Cr10  O38   S    
C21   C25   A    
C107  C111  A    
C24   C28   A    
C15   C31   A    
Cr7   O31   S    
C16   C32   A    
Cr2   O46   S    
C13   C17   A    
C147  H92   S    
C85   C113  A    
C7    C136  S    
C57   C58   A    
Cr11  O15   S    
C37   C41   A    
C61   C62   A    
C92   O4    A    
C2    O22   A    
C63   C64   A    
C40   C44   A    
C56   C60   A    
C142  H72   S    
C143  H74   S    
Cr3   O23   S    
C4    C9    S    
C106  H26   S    
C110  N2    S    
C24   C52   A    
C141  H68   S    
C119  O51   A    
C88   C96   A    
Cr10  O18   S    
C123  O7    A    
C85   H9    S    
C74   C94   A    
N2    H69   S    
C5    H33   S    
C48   O36   A    
C65   H61   S    
C9    C25   A    
C8    H36   S    
C15   C19   A    
Cr4   O48   S    
C93   H17   S    
C12   C28   A    
C13   C29   A    
C6    C133  S    
Cr11  O39   S    
C136  H60   S    
Cr1   O21   S    
C144  H80   S    
C123  O11   A    
C51   C91   S    
C131  H31   S    
C2    O26   A    
C112  N4    S    
C22   C50   A    
C73   C120  S    
N1    H65   S    
C111  N3    S    
C75   C118  S    
C121  O9    A    
C48   O32   A    
C19   C43   A    
Cr2   O18   S    
C146  H87   S    
C91   O39   A    
C43   H55   S    
C147  H90   S    
C76   C80   A    
C104  H24   S    
C145  H82   S    
C53   C57   A    
Cr6   O18   S    
C122  O6    A    
C70   H6    S    
N6    H85   S    
N4    H77   S    
C77   C81   A    
C103  H23   S    
C128  O44   A    
Cr10  O14   S    
Cr5   O5    S    
C81   C109  A    
C125  O13   A    
Cr12  O16   S    
C83   C111  A    
C52   C92   S    
N3    C143  S    
C46   O34   A    
C131  C132  S    
C104  C108  A    
C18   C50   A    
C55   C124  S    
Cr9   O37   S    
N2    C142  S    
Cr4   O24   S    
C36   H48   S    
C57   C65   A    
C119  O47   A    
C76   C117  S    
C86   C114  A    
C126  O42   A    
Cr1   O45   S    
C36   C38   A    
C98   C102  A    
C132  H32   S    
C47   O35   A    
C148  H94   S    
C30   H42   S    
C105  C109  A    
C97   H13   S    
C90   O38   A    
C42   H54   S    
Cr12  O40   S    
Cr2   O22   S    
C108  C112  A    
Cr10  O34   S    
C60   C68   A    
N5    C145  S    
N7    H89   S    
C22   C26   A    
C47   C139  S    
C130  C137  S    
C95   H19   S    
C32   C34   A    
Cr7   O27   S    
C87   H11   S    
N8    H93   S    
C135  H59   S    
Cr2   O42   S    
C143  H75   S    
Cr9   O17   S    
C14   C18   A    
C23   H39   S    
C74   C119  S    
C33   C39   A    
C34   C40   A    
C82   C110  A    
C35   C37   A    
C38   C42   A    
C131  C135  S    
C113  C125  S    
C44   H56   S    
C115  C127  S    
C108  H28   S    
C86   C94   A    
C106  C110  A    
Cr12  O20   S    
C58   C66   A    
C129  C138  S    
Cr5   O29   S    
C78   C98   A    
C31   C33   A    
C86   H10   S    
C23   C27   A    
C118  O46   A    
C66   H62   S    
C127  O15   A    
C46   C138  S    
C10   C26   A    
Cr4   O44   S    
C134  H58   S    
C80   C100  A    
Cr7   O51   S    
Cr9   O13   S    
C14   C30   A    
C145  H84   S    
Cr1   O17   S    
C5    C134  S    
C117  O45   A    
C82   C114  A    
C124  O8    A    
C130  H30   S    
C90   O2    A    
C148  H96   S    
Cr3   O3    S    
N3    H73   S    
C65   C71   A    
C62   H2    S    
Cr8   O28   S    
C88   C116  A    
C120  O48   A    
C19   C51   A    
C117  O49   A    
C53   C62   A    
C23   C51   A    
C33   H45   S    
C55   C64   A    
C45   C137  S    
Cr10  O10   S    
C56   C63   A    
N6    C146  S    
C68   C70   A    
C142  H71   S    
C116  C128  S    
Cr2   O2    S    
C45   O33   A    
C54   C58   A    
C141  H67   S    
C129  H29   S    
C122  O10   A    
C49   C89   S    
C61   H1    S    
C134  C138  S    
C126  O14   A    
C102  H22   S    
C71   H7    S    
C64   H4    S    
C72   H8    S    
C100  H16   S    
C39   H49   S    
C63   H3    S    
C20   C52   A    
C3    C10   S    
C7    C139  S    
Cr12  O12   S    
C144  H79   S    
C102  C106  A    
C127  O43   A    
C46   O30   A    
C41   H53   S    
C17   C41   A    
C1    O21   A    
C71   C72   A    
Cr9   O33   S    
C96   H20   S    
Cr4   O20   S    
C97   C101  A    
