data_str_m3_o14_o18_f0_pcu.sym.205
_audit_creation_date              2012-12-10T17:44:33-0500
_audit_creation_method            fapswitch 2.2
_symmetry_space_group_name_H-M    P1
_symmetry_Int_Tables_number       1
_space_group_crystal_system       triclinic
_cell_length_a                    10.003748
_cell_length_b                    10.682259
_cell_length_c                    15.594226
_cell_angle_alpha                 93.017867
_cell_angle_beta                  70.025618
_cell_angle_gamma                 92.022444
_cell_volume                      1563.75802815

loop_
_atom_site_label
_atom_site_type_symbol
_atom_type_description
_atom_site_fract_x
_atom_site_fract_y
_atom_site_fract_z
_atom_type_partial_charge
C1    C     C_R   0.503912 0.738688 0.499221 0.922054
C2    C     C_R   0.424778 0.443906 0.905457 0.110947
C3    C     C_R   0.281274 0.412940 0.954473 0.170684
C4    C     C_R   0.528331 0.444044 0.948164 0.068653
C5    C     C_R   0.482510 0.441591 0.044088 0.061997
C6    C     C_R   0.338603 0.408827 0.092298 -0.181640
C7    C     C_R   0.240617 0.390682 0.047180 -0.217350
C8    C     C_R   0.675822 0.446828 0.898042 -0.207395
C9    C     C_R   0.775095 0.464948 0.941767 -0.229574
C10   C     C_R   0.729998 0.480442 0.036391 0.174661
C11   C     C_R   0.583073 0.470162 0.087968 0.084067
C12   C     C_R   0.411398 0.499135 0.674755 0.965322
C13   C     C_R   0.829471 0.505486 0.080639 -0.209182
C14   C     C_R   0.785153 0.512691 0.175516 -0.215257
C15   C     C_R   0.540543 0.493672 0.181849 -0.172491
C16   C     C_R   0.615805 0.858211 0.326898 -0.152969
C17   C     C_R   0.644141 0.916633 0.244778 -0.180589
C18   C     C_R   0.590220 0.035009 0.245369 -0.152119
C19   C     C_R   0.511495 0.095674 0.328443 0.388791
C20   C     C_R   0.518379 0.051712 0.410952 -0.100502
C21   C     C_R   0.550934 0.925429 0.410487 0.062161
C22   C     C_R   0.517753 0.870061 0.494186 -0.095704
C23   C     C_R   0.500032 0.259663 0.494203 0.975195
C24   C     C_R   0.492052 0.940039 0.575033 -0.191640
C25   C     C_R   0.479393 0.067776 0.576139 0.370123
C26   C     C_R   0.492066 0.124886 0.494077 -0.214243
C27   C     C_R   0.789311 0.625316 0.642097 -0.122592
C28   C     C_R   0.809813 0.644185 0.725764 -0.205871
C29   C     C_R   0.942699 0.621776 0.731123 -0.254154
C30   C     C_R   0.057550 0.621860 0.649225 0.458691
C31   C     C_R   0.035226 0.561063 0.571415 0.033716
C32   C     C_R   0.892354 0.561759 0.569895 0.147271
C33   C     C_R   0.963140 0.444528 0.431135 -0.103637
C34   C     C_R   0.588313 0.503027 0.325522 0.855395
C35   C     C_R   0.105564 0.446240 0.430640 -0.012184
C36   C     C_R   0.359744 0.480016 0.772815 0.005798
C37   C     C_R   0.639926 0.504524 0.226282 -0.049178
C38   C     C_R   0.180572 0.407346 0.910045 -0.184123
C39   C     C_R   0.218810 0.443319 0.819999 -0.103624
C40   C     C_R   0.459822 0.481369 0.816340 -0.192795
H1    H     H_    0.131495 0.365229 0.085784 0.154507
H2    H     H_    0.480724 0.894087 0.637425 0.203031
H3    H     H_    0.697064 0.866162 0.180672 0.169815
H4    H     H_    0.592117 0.070801 0.181226 0.182771
H5    H     H_    0.938684 0.398532 0.374648 0.149802
H6    H     H_    0.694858 0.660942 0.635104 0.191847
H7    H     H_    0.429348 0.503021 0.221617 0.171152
H8    H     H_    0.959617 0.649344 0.794581 0.187691
H9    H     H_    0.887052 0.468383 0.901303 0.138533
H10   H     H_    0.073259 0.373944 0.944473 0.137133
H11   H     H_    0.565589 0.513642 0.779749 0.147265
H12   H     H_    0.716823 0.431095 0.824831 0.177912
N1    N     N_R   0.856800 0.501200 0.500850 -0.114242
N2    N     N_R   0.142390 0.501280 0.500880 -0.124899
O1    O     O_R   0.385310 0.683220 0.500000 -0.530315
O2    O     O_R   0.614640 0.683250 0.500010 -0.664604
O3    O     O_R   0.319840 0.499980 0.632240 -0.623393
O4    O     O_R   0.549160 0.500000 0.632250 -0.621623
O5    O     O_R   0.385360 0.316750 0.499990 -0.522414
O6    O     O_R   0.614690 0.316780 0.500000 -0.598514
O7    O     O_R   0.450840 0.500000 0.367750 -0.598873
O8    O     O_R   0.680160 0.500020 0.367760 -0.645077
Zn1   Zn    Zn3+2 0.346880 0.499980 0.499990 1.068626
Zn2   Zn    Zn3+2 0.653120 0.500020 0.500010 0.969656
H13   H     H_    0.941088 0.518682 0.042419 0.140844
H14   H     H_    0.649459 0.762719 0.324878 0.129288
S1    S     S_3+6 0.353633 0.161263 0.326887 0.001695
O9    O     O_2   0.389654 0.287412 0.287545 -0.364702
O10   O     O_2   0.295067 0.081106 0.265283 -0.284926
O11   O     O_3   0.228034 0.171716 0.431089 -0.526687
H15   H     H_    0.205855 0.083920 0.449495 0.382365
S2    S     S_3+6 0.433774 0.150804 0.682876 0.028062
O12   O     O_2   0.302453 0.223679 0.695514 -0.300991
O13   O     O_2   0.403264 0.063207 0.759947 -0.273326
O14   O     O_3   0.567917 0.248913 0.684560 -0.545005
H16   H     H_    0.651480 0.194653 0.671281 0.356187
H17   H     H_    0.726308 0.682772 0.784680 0.180326
S3    S     S_3+6 0.132891 0.774987 0.641246 0.033662
O15   O     O_2   0.259185 0.772783 0.672060 -0.361648
O16   O     O_2   0.172064 0.820848 0.546096 -0.295778
O17   O     O_3   0.016148 0.876554 0.711873 -0.533497
H18   H     H_    0.069949 0.956964 0.707981 0.403890
H19   H     H_    0.185911 0.403921 0.372985 0.214338
H20   H     H_    0.863807 0.525916 0.208851 0.165731
H21   H     H_    0.140270 0.437344 0.786305 0.150328
H22   H     H_    0.299885 0.392965 0.164475 0.187347

loop_
_geom_bond_atom_site_label_1
_geom_bond_atom_site_label_2
_ccdc_geom_bond_type
C16   C21   A    
C34   C37   S    
C33   H5    S    
C19   C20   A    
C15   H7    S    
C4    C8    A    
O17   H18   S    
C13   H13   S    
C23   O5    A    
C28   C29   A    
C1    O2    A    
C5    C11   A    
C3    C7    A    
C30   C31   A    
N1    Zn2   S    
S3    O16   D    
N2    Zn1   S    
C34   O8    A    
C24   H2    S    
C18   C19   A    
C23   C26   S    
O7    Zn1   S    
C15   C37   A    
O8    Zn2   S    
C11   C15   A    
C3    C38   A    
C8    C9    A    
O1    Zn1   S    
O2    Zn2   S    
C19   S1    S    
O11   H15   S    
C14   H20   S    
C12   C36   S    
C9    C10   A    
C8    H12   S    
C12   O4    A    
C1    C22   S    
C21   C22   A    
C35   N2    A    
C33   N1    A    
S2    O14   S    
O3    Zn1   S    
O4    Zn2   S    
C23   O6    A    
C29   H8    S    
S1    O9    D    
C36   C40   A    
C9    H9    S    
C24   C25   A    
S2    O13   D    
C35   H19   S    
S3    O15   D    
C16   C17   A    
C25   C26   A    
C34   O7    A    
S1    O10   D    
C38   C39   A    
C2    C4    A    
O14   H16   S    
C17   H3    S    
C29   C30   A    
C18   H4    S    
C31   C32   A    
C17   C18   A    
C25   S2    S    
C28   H17   S    
C12   O3    A    
C27   H6    S    
C22   C24   A    
C16   H14   S    
C39   H21   S    
C32   N1    A    
C27   C32   A    
C36   C39   A    
S2    O12   D    
C10   C13   A    
C6    C7    A    
C38   H10   S    
C40   H11   S    
O5    Zn1   S    
C6    H22   S    
O6    Zn2   S    
S1    O11   S    
C2    C3    A    
C1    O1    A    
C14   C37   A    
S3    O17   S    
C5    C6    A    
C20   C26   A    
C33   C35   A    
C7    H1    S    
C31   N2    A    
C10   C11   A    
C30   S3    S    
C2    C40   A    
C4    C5    A    
C20   C21   A    
C27   C28   A    
C13   C14   A    
