data_str_m12_o4_o24_f0_bcu.sym.88
_audit_creation_date              2013-03-05T15:54:37-0500
_audit_creation_method            fapswitch 2.2
_symmetry_space_group_name_H-M    P1
_symmetry_Int_Tables_number       1
_space_group_crystal_system       triclinic
_cell_length_a                    17.34855
_cell_length_b                    24.421551
_cell_length_c                    14.929966
_cell_angle_alpha                 89.470868
_cell_angle_beta                  125.492386
_cell_angle_gamma                 90.523299
_cell_volume                      5149.90546846

loop_
_atom_site_label
_atom_site_type_symbol
_atom_site_description
_atom_site_fract_x
_atom_site_fract_y
_atom_site_fract_z
_atom_type_partial_charge
C1    C     C_R   0.818895 0.635365 0.905153 -0.080420
C2    C     C_R   0.193293 0.620587 0.092312 -0.123162
C3    C     C_R   0.353029 0.152519 0.906333 -0.124227
C4    C     C_R   0.693592 0.119533 0.093120 -0.099043
H1    H     H_    0.768327 0.645473 0.820806 0.107589
H2    H     H_    0.253746 0.621109 0.176566 0.149693
H3    H     H_    0.319625 0.166572 0.822707 0.112581
H4    H     H_    0.753342 0.122087 0.177829 0.146891
N1    N     N_R   0.892620 0.603790 0.941770 -0.052431
N2    N     N_R   0.107380 0.603790 0.058230 -0.055466
N3    N     N_R   0.392620 0.103790 0.941770 -0.047138
N4    N     N_R   0.607380 0.103790 0.058230 -0.049656
C5    C     C_R   0.943168 0.349987 0.093858 -0.130395
C6    C     C_R   0.093493 0.375869 0.904861 -0.125460
C7    C     C_R   0.447705 0.848326 0.092684 -0.169669
C8    C     C_R   0.553569 0.850384 0.905471 -0.135208
H5    H     H_    0.990647 0.335707 0.177718 0.099651
H6    H     H_    0.066599 0.373773 0.819587 0.100258
H7    H     H_    0.498796 0.833984 0.175377 0.099960
H8    H     H_    0.503038 0.836856 0.822086 0.096475
N5    N     N_R   0.952270 0.397640 0.058010 -0.037275
N6    N     N_R   0.047730 0.397640 0.941990 -0.049604
N7    N     N_R   0.452270 0.897640 0.058010 -0.045640
N8    N     N_R   0.547730 0.897640 0.941990 -0.042606
C9    C     C_R   0.993207 0.546698 0.261143 -0.071938
C10   C     C_R   0.946779 0.547355 0.695793 -0.123931
C11   C     C_R   0.495623 0.045654 0.265929 -0.112905
C12   C     C_R   0.445826 0.047504 0.694488 -0.079618
H9    H     H_    0.991537 0.588523 0.279925 0.116778
H10   H     H_    0.926802 0.589343 0.668847 0.112922
H11   H     H_    0.490113 0.087961 0.281744 0.116775
H12   H     H_    0.425841 0.089486 0.667378 0.102081
N9    N     N_R   0.026310 0.529110 0.206760 -0.059306
N10   N     N_R   0.973690 0.529110 0.793240 -0.044637
N11   N     N_R   0.526310 0.029110 0.206760 -0.053023
N12   N     N_R   0.473690 0.029110 0.793240 -0.048189
C13   C     C_R   0.732229 0.453416 0.751885 -0.058650
C14   C     C_R   0.260532 0.454253 0.297667 -0.090921
C15   C     C_R   0.232184 0.954325 0.755312 -0.079251
C16   C     C_R   0.762360 0.954041 0.295462 -0.053805
H13   H     H_    0.711055 0.410931 0.735696 0.150352
H14   H     H_    0.274413 0.412216 0.325992 0.129458
H15   H     H_    0.209726 0.912030 0.738112 0.153897
H16   H     H_    0.777221 0.911729 0.321954 0.135161
N13   N     N_R   0.818570 0.472310 0.793020 -0.060751
N14   N     N_R   0.181430 0.472310 0.206980 -0.055600
N15   N     N_R   0.318570 0.972310 0.793020 -0.061780
N16   N     N_R   0.681430 0.972310 0.206980 -0.058623
C17   C     C_R   0.987981 0.455181 0.258617 -0.085586
C18   C     C_R   0.947386 0.456444 0.693103 -0.098042
C19   C     C_R   0.493453 0.953731 0.262766 -0.071783
C20   C     C_R   0.445773 0.956542 0.692945 -0.069612
H17   H     H_    0.976850 0.413080 0.270823 0.107485
H18   H     H_    0.931271 0.414704 0.664375 0.146436
H19   H     H_    0.483874 0.910895 0.270921 0.143384
H20   H     H_    0.429933 0.914543 0.666964 0.148041
N17   N     N_R   0.026930 0.472300 0.207330 -0.056581
N18   N     N_R   0.973070 0.472300 0.792670 -0.050180
N19   N     N_R   0.526930 0.972300 0.207330 -0.061361
N20   N     N_R   0.473070 0.972300 0.792670 -0.051539
C21   C     C_R   0.728519 0.544627 0.742830 -0.094594
C22   C     C_R   0.260931 0.545663 0.300893 -0.099062
C23   C     C_R   0.231386 0.045976 0.755230 -0.115290
C24   C     C_R   0.761892 0.045474 0.300416 -0.092253
H21   H     H_    0.700059 0.584225 0.707107 0.122612
H22   H     H_    0.275350 0.586949 0.332627 0.134438
H23   H     H_    0.208299 0.088101 0.738764 0.142632
H24   H     H_    0.776257 0.086565 0.333085 0.142453
N21   N     N_R   0.817960 0.529130 0.792460 -0.060330
N22   N     N_R   0.182040 0.529130 0.207540 -0.056519
N23   N     N_R   0.317960 0.029130 0.792460 -0.063592
N24   N     N_R   0.682040 0.029130 0.207540 -0.058252
C25   C     C_R   0.850324 0.349123 0.910777 -0.086446
C26   C     C_R   0.186230 0.372555 0.089086 -0.100828
C27   C     C_R   0.352681 0.848333 0.910466 -0.085680
C28   C     C_R   0.650054 0.849588 0.088785 -0.077574
H25   H     H_    0.810251 0.334331 0.827128 0.119408
H26   H     H_    0.244454 0.364694 0.173438 0.133362
H27   H     H_    0.312893 0.834199 0.826392 0.111694
H28   H     H_    0.692170 0.835114 0.172969 0.112705
N25   N     N_R   0.894850 0.397640 0.943830 -0.045377
N26   N     N_R   0.105150 0.397640 0.056170 -0.051285
N27   N     N_R   0.394850 0.897640 0.943830 -0.047864
N28   N     N_R   0.605150 0.897640 0.056170 -0.045276
C29   C     C_R   0.910054 0.637597 0.087989 -0.058568
C30   C     C_R   0.099923 0.625002 0.908944 -0.070579
C31   C     C_R   0.440148 0.152422 0.089054 -0.091827
C32   C     C_R   0.600676 0.124448 0.909606 -0.070978
H29   H     H_    0.941861 0.652882 0.169760 0.111610
H30   H     H_    0.072518 0.631991 0.823827 0.125565
H31   H     H_    0.482124 0.165699 0.173640 0.141472
H32   H     H_    0.573732 0.132262 0.824827 0.133672
N29   N     N_R   0.950040 0.603780 0.055950 -0.051727
N30   N     N_R   0.049960 0.603780 0.944050 -0.057417
N31   N     N_R   0.450040 0.103780 0.055950 -0.050648
N32   N     N_R   0.549960 0.103780 0.944050 -0.057520
C33   C     C_R   0.823074 0.652998 0.994733 0.104282
C34   C     C_R   0.191398 0.635479 0.001422 0.124543
C35   C     C_R   0.380706 0.184219 0.996106 0.109639
C36   C     C_R   0.691890 0.134343 0.002903 0.125820
C37   C     C_R   0.879392 0.318904 0.003704 0.081262
C38   C     C_R   0.180071 0.358620 0.994711 0.100467
C39   C     C_R   0.384934 0.816486 0.002708 0.097553
C40   C     C_R   0.618062 0.819515 0.994714 0.097046
C41   C     C_R   0.964232 0.501894 0.290554 0.166232
C42   C     C_R   0.929669 0.503084 0.630923 0.143092
C43   C     C_R   0.472852 0.998982 0.301592 0.129886
C44   C     C_R   0.424015 0.003127 0.627910 0.103605
C45   C     C_R   0.675538 0.498246 0.724731 0.227126
C46   C     C_R   0.311862 0.499575 0.354891 0.181982
C47   C     C_R   0.176551 0.999694 0.733091 0.219864
C48   C     C_R   0.814329 0.999440 0.353238 0.172462
Ni1   Ni    Ni4+2 0.934160 0.565860 0.869070 0.240063
Ni2   Ni    Ni4+2 0.065840 0.565860 0.130930 0.237952
Ni3   Ni    Ni4+2 0.434160 0.065860 0.869070 0.228868
Ni4   Ni    Ni4+2 0.565840 0.065860 0.130930 0.253780
Ni5   Ni    Ni4+2 0.067260 0.435560 0.132230 0.234475
Ni6   Ni    Ni4+2 0.932740 0.435560 0.867770 0.255122
Ni7   Ni    Ni4+2 0.567260 0.935560 0.132230 0.231735
Ni8   Ni    Ni4+2 0.432740 0.935560 0.867770 0.240790
C49   C     C_3   0.500353 0.451747 0.605556 0.306929
C50   C     C_3   0.477081 0.454636 0.490081 0.295496
C51   C     C_3   0.000722 0.954038 0.610108 0.298418
C52   C     C_3   0.980591 0.955207 0.496005 0.291906
C53   C     C_3   0.424439 0.495736 0.574891 -0.361057
C54   C     C_3   0.551672 0.499432 0.524651 -0.377851
C55   C     C_3   0.923422 0.997923 0.574238 -0.355795
C56   C     C_3   0.055216 0.000170 0.531141 -0.387669
H33   H     H_    0.371160 0.494359 0.593587 0.205392
H34   H     H_    0.603304 0.500839 0.503319 0.231598
H35   H     H_    0.868555 0.997003 0.590453 0.214219
H36   H     H_    0.108499 0.001087 0.512302 0.222076
C57   C     C_3   0.402868 0.498620 0.458662 -0.197718
C58   C     C_3   0.575225 0.496678 0.642341 -0.206151
C59   C     C_3   0.904961 0.998954 0.459340 -0.190248
C60   C     C_3   0.075699 0.999114 0.647705 -0.190421
C61   C     C_3   0.477891 0.543331 0.495711 0.295210
C62   C     C_3   0.500957 0.540669 0.611011 0.316752
C63   C     C_3   0.979869 0.043929 0.496928 0.292998
C64   C     C_3   0.999951 0.043001 0.610978 0.309332
C65   C     C_R   0.858271 0.249047 0.103770 0.029602
C66   C     C_R   0.215532 0.299692 0.889347 0.048401
C67   C     C_R   0.379987 0.739045 0.106006 0.014787
C68   C     C_R   0.620939 0.744981 0.887369 0.052237
C69   C     C_R   0.854500 0.263312 0.010937 -0.028888
C70   C     C_R   0.246508 0.326989 0.987075 -0.024979
C71   C     C_R   0.363179 0.759085 0.008341 -0.024377
C72   C     C_R   0.640364 0.764114 0.986706 -0.038314
C73   C     C_R   0.819930 0.225262 0.925419 -0.254299
C74   C     C_R   0.340686 0.319580 0.078601 -0.229541
C75   C     C_R   0.315972 0.724694 0.915785 -0.253312
C76   C     C_R   0.692113 0.730573 0.080454 -0.261464
H37   H     H_    0.822407 0.234817 0.856178 0.187344
H38   H     H_    0.369402 0.344427 0.151192 0.219351
H39   H     H_    0.309968 0.736823 0.842083 0.183995
H40   H     H_    0.697687 0.740510 0.154514 0.180973
C77   C     C_R   0.270477 0.676311 0.916083 0.348944
C78   C     C_R   0.743613 0.686526 0.080925 0.358457
C79   C     C_R   0.775946 0.176505 0.926036 0.334386
C80   C     C_R   0.395745 0.277306 0.079026 0.315065
C81   C     C_R   0.269035 0.665041 0.008594 -0.091095
C82   C     C_R   0.745874 0.679760 0.988326 -0.096641
C83   C     C_R   0.766445 0.167802 0.013202 -0.095719
C84   C     C_R   0.352357 0.241199 0.988041 -0.091185
C85   C     C_R   0.334465 0.692682 0.106481 0.163876
C86   C     C_R   0.673350 0.703222 0.888758 0.229162
C87   C     C_R   0.817291 0.201382 0.106282 0.133239
C88   C     C_R   0.268197 0.257814 0.890187 0.083302
C89   C     C_3   0.323771 0.715920 0.191601 -0.520042
C90   C     C_3   0.668130 0.725033 0.791182 -0.543207
C91   C     C_3   0.783926 0.227883 0.168884 -0.488199
C92   C     C_3   0.182370 0.225645 0.804914 -0.484089
C93   C     C_3   0.824946 0.280869 0.161054 -0.096086
C94   C     C_3   0.123550 0.271788 0.802741 -0.040477
C95   C     C_3   0.372489 0.766817 0.189685 -0.077698
C96   C     C_3   0.608448 0.770989 0.787446 -0.095180
H41   H     H_    0.365409 0.692500 0.270236 0.250065
H42   H     H_    0.629211 0.696634 0.719876 0.236565
H43   H     H_    0.821268 0.210899 0.253798 0.233347
H44   H     H_    0.175558 0.186301 0.837951 0.232438
H45   H     H_    0.248682 0.722580 0.160638 0.190853
H46   H     H_    0.738478 0.738547 0.812666 0.189075
H47   H     H_    0.705436 0.228204 0.123111 0.214796
H48   H     H_    0.177848 0.221268 0.727832 0.200943
C97   C     C_R   0.929029 0.555358 0.492849 0.100073
C98   C     C_R   0.941543 0.554245 0.411127 0.227747
C99   C     C_R   0.394947 0.054198 0.470894 0.124871
C100  C     C_R   0.420115 0.050395 0.397987 0.165051
C101  C     C_R   0.899391 0.508349 0.518252 -0.168864
C102  C     C_R   0.920976 0.507026 0.349127 -0.128297
C103  C     C_R   0.378359 0.006389 0.509180 -0.132380
C104  C     C_R   0.434247 0.999436 0.367501 -0.162020
C105  C     C_R   0.853984 0.466152 0.439094 0.217449
C106  C     C_R   0.860830 0.467018 0.348312 0.197528
C107  C     C_R   0.365321 0.957131 0.455142 0.213922
C108  C     C_R   0.408834 0.951540 0.400144 0.226008
C109  C     C_3   0.029639 0.588624 0.474459 -0.442534
C110  C     C_3   0.015952 0.589805 0.564942 -0.359596
C111  C     C_3   0.350910 0.092817 0.322122 -0.479347
C112  C     C_3   0.321516 0.096301 0.398846 -0.419267
H49   H     H_    0.020473 0.629672 0.436723 0.234936
H50   H     H_    0.072755 0.567779 0.640038 0.241129
H51   H     H_    0.294553 0.076312 0.239710 0.213678
H52   H     H_    0.338173 0.136599 0.440487 0.206822
H53   H     H_    0.094324 0.566144 0.497580 0.198238
H54   H     H_    0.999051 0.631273 0.578994 0.219993
H55   H     H_    0.386196 0.130781 0.321028 0.208776
H56   H     H_    0.248013 0.081485 0.361683 0.218516
N33   N     N_R   0.510078 0.402033 0.666056 0.265503
O1    O     O_R   0.439649 0.367681 0.623811 -0.346847
O2    O     O_R   0.581718 0.396172 0.768238 -0.382800
N34   N     N_R   0.465396 0.408533 0.421757 0.250042
O3    O     O_R   0.475909 0.358570 0.457812 -0.328264
O4    O     O_R   0.450479 0.417532 0.326894 -0.351115
N35   N     N_R   0.009171 0.905172 0.671996 0.265825
O5    O     O_R   0.938571 0.870950 0.629881 -0.332124
O6    O     O_R   0.080572 0.899587 0.774388 -0.387011
N36   N     N_R   0.971472 0.907977 0.431414 0.248773
O7    O     O_R   0.982309 0.858629 0.470322 -0.333375
O8    O     O_R   0.957926 0.915317 0.336862 -0.337839
N37   N     N_R   0.467327 0.592769 0.434078 0.233378
O9    O     O_R   0.480084 0.640813 0.477604 -0.399520
O10   O     O_R   0.452474 0.588724 0.338405 -0.389441
N38   N     N_R   0.512478 0.587094 0.678504 0.254515
O11   O     O_R   0.443373 0.621519 0.641636 -0.353314
O12   O     O_R   0.584644 0.589389 0.781073 -0.393238
N39   N     N_R   0.969852 0.092401 0.433204 0.235888
O13   O     O_R   0.980176 0.141131 0.473205 -0.377572
O14   O     O_R   0.955776 0.086882 0.338179 -0.386647
N40   N     N_R   0.008262 0.090398 0.674690 0.259588
O15   O     O_R   0.938501 0.124776 0.632818 -0.324873
O16   O     O_R   0.076956 0.093284 0.778766 -0.412120
N41   N     N_R   0.225407 0.640321 0.823028 0.227570
O17   O     O_R   0.221259 0.588000 0.837230 -0.404335
O18   O     O_R   0.203178 0.657864 0.728225 -0.391981
N42   N     N_R   0.792937 0.650303 0.174106 0.224550
O19   O     O_R   0.791088 0.597851 0.158488 -0.370183
O20   O     O_R   0.824613 0.667982 0.271831 -0.407906
N43   N     N_R   0.737875 0.138338 0.836779 0.237636
O21   O     O_R   0.732103 0.086460 0.852991 -0.370150
O22   O     O_R   0.718662 0.154104 0.742344 -0.356988
N44   N     N_R   0.492788 0.271029 0.171429 0.241010
O23   O     O_R   0.521185 0.288790 0.268030 -0.299190
O24   O     O_R   0.555690 0.255197 0.156015 -0.390370
C113  C     C_1   0.901564 0.302471 0.269251 0.206692
N45   N     N_1   0.961752 0.319111 0.354764 -0.064959
C114  C     C_1   0.064144 0.254241 0.839067 0.183101
N46   N     N_1   0.017541 0.240481 0.867577 -0.047925
C115  C     C_1   0.465618 0.775827 0.294342 0.260928
N47   N     N_1   0.539191 0.782227 0.376443 -0.005795
C116  C     C_1   0.509808 0.768284 0.689452 0.245814
N48   N     N_1   0.432262 0.765386 0.612665 0.034203
C117  C     C_1   0.751003 0.321250 0.088821 0.293724
N49   N     N_1   0.692081 0.352083 0.030396 0.050257
C118  C     C_1   0.070139 0.301239 0.696779 0.150317
N50   N     N_1   0.028454 0.324417 0.613542 -0.031047
C119  C     C_1   0.309080 0.814793 0.145220 0.240726
N51   N     N_1   0.258931 0.852153 0.109219 -0.023900
C120  C     C_1   0.653263 0.825064 0.803471 0.157275
N52   N     N_1   0.688407 0.867476 0.815868 -0.022106
N53   N     N_R   0.804374 0.423357 0.452706 0.272332
O25   O     O_R   0.742926 0.435713 0.472701 -0.346369
O26   O     O_R   0.831439 0.372757 0.463276 -0.341482
N54   N     N_R   0.802466 0.432630 0.253195 0.239695
O27   O     O_R   0.752705 0.392638 0.253753 -0.316262
O28   O     O_R   0.783228 0.448421 0.158728 -0.364552
N55   N     N_R   0.313735 0.913285 0.463646 0.253863
O29   O     O_R   0.239256 0.924825 0.460826 -0.362928
O30   O     O_R   0.347996 0.864072 0.491921 -0.349499
N56   N     N_R   0.440026 0.898736 0.395031 0.227040
O31   O     O_R   0.529583 0.887170 0.462181 -0.401396
O32   O     O_R   0.379115 0.859206 0.346345 -0.387711

loop_
_geom_bond_atom_site_label_1
_geom_bond_atom_site_label_2
_geom_bond_distance
_ccdc_geom_bond_type
N13   Ni6   1.849670 S    
C28   C40   1.387962 A    
C78   C82   1.416836 A    
C27   C39   1.381299 A    
C32   N32   1.343812 A    
C54   C61   1.532564 S    
C57   C61   1.530174 S    
N1    N29   1.387972 A    
C110  H54   1.111916 S    
C66   C70   1.401092 A    
C73   H37   1.082553 S    
C109  H53   1.112565 S    
N43   O21   1.301491 A    
C3    N3    1.322564 A    
C67   C95   1.497916 S    
C68   C72   1.400367 A    
C91   H47   1.113918 S    
C21   C45   1.378079 A    
N38   O11   1.300254 A    
C10   C42   1.369177 A    
C96   C116  1.471660 S    
N36   O7    1.299841 A    
C39   C71   1.462761 S    
C51   C52   1.527511 S    
C16   C48   1.372036 A    
C90   C96   1.512552 S    
C31   C35   1.387501 A    
N22   Ni2   1.874400 S    
N10   Ni1   1.867913 S    
C59   C63   1.532534 S    
C91   C93   1.507168 S    
C37   C69   1.442924 S    
N9    Ni2   1.851780 S    
C18   H18   1.079287 S    
C74   C80   1.410374 A    
C90   H42   1.113847 S    
C13   H13   1.079089 S    
C106  N54   1.443606 S    
C104  C108  1.424659 A    
N11   N19   1.387437 A    
C8    H8    1.078216 S    
C56   C63   1.533543 S    
C55   C59   1.551551 S    
C7    H7    1.076829 S    
C3    H3    1.080743 S    
C68   C96   1.511805 S    
N35   O6    1.300129 A    
N13   N21   1.387678 A    
N7    Ni7   1.866407 S    
C117  N49   1.157300 T    
C79   N43   1.438930 S    
C83   C87   1.402220 A    
C47   C60   1.447924 S    
C6    C38   1.376382 A    
C72   C76   1.403254 A    
N2    N30   1.387973 A    
C53   C57   1.549331 S    
C61   N37   1.457972 S    
N18   Ni6   1.852746 S    
N56   O32   1.295911 A    
C17   N17   1.344407 A    
N42   O19   1.300888 A    
C22   N22   1.328177 A    
C63   N39   1.458618 S    
C119  N51   1.157898 T    
C77   C81   1.420232 A    
C25   N25   1.339990 A    
C87   C91   1.507888 S    
C6    H6    1.073404 S    
C67   C85   1.376849 A    
N5    Ni5   1.866407 S    
C20   N20   1.333297 A    
C78   N42   1.434911 S    
C82   C86   1.395266 A    
C20   H20   1.075371 S    
C29   N29   1.339838 A    
C60   C64   1.534426 S    
C10   N10   1.317680 A    
C32   H32   1.080359 S    
C93   C117  1.475861 S    
N54   O27   1.300762 A    
C31   N31   1.340878 A    
C43   C104  1.477364 S    
C110  H50   1.110439 S    
N44   O24   1.301645 A    
C33   C82   1.447799 S    
C44   C103  1.464282 S    
C109  H49   1.111799 S    
C79   C83   1.417495 A    
C49   N33   1.457719 S    
C97   C110  1.499685 S    
C14   C46   1.365300 A    
C30   N30   1.344980 A    
N41   O17   1.301460 A    
C40   C72   1.435546 S    
C99   C103  1.394764 A    
N56   O31   1.301114 A    
N2    Ni2   1.852846 S    
C101  C105  1.416280 A    
C4    H4    1.075107 S    
C26   C38   1.394973 A    
C92   H44   1.112339 S    
C7    N7    1.326271 A    
C112  H56   1.112904 S    
C99   C112  1.499817 S    
C111  C112  1.503423 S    
C8    N8    1.310447 A    
C70   C74   1.406350 A    
C113  N45   1.157264 T    
C90   H46   1.114137 S    
C111  H51   1.112370 S    
C28   N28   1.336692 A    
C2    H2    1.072639 S    
N16   N24   1.387639 A    
N29   Ni2   1.884168 S    
C56   H36   1.111524 S    
C12   H12   1.082146 S    
C89   H41   1.112498 S    
N30   Ni1   1.876279 S    
C92   C94   1.514648 S    
C94   C114  1.475336 S    
N44   O23   1.301362 A    
N16   Ni7   1.842101 S    
C23   H23   1.080615 S    
C9    H9    1.066805 S    
C52   N36   1.457900 S    
C65   C87   1.370017 A    
C98   C109  1.499303 S    
N8    Ni8   1.874317 S    
C31   H31   1.079645 S    
C22   H22   1.081781 S    
C9    C41   1.371174 A    
C18   N18   1.340371 A    
C27   N27   1.343549 A    
C76   H40   1.082230 S    
C51   N35   1.457735 S    
C116  N48   1.156723 T    
C12   N12   1.331682 A    
C1    N1    1.314404 A    
C66   C94   1.511017 S    
C30   H30   1.079815 S    
C1    C33   1.370002 A    
N53   O26   1.301284 A    
C29   H29   1.075487 S    
C15   H15   1.079815 S    
C100  C111  1.489855 S    
C11   N11   1.335527 A    
C15   N15   1.329924 A    
C11   H11   1.079328 S    
N25   Ni6   1.848091 S    
C109  C110  1.501823 S    
C105  N53   1.434235 S    
C107  C108  1.409407 A    
N14   Ni5   1.842101 S    
C68   C86   1.364510 A    
N27   Ni8   1.848091 S    
C50   C54   1.531921 S    
C67   C71   1.395141 A    
N35   O5    1.300297 A    
C50   C57   1.531721 S    
C49   C53   1.553942 S    
N37   O9    1.300097 A    
C53   H33   1.110074 S    
C73   C79   1.411229 A    
C92   H48   1.113224 S    
C5    H5    1.080431 S    
N36   O8    1.300393 A    
N39   O13   1.300010 A    
C22   C46   1.368121 A    
C11   C43   1.401255 A    
N31   Ni4   1.884168 S    
C112  H52   1.111768 S    
N21   Ni1   1.866874 S    
C85   C89   1.503512 S    
C111  H55   1.111553 S    
N33   O1    1.300275 A    
C115  N47   1.157258 T    
N23   Ni3   1.866874 S    
N11   Ni4   1.851780 S    
N43   O22   1.301467 A    
C81   C85   1.399261 A    
N40   O16   1.299944 A    
N41   O18   1.301397 A    
C20   C44   1.393362 A    
C49   C50   1.526538 S    
C32   C36   1.393710 A    
C75   C77   1.416370 A    
N7    N27   1.387972 A    
C95   C119  1.478093 S    
C76   C78   1.401982 A    
N9    N17   1.387440 A    
C84   C88   1.397771 A    
C19   C43   1.394495 A    
C108  N56   1.422725 S    
N39   O14   1.300462 A    
C56   C60   1.561042 S    
N5    N25   1.387972 A    
C86   C90   1.499183 S    
C7    C39   1.378488 A    
C75   H39   1.082065 S    
C8    C40   1.364278 A    
C65   C93   1.504760 S    
C26   H26   1.079403 S    
C6    N6    1.320786 A    
C49   C58   1.532825 S    
C50   N34   1.458150 S    
C4    N4    1.320852 A    
C55   C64   1.553801 S    
N15   N23   1.387678 A    
C48   C59   1.445521 S    
C13   N13   1.325960 A    
C120  N52   1.157476 T    
C2    N2    1.326918 A    
C24   H24   1.081838 S    
C80   C84   1.418468 A    
C51   C55   1.554194 S    
C1    H1    1.063848 S    
C34   C81   1.470696 S    
N3    Ni3   1.869376 S    
N17   Ni5   1.868894 S    
C26   N26   1.342705 A    
C88   C92   1.500342 S    
N3    N31   1.387972 A    
N6    Ni6   1.874317 S    
C16   N16   1.327509 A    
N15   Ni8   1.849670 S    
N19   Ni7   1.868895 S    
C25   C37   1.378149 A    
C95   C115  1.472639 S    
C45   C58   1.434247 S    
C89   H45   1.113711 S    
C13   C45   1.370666 A    
C41   C102  1.452351 S    
C52   C59   1.530808 S    
C28   H28   1.081054 S    
C23   N23   1.331044 A    
N12   N20   1.387398 A    
N38   O12   1.299877 A    
C58   C62   1.532724 S    
C17   C41   1.394747 A    
C63   C64   1.527054 S    
C54   C58   1.556778 S    
C96   C120  1.475393 S    
C97   C101  1.390616 A    
C65   C69   1.390259 A    
C53   C62   1.552489 S    
C89   C95   1.506112 S    
C61   C62   1.525181 S    
N24   Ni4   1.874400 S    
N32   Ni3   1.876279 S    
C42   C101  1.446846 S    
N6    N26   1.387971 A    
C52   C56   1.533959 S    
C51   C60   1.535001 S    
C100  C104  1.400586 A    
N55   O29   1.301545 A    
C21   N21   1.330578 A    
C91   H43   1.113753 S    
C55   H35   1.110068 S    
C4    C36   1.375116 A    
N8    N28   1.387971 A    
N1    Ni1   1.869376 S    
C99   C100  1.392331 A    
N37   O10   1.300463 A    
C5    N5    1.322495 A    
C14   N14   1.324147 A    
C107  N55   1.440668 S    
N55   O30   1.299340 A    
C77   N41   1.436197 S    
C97   C98   1.358251 A    
N53   O25   1.301409 A    
C27   H27   1.081082 S    
C18   C42   1.381749 A    
C12   C44   1.371644 A    
N28   Ni7   1.864546 S    
C17   H17   1.077682 S    
C71   C75   1.407254 A    
C15   C47   1.382067 A    
C102  C106  1.417908 A    
N33   O2    1.300024 A    
N42   O20   1.301328 A    
C62   N38   1.457348 S    
N20   Ni8   1.852746 S    
C36   C83   1.454783 S    
C19   H19   1.074595 S    
C38   C70   1.452107 S    
C24   N24   1.330686 A    
C21   H21   1.075542 S    
C23   C47   1.383444 A    
N40   O15   1.300283 A    
C30   C34   1.394648 A    
C103  C107  1.396509 A    
N14   N22   1.387639 A    
C24   C48   1.372077 A    
C29   C33   1.384949 A    
N34   O4    1.300346 A    
C66   C88   1.372743 A    
C35   C84   1.460622 S    
C14   H14   1.081196 S    
C3    C35   1.375279 A    
C94   C118  1.472281 S    
C16   H16   1.081479 S    
C19   N19   1.332069 A    
N34   O3    1.299916 A    
C2    C34   1.383495 A    
C25   H25   1.081240 S    
N54   O28   1.301921 A    
C105  C106  1.427557 A    
C74   H38   1.081972 S    
N10   N18   1.387398 A    
C54   H34   1.111511 S    
C93   C113  1.471128 S    
N4    N32   1.387973 A    
C46   C57   1.432907 S    
C98   C102  1.393791 A    
N26   Ni5   1.864546 S    
C80   N44   1.436983 S    
N12   Ni3   1.867913 S    
C5    C37   1.373442 A    
C69   C73   1.405670 A    
C64   N40   1.457213 S    
C118  N50   1.157008 T    
C114  N46   1.157497 T    
C9    N9    1.313749 A    
N4    Ni4   1.852846 S    
C10   H10   1.081856 S    
