data_str_m2_o4_o10_f0_pcu.sym.20
_audit_creation_date              2012-10-26T20:13:50-0400
_audit_creation_method            fapswitch 2.2
_symmetry_space_group_name_H-M    P1
_symmetry_Int_Tables_number       1
_space_group_crystal_system       triclinic
_cell_length_a                    8.761674
_cell_length_b                    10.837827
_cell_length_c                    9.555582
_cell_angle_alpha                 90.290574
_cell_angle_beta                  98.156153
_cell_angle_gamma                 89.737863
_cell_volume                      898.177873221

loop_
_atom_site_label
_atom_site_type_symbol
_atom_type_description
_atom_site_fract_x
_atom_site_fract_y
_atom_site_fract_z
_atom_type_partial_charge
C1    C     C_R   0.503732 0.262560 0.500255 0.547803
C2    C     C_R   0.615759 0.556458 0.941974 0.165569
C3    C     C_3   0.663388 0.688319 0.940619 -0.148354
C4    C     C_R   0.203790 0.500068 0.463669 0.547674
C5    C     C_3   0.648676 0.694061 0.097679 -0.277259
C6    C     C_R   0.501776 0.737885 0.500538 0.541624
C7    C     C_R   0.796188 0.499370 0.536311 0.551507
C8    C     C_2   0.037810 0.500768 0.443869 -0.162454
C9    C     C_2   0.962108 0.497313 0.555976 -0.153396
C10   C     C_R   0.494908 0.065488 0.623911 0.028076
C11   C     C_R   0.518853 0.129762 0.503125 0.009702
C12   C     C_R   0.561581 0.935255 0.388748 -0.162096
C13   C     C_R   0.562423 0.064061 0.388048 -0.162172
C14   C     C_R   0.826155 0.700532 0.905763 0.048958
C15   C     C_R   0.851257 0.766392 0.785091 -0.066463
C16   C     C_R   0.997768 0.770714 0.744023 -0.121623
C17   C     C_R   0.122206 0.712760 0.825837 -0.114015
C18   C     C_R   0.099975 0.651104 0.948926 -0.122896
C19   C     C_R   0.952721 0.642263 0.987318 -0.092949
C20   C     C_R   0.515340 0.871469 0.503430 -0.002440
C21   C     C_R   0.492374 0.938416 0.624050 -0.001692
C22   C     C_3   0.359714 0.936489 0.706295 -0.273411
C23   C     C_3   0.364065 0.076104 0.707409 -0.260896
C24   C     C_R   0.612475 0.559754 0.088632 0.143265
C25   C     C_R   0.400263 0.428487 0.061060 -0.029519
C26   C     C_R   0.398935 0.429675 0.911894 -0.024919
Cu1   Cu    Cu3+1 0.499990 0.499980 0.640670 0.932805
Cu2   Cu    Cu3+1 0.500010 0.500020 0.359330 0.929233
H1    H     H_    0.977601 0.504603 0.336391 0.119748
H2    H     H_    0.390546 0.896896 0.813486 0.123215
H3    H     H_    0.259759 0.119296 0.646910 0.132804
H4    H     H_    0.400671 0.115975 0.814272 0.135854
H5    H     H_    0.316632 0.373409 0.105638 0.118412
H6    H     H_    0.757029 0.811999 0.720596 0.115809
H7    H     H_    0.013499 0.817770 0.647670 0.100066
H8    H     H_    0.235470 0.713964 0.793535 0.135863
H9    H     H_    0.196438 0.609074 0.014170 0.128091
H10   H     H_    0.938116 0.589284 0.080095 0.097906
H11   H     H_    0.314219 0.375601 0.844859 0.116805
H12   H     H_    0.576764 0.746695 0.875547 0.130507
H13   H     H_    0.756326 0.715090 0.169942 0.123974
H14   H     H_    0.546806 0.749258 0.117593 0.128977
H15   H     H_    0.022256 0.492696 0.663395 0.138678
H16   H     H_    0.591224 0.111612 0.295907 0.134585
H17   H     H_    0.591927 0.886523 0.297946 0.124092
H18   H     H_    0.254318 0.898877 0.642851 0.130979
N1    N     N_R   0.500980 0.500930 0.148050 -0.235802
N2    N     N_R   0.500990 0.500890 0.852140 -0.243575
O1    O     O_R   0.500000 0.319640 0.618810 -0.499827
O2    O     O_R   0.500020 0.319680 0.381230 -0.507829
O3    O     O_R   0.274830 0.499980 0.591380 -0.508142
O4    O     O_R   0.274850 0.500020 0.353800 -0.504346
O5    O     O_R   0.499980 0.680320 0.618770 -0.515781
O6    O     O_R   0.500000 0.680360 0.381190 -0.503683
O7    O     O_R   0.725150 0.499980 0.646200 -0.486627
O8    O     O_R   0.725170 0.500020 0.408620 -0.500413

loop_
_geom_bond_atom_site_label_1
_geom_bond_atom_site_label_2
_ccdc_geom_bond_type
Cu1   N2    S    
C5    H14   S    
Cu1   O5    S    
Cu2   N1    S    
C19   H10   S    
C26   N2    A    
C10   C23   S    
C6    C20   S    
C1    O2    A    
C25   N1    A    
C15   H6    S    
C1    C11   S    
C7    O7    A    
C4    C8    S    
C23   H4    S    
C12   C20   A    
C4    O3    A    
C5    C24   S    
C2    C3    S    
Cu2   O8    S    
C10   C21   A    
C21   C22   S    
C12   C13   A    
Cu2   O4    S    
C16   C17   A    
C3    C14   S    
C1    O1    A    
C7    O8    A    
C6    O6    A    
C8    H1    S    
C17   H8    S    
C18   H9    S    
Cu1   O3    S    
C3    H12   S    
C17   C18   A    
C4    O4    A    
C16   H7    S    
C2    C24   A    
Cu1   O7    S    
C26   H11   S    
C9    H15   S    
C10   C11   A    
C6    O5    A    
C15   C16   A    
C22   H18   S    
C11   C13   A    
C20   C21   A    
C18   C19   A    
Cu1   Cu2   S    
C7    C9    S    
C5    H13   S    
C22   C23   S    
C8    C9    D    
Cu2   O6    S    
C22   H2    S    
C2    N2    A    
C25   C26   A    
C14   C15   A    
C24   N1    A    
Cu2   O2    S    
C14   C19   A    
C13   H16   S    
Cu1   O1    S    
C25   H5    S    
C12   H17   S    
C3    C5    S    
C23   H3    S    
