data_str_m3_o1_o13_f0_pcu.sym.24
_audit_creation_date              2012-12-10T18:44:26-0500
_audit_creation_method            fapswitch 2.2
_symmetry_space_group_name_H-M    P1
_symmetry_Int_Tables_number       1
_space_group_crystal_system       triclinic
_cell_length_a                    12.834489
_cell_length_b                    10.791488
_cell_length_c                    9.950627
_cell_angle_alpha                 88.591699
_cell_angle_beta                  96.895707
_cell_angle_gamma                 91.581643
_cell_volume                      1367.38937287

loop_
_atom_site_label
_atom_site_type_symbol
_atom_type_description
_atom_site_fract_x
_atom_site_fract_y
_atom_site_fract_z
_atom_type_partial_charge
C1    C     C_R   0.502489 0.260232 0.502548 0.932367
C2    C     C_R   0.701246 0.496394 0.526716 0.902080
C3    C     C_R   0.813061 0.484487 0.543173 -0.123149
C4    C     C_R   0.187313 0.516458 0.456407 -0.131400
C5    C     C_R   0.028475 0.619857 0.366375 -0.070192
C6    C     C_R   0.971417 0.377693 0.628995 -0.070443
C7    C     C_R   0.137146 0.607471 0.369831 -0.126949
C8    C     C_R   0.863341 0.393194 0.629372 -0.116167
C9    C     C_R   0.132198 0.438407 0.536246 -0.220254
C10   C     C_R   0.867879 0.560895 0.461088 -0.232979
C11   C     C_R   0.025765 0.452038 0.539480 0.103608
C12   C     C_R   0.497827 0.739797 0.497495 0.931077
C13   C     C_R   0.973537 0.544273 0.454296 0.094465
C14   C     C_R   0.512982 0.070227 0.383898 -0.162032
C15   C     C_R   0.487817 0.929855 0.616186 -0.164150
C16   C     C_R   0.504614 0.943707 0.373670 -0.019538
C17   C     C_R   0.496420 0.056357 0.626460 -0.019566
C18   C     C_2   0.802110 0.306717 0.709431 0.991173
C19   C     C_2   0.197984 0.693302 0.288320 1.025104
C20   C     C_2   0.974710 0.715764 0.275834 0.934227
C21   C     C_2   0.025750 0.280186 0.716919 0.893913
C22   C     C_2   0.505053 0.894575 0.235587 0.928449
C23   C     C_R   0.494370 0.872580 0.492996 -0.094120
C24   C     C_2   0.496891 0.105497 0.764688 0.931692
C25   C     C_3   0.663499 0.634295 0.164090 -0.692247
C26   C     C_3   0.336410 0.364629 0.836366 -0.727946
C27   C     C_2   0.663398 0.625076 0.875454 0.966293
C28   C     C_2   0.335925 0.376094 0.124354 0.963292
C29   C     C_R   0.506350 0.127484 0.507075 -0.091923
C30   C     C_R   0.576701 0.563868 0.081011 0.148891
C31   C     C_R   0.423076 0.436270 0.918954 0.167666
C32   C     C_R   0.576992 0.562345 0.937494 0.005843
C33   C     C_R   0.422723 0.438100 0.062450 0.004439
C34   C     C_R   0.298925 0.504390 0.473261 0.910801
H1    H     H_    0.826144 0.633204 0.401492 0.154324
H2    H     H_    0.429464 0.100823 0.937821 0.357837
H3    H     H_    0.693610 0.714787 0.107733 0.231206
H4    H     H_    0.636775 0.675293 0.253228 0.254696
H5    H     H_    0.729151 0.570856 0.193546 0.272340
H6    H     H_    0.309042 0.282413 0.892548 0.221268
H7    H     H_    0.268634 0.425711 0.809534 0.251961
H8    H     H_    0.362496 0.325726 0.745739 0.263406
H9    H     H_    0.816224 0.624866 0.846477 0.363098
H10   H     H_    0.183011 0.377411 0.152775 0.366676
H11   H     H_    0.174707 0.368431 0.598495 0.164268
H12   H     H_    0.521380 0.124463 0.292393 0.209881
H13   H     H_    0.479407 0.875640 0.707692 0.211580
H14   H     H_    0.774547 0.241452 0.893877 0.379003
H15   H     H_    0.217710 0.765910 0.104098 0.378046
H16   H     H_    0.958221 0.897531 0.229073 0.368520
H17   H     H_    0.100641 0.117806 0.728216 0.365565
H18   H     H_    0.574252 0.898570 0.063824 0.358045
N1    N     N_R   0.499970 0.499970 0.857200 -0.132262
N2    N     N_R   0.500030 0.500030 0.142800 -0.132151
O1    O     O_R   0.499990 0.316750 0.614620 -0.616919
O2    O     O_R   0.820405 0.305148 0.850743 -0.697610
O3    O     O_2   0.269791 0.756798 0.344485 -0.603655
O4    O     O_R   0.171195 0.703594 0.148193 -0.730529
O5    O     O_2   0.911189 0.684636 0.180486 -0.594519
O6    O     O_R   0.999171 0.841156 0.298042 -0.762249
O7    O     O_2   0.037778 0.291179 0.839824 -0.545397
O8    O     O_R   0.064090 0.176980 0.658323 -0.775609
O9    O     O_2   0.432460 0.828532 0.185479 -0.567932
O10   O     O_R   0.584719 0.933060 0.158511 -0.805164
O11   O     O_2   0.569388 0.172283 0.813625 -0.573944
O12   O     O_R   0.500010 0.683250 0.385380 -0.615118
O13   O     O_R   0.418325 0.066259 0.843182 -0.806260
O14   O     O_2   0.649899 0.725646 0.817991 -0.632681
O15   O     O_R   0.762619 0.572731 0.891213 -0.729367
O16   O     O_2   0.348990 0.275801 0.182579 -0.625547
O17   O     O_R   0.236905 0.428987 0.107942 -0.747071
O18   O     O_R   0.499990 0.316780 0.385290 -0.597405
O19   O     O_R   0.500010 0.683220 0.614710 -0.598565
O20   O     O_R   0.346360 0.499970 0.595710 -0.634790
O21   O     O_R   0.653640 0.500030 0.404290 -0.633725
O22   O     O_R   0.346360 0.499990 0.366380 -0.603426
O23   O     O_R   0.653640 0.500010 0.633620 -0.604797
O24   O     O_2   0.736480 0.236268 0.651189 -0.615667
Zn1   Zn    Zn3+2 0.500000 0.499980 0.653120 1.018639
Zn2   Zn    Zn3+2 0.500000 0.500020 0.346880 1.019675

loop_
_geom_bond_atom_site_label_1
_geom_bond_atom_site_label_2
_ccdc_geom_bond_type
C9    H11   S    
C17   C29   A    
C15   H13   S    
H2    O13   S    
C14   H12   S    
C5    C20   S    
C19   O3    D    
C30   N2    A    
C12   C23   S    
N1    Zn1   S    
C25   C30   S    
H10   O17   S    
C15   C17   A    
C27   O14   D    
C24   O13   S    
C25   H3    S    
C22   O9    D    
C31   C33   A    
C10   H1    S    
C20   O6    S    
O21   Zn2   S    
C5    C13   A    
C27   O15   S    
C18   O2    S    
C15   C23   A    
C26   C31   S    
H9    O15   S    
C12   O19   A    
H17   O8    S    
C4    C7    A    
N2    Zn2   S    
O23   Zn1   S    
C19   O4    S    
C4    C34   S    
C17   C24   S    
C1    O18   A    
C3    C8    A    
H18   O10   S    
C6    C11   A    
C5    C7    A    
C6    C8    A    
C6    C21   S    
C12   O12   A    
C8    C18   S    
H15   O4    S    
C25   H4    S    
O1    Zn1   S    
C18   O24   D    
C1    C29   S    
O19   Zn1   S    
C31   N1    A    
C20   O5    D    
C9    C11   A    
C21   O8    S    
C24   O11   D    
C34   O20   A    
C28   C33   S    
C16   C23   A    
C7    C19   S    
O20   Zn1   S    
C14   C16   A    
C28   O17   S    
C14   C29   A    
C32   N1    A    
C26   H8    S    
C33   N2    A    
H14   O2    S    
C16   C22   S    
C27   C32   S    
C21   O7    D    
C28   O16   D    
O22   Zn2   S    
C10   C13   A    
O12   Zn2   S    
H16   O6    S    
C2    C3    S    
C1    O1    A    
O18   Zn2   S    
C3    C10   A    
C25   H5    S    
C30   C32   A    
C11   C13   A    
C26   H6    S    
C22   O10   S    
C2    O23   A    
C4    C9    A    
C2    O21   A    
C26   H7    S    
C34   O22   A    
