data_str_m9_o11_o18_f0_sra.sym.31
_audit_creation_date              2012-12-11T14:21:14-0500
_audit_creation_method            fapswitch 2.2
_symmetry_space_group_name_H-M    P1
_symmetry_Int_Tables_number       1
_space_group_crystal_system       triclinic
_cell_length_a                    21.961065
_cell_length_b                    7.192175
_cell_length_c                    14.963984
_cell_angle_alpha                 90.05812
_cell_angle_beta                  107.203176
_cell_angle_gamma                 89.986806
_cell_volume                      2257.78790389

loop_
_atom_site_label
_atom_site_type_symbol
_atom_type_description
_atom_site_fract_x
_atom_site_fract_y
_atom_site_fract_z
_atom_type_partial_charge
O1    O     O_R   0.584770 0.505770 0.002090 -0.541461
O2    O     O_R   0.415230 0.005770 0.997910 -0.541548
O3    O     O_R   0.467060 0.173340 0.861950 -0.542156
O4    O     O_R   0.532940 0.673340 0.138050 -0.541975
C1    C     C_R   0.455844 0.344316 0.825896 0.684363
C2    C     C_R   0.544192 0.844405 0.174078 0.684209
O5    O     O_R   0.587510 0.175890 0.993210 -0.540674
O6    O     O_R   0.412490 0.675890 0.006790 -0.539720
O7    O     O_R   0.536540 0.008150 0.130100 -0.538714
O8    O     O_R   0.463460 0.508150 0.869900 -0.538677
C3    C     C_R   0.613333 0.345150 0.999174 0.748520
C4    C     C_R   0.386714 0.845200 0.000922 0.750093
O9    O     O_3   0.483140 0.340040 0.044760 -0.379496
O10   O     O_3   0.516860 0.840040 0.955240 -0.380185
V1    V     V_3+5 0.503130 0.064190 0.991700 1.400009
V2    V     V_3+5 0.496870 0.564190 0.008300 1.401482
C5    C     C_2   0.208407 0.726919 0.967628 0.113507
C6    C     C_2   0.790645 0.225716 0.027320 0.106844
C7    C     C_2   0.180468 0.878101 0.995517 -0.299024
C8    C     C_2   0.818879 0.378618 0.001987 -0.327968
H1    H     H_    0.209305 0.997809 0.025292 0.124924
H2    H     H_    0.789972 0.498713 0.972734 0.139229
C9    C     C_2   0.279099 0.715386 0.983766 -0.170156
C10   C     C_2   0.719565 0.214850 0.006669 -0.153343
C11   C     C_2   0.318299 0.862514 0.994447 -0.340748
C12   C     C_2   0.682171 0.361934 0.008043 -0.347302
H3    H     H_    0.299304 0.578032 0.982006 0.141890
H4    H     H_    0.697561 0.078583 0.994205 0.146176
H5    H     H_    0.299429 0.002357 0.991879 0.135202
H6    H     H_    0.703150 0.499493 0.022365 0.138936
C13   C     C_R   0.926689 0.889341 0.724130 -0.215033
C14   C     C_R   0.073503 0.391078 0.275996 -0.217618
C15   C     C_R   0.571123 0.852043 0.275896 -0.049178
C16   C     C_R   0.428998 0.351906 0.724048 -0.049281
C17   C     C_R   0.933931 0.956510 0.569798 0.700041
C18   C     C_R   0.067065 0.470267 0.429596 0.694392
C19   C     C_R   0.962220 0.946783 0.665896 -0.340001
C20   C     C_R   0.038505 0.455375 0.333746 -0.324925
C21   C     C_R   0.862032 0.844949 0.686762 0.545590
C22   C     C_R   0.137999 0.344812 0.313702 0.544479
C23   C     C_R   0.830121 0.875515 0.590349 -0.105376
C24   C     C_R   0.170248 0.379971 0.409654 -0.103921
C25   C     C_R   0.868267 0.922083 0.531517 -0.069390
C26   C     C_R   0.132566 0.433955 0.468025 -0.065063
C27   C     C_R   0.762236 0.864397 0.550247 0.113066
C28   C     C_R   0.238082 0.366885 0.449693 0.113254
C29   C     C_R   0.734953 0.874779 0.450904 0.066568
C30   C     C_R   0.265530 0.381216 0.548896 0.067550
C31   C     C_R   0.775704 0.909513 0.395443 -0.209730
C32   C     C_R   0.225252 0.424546 0.604073 -0.208254
C33   C     C_R   0.840546 0.936455 0.435184 -0.086115
C34   C     C_R   0.160622 0.454451 0.564001 -0.095667
C35   C     C_R   0.720381 0.856718 0.606021 -0.125118
C36   C     C_R   0.279799 0.353955 0.393864 -0.124854
C37   C     C_R   0.654825 0.847021 0.566523 -0.244864
C38   C     C_R   0.345363 0.343383 0.433353 -0.243829
C39   C     C_R   0.627835 0.848999 0.469929 0.120738
C40   C     C_R   0.372403 0.347726 0.529951 0.120678
C41   C     C_R   0.667366 0.859944 0.410540 0.080855
C42   C     C_R   0.332944 0.362644 0.589276 0.080320
C43   C     C_R   0.561228 0.844758 0.432552 -0.189158
C44   C     C_R   0.438982 0.341992 0.567421 -0.189572
C45   C     C_R   0.532225 0.849390 0.335766 0.069991
C46   C     C_R   0.467935 0.347863 0.664228 0.070210
C47   C     C_R   0.637502 0.856241 0.312945 -0.237635
C48   C     C_R   0.362652 0.358575 0.686865 -0.237175
H7    H     H_    0.869152 0.970254 0.389572 0.180486
H8    H     H_    0.132456 0.495777 0.608986 0.178444
H9    H     H_    0.664378 0.852665 0.263245 0.103498
H10   H     H_    0.335537 0.356100 0.736298 0.103927
H11   H     H_    0.624803 0.840812 0.612335 0.132137
H12   H     H_    0.375337 0.334090 0.387547 0.131010
H13   H     H_    0.012185 0.981946 0.695016 0.158739
H14   H     H_    0.988753 0.492694 0.304388 0.163264
H15   H     H_    0.758584 0.926512 0.320831 0.120239
H16   H     H_    0.242700 0.447122 0.678472 0.119922
H17   H     H_    0.736201 0.869419 0.680882 0.204825
H18   H     H_    0.263867 0.363679 0.318885 0.203946
H19   H     H_    0.531575 0.839697 0.479043 0.113218
H20   H     H_    0.468650 0.335048 0.520992 0.113206
O11   O     O_R   0.036450 0.233070 0.130130 -0.517043
O12   O     O_R   0.963550 0.733070 0.869870 -0.516845
O13   O     O_R   0.912470 0.560570 0.006790 -0.537526
O14   O     O_R   0.087530 0.060570 0.993210 -0.540068
C49   C     C_R   0.887210 0.390640 0.004467 0.725810
C50   C     C_R   0.112614 0.890399 0.994976 0.730758
O15   O     O_R   0.032920 0.562940 0.138050 -0.547634
O16   O     O_R   0.967080 0.062940 0.861950 -0.550704
O17   O     O_R   0.084790 0.730500 0.002090 -0.540062
O18   O     O_R   0.915210 0.230500 0.997910 -0.544484
C51   C     C_R   0.044858 0.394713 0.174535 0.795787
C52   C     C_R   0.955309 0.894436 0.825496 0.790624
O19   O     O_3   0.016820 0.396170 0.955260 -0.390703
O20   O     O_3   0.983180 0.896170 0.044740 -0.384365
V3    V     V_3+5 0.996880 0.672090 0.008300 1.472504
V4    V     V_3+5 0.003120 0.172090 0.991700 1.458602
C53   C     C_3   0.170715 0.557955 0.919210 -0.315646
C54   C     C_3   0.125448 0.606576 0.822255 -0.312037
C55   C     C_3   0.090872 0.433953 0.772715 -0.715077
H21   H     H_    0.125613 0.332687 0.759996 0.211254
H22   H     H_    0.063636 0.366263 0.815397 0.241880
H23   H     H_    0.056913 0.474304 0.704479 0.252979
H24   H     H_    0.089292 0.709716 0.828223 0.184691
H25   H     H_    0.153240 0.668667 0.778550 0.192581
H26   H     H_    0.203871 0.448971 0.908661 0.145755
H27   H     H_    0.145027 0.490812 0.964100 0.203851
C56   C     C_3   0.830316 0.058094 0.073985 -0.276637
C57   C     C_3   0.798022 0.932092 0.129651 -0.373775
C58   C     C_3   0.844796 0.789707 0.187760 -0.742143
H28   H     H_    0.863373 0.699384 0.141611 0.233347
H29   H     H_    0.885393 0.860666 0.238652 0.238125
H30   H     H_    0.820138 0.701025 0.226968 0.221618
H31   H     H_    0.779304 0.018411 0.177265 0.202628
H32   H     H_    0.757940 0.854499 0.081226 0.188059
H33   H     H_    0.842530 0.972958 0.019651 0.195429
H34   H     H_    0.875083 0.110118 0.124475 0.175994
F1    F     F_    0.832761 0.765900 0.745385 -0.712919
F2    F     F_    0.166858 0.260421 0.255916 -0.712200
C59   C     C_3   0.460218 0.853246 0.298804 -0.373583
C60   C     C_3   0.432800 0.655910 0.283442 -0.313796
C61   C     C_3   0.360064 0.659593 0.250945 -0.744754
H35   H     H_    0.341672 0.716228 0.307063 0.239496
H36   H     H_    0.342445 0.746882 0.187438 0.239941
H37   H     H_    0.341463 0.516314 0.233825 0.212631
H38   H     H_    0.449842 0.583764 0.229685 0.211328
H39   H     H_    0.449154 0.575740 0.349753 0.191659
H40   H     H_    0.440527 0.927724 0.349349 0.180199
H41   H     H_    0.444588 0.932904 0.232291 0.160502
C62   C     C_3   0.539918 0.352949 0.701207 -0.373334
C63   C     C_3   0.567790 0.156355 0.718027 -0.314307
C64   C     C_3   0.640513 0.161669 0.748615 -0.750074
H42   H     H_    0.657916 0.213534 0.690659 0.240199
H43   H     H_    0.658583 0.254050 0.810180 0.240255
H44   H     H_    0.659640 0.019655 0.768032 0.212887
H45   H     H_    0.551711 0.086880 0.773340 0.211148
H46   H     H_    0.550869 0.073042 0.652724 0.191699
H47   H     H_    0.559473 0.425961 0.650158 0.181155
H48   H     H_    0.555363 0.434785 0.767136 0.160513
F3    F     F_    0.970402 0.006008 0.514485 -0.652988
F4    F     F_    0.031063 0.526917 0.484405 -0.658256

loop_
_geom_bond_atom_site_label_1
_geom_bond_atom_site_label_2
_ccdc_geom_bond_type
C40   C44   A    
C22   F2    S    
O16   V4    S    
O4    V2    S    
O15   C51   A    
C63   H45   S    
O1    C3    A    
C64   H44   S    
O2    C4    A    
C16   C48   A    
C2    O7    A    
C53   C54   S    
C15   C47   A    
C29   C31   A    
C9    C11   D    
O5    C3    A    
C5    C9    S    
C6    C10   S    
C44   H20   S    
C7    H1    S    
O14   C50   A    
C58   H29   S    
O14   V4    S    
C60   H39   S    
C39   C41   A    
C14   C51   S    
C40   C42   A    
C54   H24   S    
O12   C52   A    
C57   C58   S    
C7    C50   S    
C24   C28   A    
C27   C29   A    
C57   H32   S    
C43   C45   A    
C6    C56   S    
C61   H37   S    
C44   C46   A    
C17   F3    S    
C62   H48   S    
O16   C52   A    
C38   C40   A    
C38   H12   S    
O15   V3    S    
C32   C34   A    
C56   C57   S    
C31   H15   S    
C9    H3    S    
C17   C25   A    
C34   H8    S    
O6    C4    A    
C53   H26   S    
C59   H41   S    
C26   C34   A    
C30   C32   A    
C42   C48   A    
O6    V2    S    
C8    C49   S    
C23   C25   A    
C24   C26   A    
C13   C52   S    
C30   C42   A    
C28   C30   A    
C35   C37   A    
C11   H5    S    
C49   O18   A    
C36   C38   A    
C21   C23   A    
C58   H30   S    
O11   V4    S    
C60   H38   S    
C3    C12   S    
C64   H43   S    
C21   F1    S    
C27   C35   A    
C13   C19   A    
C57   H31   S    
O17   V3    S    
C35   H17   S    
C32   H16   S    
C45   C59   S    
C55   H21   S    
C15   C45   A    
O13   V3    S    
C1    C16   S    
C28   C36   A    
C16   C46   A    
O1    V2    S    
C33   H7    S    
C39   C43   A    
O2    V1    S    
C18   F4    S    
C56   H33   S    
C61   H35   S    
C53   H27   S    
O4    C2    A    
O13   C49   A    
C8    H2    S    
C12   H6    S    
O19   V4    S    
C14   C20   A    
C37   C39   A    
C18   C26   A    
C64   H42   S    
O3    V1    S    
C60   C61   S    
C17   C19   A    
C62   C63   S    
C20   H14   S    
C19   H13   S    
O12   V3    S    
C55   H22   S    
C63   H46   S    
C10   H4    S    
C10   C12   D    
C22   C24   A    
O3    C1    A    
C50   O17   A    
C59   C60   S    
O18   V4    S    
C2    C15   S    
C4    C11   S    
C18   C20   A    
C63   C64   S    
O7    V1    S    
C1    O8    A    
O8    V2    S    
C58   H28   S    
C41   C47   A    
C25   C33   A    
C48   H10   S    
C43   H19   S    
C47   H9    S    
O5    V1    S    
C5    C7    D    
C13   C21   A    
C6    C8    D    
C14   C22   A    
O20   V3    S    
C56   H34   S    
C61   H36   S    
C31   C33   A    
C29   C41   A    
O11   C51   A    
C55   H23   S    
C62   H47   S    
C46   C62   S    
C54   C55   S    
O9    V2    S    
C23   C27   A    
O10   V1    S    
C5    C53   S    
C54   H25   S    
C37   H11   S    
C36   H18   S    
C59   H40   S    
