data_str_m9_o11_o2_f0_sra.sym.240
_audit_creation_date              2012-12-11T14:29:39-0500
_audit_creation_method            fapswitch 2.2
_symmetry_space_group_name_H-M    P1
_symmetry_Int_Tables_number       1
_space_group_crystal_system       triclinic
_cell_length_a                    6.931109
_cell_length_b                    14.683766
_cell_length_c                    16.410485
_cell_angle_alpha                 90.471894
_cell_angle_beta                  90.048699
_cell_angle_gamma                 90.014615
_cell_volume                      1670.1162374

loop_
_atom_site_label
_atom_site_type_symbol
_atom_type_description
_atom_site_fract_x
_atom_site_fract_y
_atom_site_fract_z
_atom_type_partial_charge
O1    O     O_R   0.494400 0.416610 0.413880 -0.547968
O2    O     O_R   0.823920 0.406790 0.585520 -0.547990
O3    O     O_R   0.994250 0.583390 0.586120 -0.540162
C1    C     C_R   0.654961 0.387944 0.615125 0.751743
O4    O     O_R   0.824110 0.405730 0.414490 -0.526278
O5    O     O_R   0.994440 0.582310 0.413870 -0.533293
C2    C     C_R   0.654898 0.382933 0.387191 0.743126
O6    O     O_R   0.494210 0.417690 0.586130 -0.544035
O7    O     O_3   0.660810 0.557940 0.500000 -0.372355
V1    V     V_3+5 0.935650 0.489250 0.500000 1.430608
O8    O     O_R   0.324160 0.593210 0.414480 -0.547432
C3    C     C_R   0.154900 0.616936 0.388459 0.751898
O9    O     O_R   0.323970 0.594270 0.585510 -0.541238
C4    C     C_R   0.154980 0.616714 0.613236 0.685500
V2    V     V_3+5 0.435660 0.510750 0.500000 1.414152
O10   O     O_3   0.160630 0.442060 0.500000 -0.373208
C5    C     C_R   0.017990 0.560114 0.768541 -0.195367
C6    C     C_R   0.945487 0.527857 0.840934 -0.207255
C7    C     C_R   0.943861 0.582921 0.910034 0.270680
C8    C     C_R   0.018924 0.672589 0.906366 0.128889
C9    C     C_R   0.071583 0.711991 0.829219 0.014504
C10   C     C_R   0.077083 0.651754 0.759982 0.043494
C11   C     C_R   0.121005 0.806933 0.817961 -0.154388
C12   C     C_R   0.178588 0.837121 0.739142 0.055960
C13   C     C_R   0.193480 0.774541 0.672719 0.030389
C14   C     C_R   0.143921 0.682079 0.683222 -0.145329
C15   C     C_R   0.218036 0.930342 0.724275 -0.174278
C16   C     C_R   0.272970 0.960333 0.647397 -0.108770
C17   C     C_R   0.290970 0.898843 0.582737 0.207424
C18   C     C_R   0.250965 0.806845 0.595356 -0.149436
H1    H     H_    0.023755 0.511348 0.718979 0.136855
H2    H     H_    0.894096 0.458254 0.843416 0.134262
H3    H     H_    0.204420 0.981920 0.771305 0.139647
H4    H     H_    0.299916 0.032098 0.638222 0.127699
H5    H     H_    0.262462 0.761406 0.543323 0.107786
C19   C     C_2   0.991547 0.710087 0.282892 -0.118328
C20   C     C_2   0.147904 0.691343 0.328680 -0.321877
H6    H     H_    0.858782 0.672500 0.292812 0.141737
H7    H     H_    0.276314 0.732836 0.323861 0.146122
C21   C     C_2   0.985756 0.784489 0.221396 -0.143129
C22   C     C_2   0.131558 0.806496 0.170052 0.020098
H8    H     H_    0.849290 0.820279 0.215857 0.108675
C23   C     C_2   0.769298 0.226822 0.793063 0.130008
C24   C     C_2   0.616811 0.170108 0.809961 0.046468
C25   C     C_2   0.783747 0.279323 0.715970 -0.153456
C26   C     C_2   0.639465 0.331215 0.688213 -0.348014
H9    H     H_    0.922334 0.280394 0.685069 0.144111
H10   H     H_    0.505774 0.335983 0.722064 0.136701
C27   C     C_2   0.777519 0.210157 0.216664 0.162947
C28   C     C_2   0.619851 0.188595 0.171070 -0.298506
H11   H     H_    0.491770 0.230884 0.176687 0.125359
C29   C     C_2   0.776264 0.293461 0.269451 0.194116
C30   C     C_2   0.642123 0.305937 0.328439 0.015698
O11   O     O_R   0.770210 0.079270 0.910680 -0.548190
O12   O     O_R   0.440150 0.091160 0.082270 -0.546686
O13   O     O_R   0.269970 0.914530 0.082860 -0.533988
C31   C     C_R   0.609657 0.113707 0.110063 0.741008
O14   O     O_R   0.440480 0.090100 0.911240 -0.535689
O15   O     O_R   0.270310 0.913460 0.910610 -0.536697
C32   C     C_R   0.609796 0.111706 0.883200 0.761845
O16   O     O_R   0.769870 0.080340 0.082930 -0.536328
O17   O     O_3   0.603660 0.938980 0.996790 -0.371162
V3    V     V_3+5 0.328750 0.007610 0.996740 1.409995
O18   O     O_R   0.940600 0.902510 0.911180 -0.536815
C33   C     C_R   0.109681 0.877168 0.885187 0.712520
O19   O     O_R   0.940270 0.903570 0.082200 -0.554403
C34   C     C_R   0.110346 0.881791 0.110388 0.716201
V4    V     V_3+5 0.828770 0.986010 0.996670 1.399169
O20   O     O_3   0.103730 0.054750 0.996710 -0.374530
C35   C     C_3   0.349958 0.930557 0.499637 -0.807185
H12   H     H_    0.376045 0.005200 0.498816 0.207279
H13   H     H_    0.484771 0.895404 0.480805 0.212014
H14   H     H_    0.234384 0.914230 0.454926 0.211213
C36   C     C_3   0.318827 0.752751 0.166943 -0.751690
H15   H     H_    0.387702 0.757157 0.106098 0.202691
H16   H     H_    0.423404 0.780891 0.211739 0.197551
H17   H     H_    0.293557 0.679125 0.177400 0.221875
C37   C     C_3   0.939198 0.237184 0.850268 -0.770587
H18   H     H_    0.035416 0.293556 0.830937 0.191966
H19   H     H_    0.888419 0.253456 0.912893 0.193303
H20   H     H_    0.026963 0.173968 0.850246 0.232760
N1    N     N_3   0.460160 0.157278 0.753443 -0.705455
H21   H     H_    0.512734 0.151035 0.693980 0.239888
H22   H     H_    0.363699 0.211570 0.758254 0.227704
C38   C     C_3   0.960028 0.153776 0.215612 -0.711205
H23   H     H_    0.059679 0.174891 0.265265 0.187989
H24   H     H_    0.925409 0.080868 0.225659 0.199910
H25   H     H_    0.036748 0.162219 0.156800 0.215602
N2    N     N_3   0.921729 0.361647 0.256559 -0.680351
H26   H     H_    0.915037 0.381209 0.195517 0.226659
H27   H     H_    0.057288 0.332888 0.266643 0.225564
N3    N     N_3   0.490756 0.240177 0.338827 -0.692700
H28   H     H_    0.500172 0.214860 0.398056 0.221549
H29   H     H_    0.358546 0.273759 0.333348 0.226815
N4    N     N_3   0.868978 0.547446 0.985213 -0.680650
H30   H     H_    0.828927 0.479108 0.978499 0.220939
H31   H     H_    0.742887 0.583541 0.998846 0.229830
C39   C     C_3   0.053061 0.719701 0.986423 -0.753560
H32   H     H_    0.065226 0.671424 0.037797 0.237154
H33   H     H_    0.193629 0.755365 0.985873 0.182547
H34   H     H_    0.929171 0.764801 0.999307 0.219759

loop_
_geom_bond_atom_site_label_1
_geom_bond_atom_site_label_2
_ccdc_geom_bond_type
O19   V4    S    
N4    H30   S    
O16   V4    S    
C12   C15   A    
C1    O6    A    
C22   C34   S    
O11   C32   A    
C38   H23   S    
C15   H3    S    
C23   C37   S    
C17   C18   A    
C36   H16   S    
C18   H5    S    
O18   V4    S    
C16   C17   A    
C24   N1    S    
V3    O20   S    
C37   H19   S    
O11   V4    S    
O14   C32   A    
V2    O10   S    
C13   C18   A    
C6    C7    A    
C3    C20   S    
N1    H22   S    
C22   C36   S    
O8    V2    S    
C7    C8    A    
V4    O20   S    
C36   H17   S    
O12   V3    S    
C11   C12   A    
C35   H12   S    
O1    V2    S    
N2    H27   S    
O7    V1    S    
C21   H8    S    
O19   C34   A    
C16   H4    S    
O9    C4    A    
C29   N2    S    
C35   H14   S    
C28   H11   S    
C25   H9    S    
C26   H10   S    
C36   H15   S    
C38   H24   S    
C27   C38   S    
C19   C21   S    
C12   C13   A    
O4    C2    A    
C37   H18   S    
C1    C26   S    
C13   C14   A    
C25   C26   D    
N1    H21   S    
O2    C1    A    
C23   C24   D    
O17   V3    S    
O9    V2    S    
C27   C29   S    
C30   N3    S    
N3    H29   S    
C5    C6    A    
O13   V3    S    
C4    C14   S    
C23   C25   S    
O3    C4    A    
C21   C22   D    
C39   H32   S    
O6    V2    S    
C39   H33   S    
O12   C31   A    
C5    H1    S    
C6    H2    S    
C2    C30   S    
C39   H34   S    
C7    N4    S    
C29   C30   D    
C17   C35   S    
C38   H25   S    
O14   V3    S    
C19   C20   D    
O1    C2    A    
C28   C31   S    
O5    V1    S    
O8    C3    A    
N4    H31   S    
C31   O16   A    
O13   C34   A    
O15   V3    S    
C5    C10   A    
O17   V4    S    
O18   C33   A    
C11   C33   S    
C9    C11   A    
O7    V2    S    
O4    V1    S    
C20   H7    S    
O3    V1    S    
V1    O10   S    
O15   C33   A    
O5    C3    A    
C37   H20   S    
C24   C32   S    
C19   H6    S    
N3    H28   S    
C8    C39   S    
C8    C9    A    
C27   C28   D    
C10   C14   A    
C15   C16   A    
C35   H13   S    
N2    H26   S    
C9    C10   A    
O2    V1    S    
