data_str_m3_o4_o9_f0_pcu.sym.105
_audit_creation_date              2012-12-10T20:45:27-0500
_audit_creation_method            fapswitch 2.2
_symmetry_space_group_name_H-M    P1
_symmetry_Int_Tables_number       1
_space_group_crystal_system       triclinic
_cell_length_a                    10.688329
_cell_length_b                    10.663914
_cell_length_c                    9.848343
_cell_angle_alpha                 90.02572
_cell_angle_beta                  90.320461
_cell_angle_gamma                 89.77541
_cell_volume                      1122.48215206

loop_
_atom_site_label
_atom_site_type_symbol
_atom_type_description
_atom_site_fract_x
_atom_site_fract_y
_atom_site_fract_z
_atom_type_partial_charge
C1    C     C_R   0.503614 0.259876 0.499995 0.873379
C2    C     C_R   0.214605 0.825701 0.106606 0.621147
C3    C     C_R   0.931955 0.560339 0.398033 -0.257387
C4    C     C_R   0.872466 0.494884 0.501831 -0.077495
C5    C     C_R   0.940071 0.436625 0.607672 -0.007268
C6    C     C_R   0.068315 0.441739 0.603849 -0.265443
C7    C     C_R   0.127776 0.506911 0.499863 -0.083983
C8    C     C_R   0.060279 0.570356 0.397645 0.020217
C9    C     C_R   0.889971 0.424061 0.854685 -0.147106
C10   C     C_R   0.833196 0.364842 0.964834 -0.140649
C11   C     C_R   0.768876 0.252363 0.945536 -0.128394
C12   C     C_R   0.260213 0.503624 0.499670 0.875676
C13   C     C_R   0.761451 0.198889 0.816137 -0.131935
C14   C     C_R   0.816666 0.258626 0.705211 -0.122555
C15   C     C_R   0.881182 0.371815 0.723948 0.143608
C16   C     C_R   0.517186 0.063642 0.623035 0.108897
C17   C     C_R   0.523069 0.128378 0.500779 -0.097335
C18   C     C_R   0.553100 0.064557 0.380638 -0.236487
C19   C     C_R   0.553975 0.934798 0.380798 -0.232656
C20   C     C_R   0.524490 0.871166 0.501011 -0.097702
C21   C     C_R   0.518323 0.935952 0.623317 0.078948
C22   C     C_3   0.424064 0.928562 0.734537 -0.389140
C23   C     C_R   0.504316 0.739994 0.500006 0.871577
C24   C     C_3   0.422681 0.070672 0.733965 -0.478083
C25   C     C_R   0.445218 0.404137 0.070985 0.212733
C26   C     C_R   0.564508 0.587745 0.072471 -0.127601
C27   C     C_R   0.564747 0.587581 0.928369 -0.110396
C28   C     C_R   0.443834 0.405147 0.928294 0.238082
C29   C     C_3   0.308547 0.371719 0.923498 -0.533189
C30   C     C_3   0.311277 0.366823 0.077433 -0.505136
C31   C     C_R   0.739884 0.496393 0.500634 0.866308
C32   C     C_R   0.241775 0.839992 0.245070 -0.225176
C33   C     C_R   0.193485 0.755677 0.339666 -0.196095
C34   C     C_R   0.118545 0.655054 0.296567 0.149599
C35   C     C_R   0.092955 0.640148 0.157371 -0.281838
C36   C     C_R   0.142307 0.723851 0.062811 -0.237790
H1    H     H_    0.725163 0.206411 0.030905 0.120198
H2    H     H_    0.713230 0.110888 0.802128 0.130022
H3    H     H_    0.809529 0.216817 0.605228 0.107232
H4    H     H_    0.567405 0.113731 0.285765 0.169025
H5    H     H_    0.568508 0.885448 0.285963 0.170040
H6    H     H_    0.334005 0.886497 0.700815 0.202589
H7    H     H_    0.332063 0.111332 0.699115 0.188029
H8    H     H_    0.461958 0.112246 0.828488 0.207575
H9    H     H_    0.614573 0.659947 0.127263 0.138129
H10   H     H_    0.298245 0.917943 0.279391 0.156657
H11   H     H_    0.615144 0.659548 0.874251 0.140977
H12   H     H_    0.249171 0.449267 0.883353 0.219147
H13   H     H_    0.292170 0.279104 0.875577 0.190073
H14   H     H_    0.251494 0.439062 0.125893 0.235182
H15   H     H_    0.299937 0.270481 0.118508 0.200225
H16   H     H_    0.212756 0.770046 0.446640 0.121471
H17   H     H_    0.035225 0.563347 0.122145 0.148094
H18   H     H_    0.122672 0.710984 0.955735 0.147969
H19   H     H_    0.877756 0.609710 0.321177 0.157045
H20   H     H_    0.121945 0.393083 0.681576 0.155456
H21   H     H_    0.939527 0.511281 0.870788 0.117891
H22   H     H_    0.839055 0.406126 0.065108 0.133815
N1    N     N_R   0.499160 0.499140 0.142800 -0.105536
N2    N     N_R   0.499160 0.499180 0.857150 -0.102845
O1    O     O_R   0.500020 0.316790 0.614690 -0.611007
O2    O     O_R   0.500000 0.316760 0.385350 -0.626069
O3    O     O_R   0.316770 0.500030 0.614670 -0.626412
O4    O     O_R   0.316750 0.499990 0.385330 -0.607154
O5    O     O_R   0.500000 0.683240 0.614650 -0.623169
O6    O     O_R   0.499980 0.683210 0.385310 -0.619247
O7    O     O_R   0.683250 0.500010 0.614670 -0.608142
O8    O     O_R   0.683230 0.499970 0.385330 -0.631830
Zn1   Zn    Zn3+2 0.500010 0.500020 0.653130 0.951636
Zn2   Zn    Zn3+2 0.499990 0.499980 0.346870 0.943334
O9    O     O_3   0.261468 0.909735 0.013665 -0.629399
C37   C     C_3   0.171426 0.005052 0.993823 -0.364894
H23   H     H_    0.154649 0.058406 0.089279 0.165939
H24   H     H_    0.081931 0.966563 0.953391 0.166127
H25   H     H_    0.207212 0.071954 0.917548 0.198885
H26   H     H_    0.464584 0.888030 0.829099 0.223610

loop_
_geom_bond_atom_site_label_1
_geom_bond_atom_site_label_2
_ccdc_geom_bond_type
C30   H15   S    
C16   C21   A    
C35   H17   S    
C35   C36   A    
C22   H26   S    
C1    O2    A    
C7    C8    A    
C29   H13   S    
C33   H16   S    
C31   O7    A    
C26   C27   A    
C23   O6    A    
C28   C29   S    
C10   H22   S    
C18   C19   A    
C27   N2    A    
C5    C6    A    
C12   O4    A    
C2    C36   A    
O2    Zn2   S    
C2    C32   A    
C34   C35   A    
C11   H1    S    
C18   H4    S    
C26   H9    S    
C14   H3    S    
C3    H19   S    
C19   C20   A    
C16   C17   A    
O4    Zn2   S    
C26   N1    A    
C30   H14   S    
C16   C24   S    
C21   C22   S    
C31   O8    A    
C37   H25   S    
C33   C34   A    
C28   N2    A    
C7    C12   S    
C29   H12   S    
O3    Zn1   S    
C37   H24   S    
C3    C8    A    
C12   O3    A    
C37   H23   S    
C3    C4    A    
C25   C28   A    
C29   C30   S    
C20   C23   S    
C17   C18   A    
C8    C34   S    
C13   H2    S    
C24   H8    S    
C22   C24   S    
C2    O9    S    
C9    C10   A    
C27   H11   S    
C25   C30   S    
C32   H10   S    
C6    H20   S    
C4    C5    A    
C1    O1    A    
C6    C7    A    
O6    Zn2   S    
C1    C17   S    
O1    Zn1   S    
C32   C33   A    
C23   O5    A    
C9    C15   A    
O9    C37   S    
C11   C13   A    
C22   H6    S    
N2    Zn1   S    
O5    Zn1   S    
C9    H21   S    
C5    C15   S    
C4    C31   S    
C36   H18   S    
C10   C11   A    
N1    Zn2   S    
C20   C21   A    
O8    Zn2   S    
C24   H7    S    
C14   C15   A    
C25   N1    A    
O7    Zn1   S    
C13   C14   A    
C19   H5    S    
