data_str_m9_o13_o2_f0_sra.sym.74
_audit_creation_date              2013-03-05T15:46:31-0500
_audit_creation_method            fapswitch 2.2
_symmetry_space_group_name_H-M    P1
_symmetry_Int_Tables_number       1
_space_group_crystal_system       triclinic
_cell_length_a                    6.95128
_cell_length_b                    16.654531
_cell_length_c                    17.126486
_cell_angle_alpha                 100.268403
_cell_angle_beta                  90.396381
_cell_angle_gamma                 90.772834
_cell_volume                      1950.71696811

loop_
_atom_site_label
_atom_site_type_symbol
_atom_site_description
_atom_site_fract_x
_atom_site_fract_y
_atom_site_fract_z
_atom_type_partial_charge
O1    O     O_R   0.506180 0.438940 0.579430 -0.589320
O2    O     O_R   0.170520 0.406230 0.413590 -0.564805
O3    O     O_R   0.005180 0.561060 0.420570 -0.576485
C1    C     C_R   0.338033 0.382378 0.386050 0.931790
O4    O     O_R   0.176140 0.429310 0.578370 -0.604910
O5    O     O_R   0.010830 0.584300 0.586530 -0.591565
C2    C     C_R   0.345389 0.412144 0.603481 0.916716
O6    O     O_R   0.500520 0.415700 0.413470 -0.583491
O7    O     O_3   0.340830 0.550820 0.502480 -0.271506
V1    V     V_3+5 0.064040 0.490570 0.499540 1.207942
O8    O     O_R   0.681400 0.593770 0.586410 -0.595868
C3    C     C_R   0.851419 0.616585 0.614688 0.925227
O9    O     O_R   0.675790 0.570690 0.421630 -0.589467
C4    C     C_R   0.845282 0.585682 0.394591 1.043209
V2    V     V_3+5 0.564650 0.509430 0.500460 1.199404
O10   O     O_3   0.837730 0.449180 0.497520 -0.268672
C5    C     C_R   0.910601 0.861977 0.167370 -0.078452
C6    C     C_R   0.861062 0.632336 0.328587 -0.274708
C7    C     C_R   0.957109 0.645361 0.194133 -0.148285
C8    C     C_R   0.933145 0.596303 0.252841 0.374039
C9    C     C_R   0.824533 0.716553 0.344184 -0.273923
C10   C     C_R   0.856933 0.765246 0.286109 0.209445
C11   C     C_R   0.918722 0.729072 0.209747 0.132509
C12   C     C_R   0.942503 0.777416 0.150361 -0.200376
C13   C     C_R   0.864130 0.897862 0.245298 -0.017613
C14   C     C_R   0.833229 0.850050 0.303628 -0.167488
H1    H     H_    0.984124 0.749302 0.091048 0.105057
H2    H     H_    0.854731 0.963325 0.261570 0.153796
H3    H     H_    0.007055 0.618169 0.135713 0.180252
H4    H     H_    0.793271 0.879610 0.362749 0.136366
H5    H     H_    0.084652 0.625114 0.966133 0.139290
C15   C     C_R   0.805998 0.911584 0.728697 -0.166438
C16   C     C_R   0.751377 0.928004 0.654167 0.484532
C17   C     C_R   0.730189 0.863037 0.590456 -0.204830
C18   C     C_R   0.766142 0.783357 0.600305 -0.214506
C19   C     C_R   0.823102 0.765722 0.674707 0.131636
C20   C     C_R   0.841925 0.831067 0.740435 0.071090
C21   C     C_R   0.865322 0.684764 0.683832 -0.281898
C22   C     C_R   0.925757 0.669269 0.759001 0.117834
C23   C     C_R   0.943193 0.734571 0.824962 0.112102
C24   C     C_R   0.900564 0.815454 0.815840 -0.247108
C25   C     C_R   0.966443 0.589025 0.770371 -0.192900
C26   C     C_R   0.024009 0.573692 0.844348 -0.092826
C27   C     C_R   0.040874 0.637398 0.908667 -0.059266
C28   C     C_R   0.000583 0.716933 0.899453 -0.169617
H6    H     H_    0.822654 0.962630 0.777142 0.151655
H7    H     H_    0.688756 0.873920 0.532224 0.162623
H8    H     H_    0.750804 0.735915 0.548511 0.119516
H9    H     H_    0.953001 0.537148 0.722558 0.124361
H10   H     H_    0.054756 0.511946 0.851858 0.145273
H11   H     H_    0.014317 0.764233 0.951403 0.093628
C29   C     C_R   0.189001 0.218664 0.389620 -0.178612
C30   C     C_R   0.132071 0.140237 0.396839 -0.128331
C31   C     C_R   0.184949 0.074428 0.340145 -0.197008
C32   C     C_R   0.292756 0.085892 0.274020 0.309711
C33   C     C_R   0.333204 0.166800 0.260194 -0.020728
C34   C     C_R   0.288890 0.233904 0.322012 0.096779
C35   C     C_R   0.421290 0.182367 0.188694 -0.253199
C36   C     C_R   0.480851 0.263575 0.184369 0.065210
C37   C     C_R   0.433481 0.329512 0.245688 0.087196
C38   C     C_R   0.346957 0.314543 0.316167 -0.219823
C39   C     C_R   0.586485 0.281367 0.119402 -0.168936
C40   C     C_R   0.625728 0.361689 0.110791 -0.042407
C41   C     C_R   0.554804 0.426866 0.165055 0.411858
C42   C     C_R   0.466226 0.410550 0.233770 -0.170640
H12   H     H_    0.151934 0.266978 0.437764 0.126085
H13   H     H_    0.152570 0.013541 0.350782 0.165993
H14   H     H_    0.638545 0.233684 0.073958 0.189152
H15   H     H_    0.704837 0.372843 0.059514 0.214110
C43   C     C_R   0.406686 0.131797 0.827348 -0.447564
C44   C     C_R   0.359521 0.361725 0.666056 -0.114608
C45   C     C_R   0.479230 0.347718 0.796412 -0.061327
C46   C     C_R   0.448535 0.395248 0.738266 -0.204030
C47   C     C_R   0.303414 0.278817 0.652084 -0.167982
C48   C     C_R   0.338426 0.229680 0.709971 0.097844
C49   C     C_R   0.425163 0.264451 0.783146 0.054660
C50   C     C_R   0.456372 0.215684 0.841638 0.294412
C51   C     C_R   0.326622 0.096088 0.752118 0.374697
C52   C     C_R   0.291176 0.146186 0.695175 -0.169687
H16   H     H_    0.548863 0.376481 0.851201 0.178056
H17   H     H_    0.228705 0.119682 0.638104 0.185082
O11   O     O_R   0.265840 0.084300 0.086750 -0.598847
O12   O     O_R   0.589750 0.070740 0.921690 -0.579152
O13   O     O_R   0.755020 0.915730 0.913400 -0.595247
C53   C     C_R   0.420537 0.084716 0.893709 1.098460
O14   O     O_R   0.595830 0.093740 0.086480 -0.578680
O15   O     O_R   0.761150 0.938890 0.079360 -0.552586
C54   C     C_R   0.428302 0.116852 0.115581 1.018001
O16   O     O_R   0.259710 0.061140 0.920790 -0.585797
O17   O     O_3   0.425260 0.949200 0.997610 -0.261638
V3    V     V_3+5 0.702060 0.009430 0.000450 1.265763
O18   O     O_R   0.090530 0.929220 0.078150 -0.569526
C55   C     C_R   0.921780 0.912896 0.104407 0.938664
O19   O     O_R   0.084440 0.906220 0.913360 -0.574633
C56   C     C_R   0.914393 0.883519 0.885085 0.931245
V4    V     V_3+5 0.201450 0.990520 0.999290 1.264855
O20   O     O_3   0.928380 0.050800 0.002390 -0.273272
N1    N     N_R   0.570163 0.509074 0.149981 0.239463
O21   O     O_R   0.649044 0.523694 0.085134 -0.402088
O22   O     O_R   0.494275 0.569347 0.198299 -0.405412
H18   H     H_    0.054041 0.130063 0.448802 0.160825
N2    N     N_R   0.386111 0.015893 0.230316 0.221716
O23   O     O_R   0.569675 0.020385 0.218303 -0.450041
O24   O     O_R   0.305411 0.943992 0.222925 -0.418785
H19   H     H_    0.417213 0.461719 0.276680 0.161316
N3    N     N_R   0.526036 0.252897 0.918071 0.197213
O25   O     O_R   0.710000 0.254259 0.932724 -0.423816
O26   O     O_R   0.412762 0.300764 0.964667 -0.434545
N4    N     N_R   0.284502 0.009534 0.731334 0.232056
O27   O     O_R   0.193595 0.980505 0.665450 -0.403531
O28   O     O_R   0.355903 0.957898 0.772049 -0.438400
H20   H     H_    0.495606 0.458603 0.749521 0.128863
H21   H     H_    0.238792 0.252171 0.595415 0.107684
N5    N     N_R   0.980840 0.510756 0.233568 0.218995
O29   O     O_R   0.076236 0.483343 0.169422 -0.383924
O30   O     O_R   0.917561 0.458302 0.275574 -0.442736
H22   H     H_    0.776875 0.744714 0.402702 0.123866
N6    N     N_R   0.721439 0.010634 0.642964 0.238138
O31   O     O_R   0.651840 0.025409 0.576289 -0.406695
O32   O     O_R   0.768577 0.071965 0.698459 -0.416704

loop_
_geom_bond_atom_site_label_1
_geom_bond_atom_site_label_2
_geom_bond_distance
_ccdc_geom_bond_type
C8    N5    1.447553 S    
C32   C33   1.433629 A    
O15   V3    1.986629 S    
C43   C51   1.425287 A    
C6    C9    1.407139 A    
C4    C6    1.485319 S    
O2    C1    1.299791 A    
C7    C8    1.413434 A    
C12   H1    1.083036 S    
C1    O6    1.298887 A    
N5    O29   1.301726 A    
C30   C31   1.384028 A    
C29   C30   1.386463 A    
C13   H2    1.079082 S    
C32   N2    1.434047 S    
C19   C20   1.423392 A    
O14   V3    1.998306 S    
N4    O28   1.301023 A    
O5    C3    1.296384 A    
C21   C22   1.419264 A    
O14   C54   1.305536 A    
N3    O25   1.300594 A    
C28   H11   1.080838 S    
V2    O10   2.155803 S    
O18   V4    1.986365 S    
C33   C34   1.434134 A    
C17   C18   1.392870 A    
C34   C38   1.417907 A    
N6    O31   1.301660 A    
C9    H22   1.084130 S    
O8    V2    2.003511 S    
C40   H15   1.081770 S    
C30   H18   1.082988 S    
C11   C12   1.414481 A    
O1    V2    1.983288 S    
O13   V3    1.996769 S    
O7    V1    2.154049 S    
C45   C49   1.410127 A    
O19   V4    2.003634 S    
C41   N1    1.440503 S    
C16   N6    1.440584 S    
O9    C4    1.306041 A    
C43   C50   1.412438 A    
C3    C21   1.488970 S    
N2    O23   1.297172 A    
C18   H8    1.081227 S    
C42   H19   1.081855 S    
C22   C25   1.416375 A    
C23   C28   1.415183 A    
C5    C12   1.407289 A    
O11   V4    2.005291 S    
C47   C48   1.415307 A    
C49   C50   1.414929 A    
H5    C27   1.082785 S    
C22   C23   1.424867 A    
C52   H17   1.083477 S    
C53   O16   1.295903 A    
C51   C52   1.414313 A    
C31   H13   1.082769 S    
C35   C36   1.423778 A    
C47   H21   1.084314 S    
C1    C38   1.494494 S    
C37   C38   1.412139 A    
O13   C56   1.296527 A    
C7    C11   1.401620 A    
C48   C49   1.410986 A    
C39   C40   1.395257 A    
V4    O20   2.155833 S    
C16   C17   1.398425 A    
C15   C20   1.416130 A    
V3    O20   1.706664 S    
N2    O24   1.300583 A    
O3    C4    1.293076 A    
C23   C24   1.418433 A    
O12   C53   1.306427 A    
C37   C42   1.416195 A    
C14   H4    1.083798 S    
O6    V2    1.999508 S    
N1    O22   1.301870 A    
O9    V2    1.986139 S    
C26   C27   1.389623 A    
C5    C55   1.487756 S    
C25   C26   1.393424 A    
O2    V1    1.998420 S    
C29   H12   1.079681 S    
C27   C28   1.393512 A    
C46   H20   1.083914 S    
O4    C2    1.302591 A    
C31   C32   1.401985 A    
C50   N3    1.423401 S    
C36   C39   1.409941 A    
O1    C2    1.294814 A    
C15   H6    1.081243 S    
C45   C46   1.395155 A    
C35   C54   1.508658 S    
O5    V1    1.996816 S    
C44   C47   1.407958 A    
N5    O30   1.300876 A    
O8    C3    1.300026 A    
C26   H10   1.082800 S    
O17   V4    1.707995 S    
C17   H7    1.082734 S    
O12   V3    1.992379 S    
C39   H14   1.076400 S    
C5    C13   1.403412 A    
C15   C16   1.403137 A    
O16   V4    1.978192 S    
C19   C21   1.419042 A    
C13   C14   1.400067 A    
O4    V1    1.992192 S    
C45   H16   1.082345 S    
O3    V1    1.986504 S    
V1    O10   1.706649 S    
N4    O27   1.301412 A    
C41   C42   1.399091 A    
C2    C44   1.478124 S    
O17   V3    2.154075 S    
C24   C56   1.488922 S    
N3    O26   1.300452 A    
O11   C54   1.301317 A    
O15   C55   1.300309 A    
O18   C55   1.301694 A    
C33   C35   1.435590 A    
C51   N4    1.447273 S    
C6    C8    1.426056 A    
C20   C24   1.420150 A    
O19   C56   1.299780 A    
N6    O32   1.301751 A    
C29   C34   1.413649 A    
C25   H9    1.081796 S    
C40   C41   1.395056 A    
C36   C37   1.421490 A    
N1    O21   1.301763 A    
C10   C14   1.402798 A    
C44   C46   1.399271 A    
C10   C11   1.411259 A    
C18   C19   1.412921 A    
C9    C10   1.408328 A    
C43   C53   1.494659 S    
C48   C52   1.402363 A    
O7    V2    1.708266 S    
C7    H3    1.083599 S    
