data_str_m2_o1_o28_f0_pcu.sym.61
_audit_creation_date              2012-10-26T20:43:34-0400
_audit_creation_method            fapswitch 2.2
_symmetry_space_group_name_H-M    P1
_symmetry_Int_Tables_number       1
_space_group_crystal_system       triclinic
_cell_length_a                    10.956806
_cell_length_b                    9.709131
_cell_length_c                    23.412088
_cell_angle_alpha                 89.478045
_cell_angle_beta                  90.11539
_cell_angle_gamma                 92.576347
_cell_volume                      2487.97892759

loop_
_atom_site_label
_atom_site_type_symbol
_atom_type_description
_atom_site_fract_x
_atom_site_fract_y
_atom_site_fract_z
_atom_type_partial_charge
C1    C     C_R   0.262192 0.496495 0.498687 0.564397
C2    C     C_R   0.592562 0.444396 0.699588 -0.113361
C3    C     C_R   0.421357 0.558678 0.238765 0.190146
C4    C     C_R   0.593577 0.435686 0.758829 0.246080
C5    C     C_R   0.517252 0.496557 0.209765 0.160528
C6    C     C_R   0.498137 0.492672 0.790133 0.163878
C7    C     C_R   0.056296 0.372993 0.518066 -0.004822
C8    C     C_R   0.944764 0.624030 0.496811 0.010384
C9    C     C_R   0.929285 0.380731 0.523669 -0.010439
C10   C     C_R   0.067131 0.611011 0.482003 0.007987
C11   C     C_R   0.871848 0.504747 0.510196 -0.070958
C12   C     C_R   0.737212 0.502515 0.504148 0.543466
C13   C     C_R   0.126787 0.489820 0.497284 -0.043883
C14   C     C_R   0.483857 0.071663 0.450506 0.321969
C15   C     C_R   0.517820 0.928142 0.549391 0.302770
C16   C     C_R   0.493373 0.069892 0.549905 0.282510
C17   C     C_R   0.509002 0.929861 0.450199 0.300674
C18   C     C_R   0.504559 0.500501 0.391580 0.573815
C19   C     C_R   0.497622 0.499444 0.608401 0.558159
C20   C     C_R   0.575240 0.587617 0.878527 0.510761
C21   C     C_R   0.438435 0.403731 0.121278 0.536809
C22   C     C_R   0.435323 0.392560 0.880631 0.502907
C23   C     C_R   0.613089 0.437080 0.240985 0.241958
C24   C     C_R   0.595519 0.581544 0.119162 0.479788
C25   C     C_R   0.429788 0.395559 0.940855 -0.002106
C26   C     C_R   0.590239 0.589721 0.058955 0.013535
C27   C     C_R   0.511177 0.489354 0.969756 -0.089612
C28   C     C_R   0.514326 0.490308 0.030026 -0.093845
C29   C     C_R   0.589443 0.582235 0.938351 -0.002522
C30   C     C_R   0.441514 0.391749 0.061370 0.021727
C31   C     C_R   0.350418 0.304540 0.972908 0.175924
C32   C     C_R   0.661856 0.688773 0.026866 0.236264
C33   C     C_R   0.370719 0.288689 0.032014 0.227391
C34   C     C_R   0.398531 0.551204 0.761150 0.240998
C35   C     C_R   0.675180 0.670046 0.967587 0.179810
C36   C     C_2   0.725639 0.413653 0.334181 0.646690
C37   C     C_2   0.282524 0.585425 0.669444 0.650011
C38   C     C_2   0.109346 0.240280 0.534641 0.668931
C39   C     C_2   0.907194 0.762984 0.512046 0.675531
C40   C     C_2   0.857420 0.258091 0.545808 0.644506
C41   C     C_2   0.128088 0.718188 0.444540 0.653824
C42   C     C_R   0.614815 0.447553 0.301212 0.029534
C43   C     C_R   0.394263 0.547511 0.700816 0.038123
C44   C     C_R   0.513350 0.500316 0.329364 -0.058400
C45   C     C_R   0.494413 0.498565 0.670595 -0.065003
C46   C     C_R   0.418069 0.553894 0.298064 -0.118420
Cu1   Cu    Cu3+1 0.500000 0.640660 0.500000 1.190389
Cu2   Cu    Cu3+1 0.500000 0.359340 0.500000 1.188304
H1    H     H_    0.341451 0.594736 0.320215 0.208395
H2    H     H_    0.103744 0.542720 0.653991 0.359624
H3    H     H_    0.409090 0.779979 0.148451 0.369451
H4    H     H_    0.911631 0.394699 0.795892 0.405515
H5    H     H_    0.197287 0.072506 0.510663 0.374069
H6    H     H_    0.921086 0.915715 0.570066 0.389872
H7    H     H_    0.782038 0.070032 0.528591 0.356540
H8    H     H_    0.226879 0.757015 0.373237 0.392793
H9    H     H_    0.263370 0.272840 0.366285 0.374485
H10   H     H_    0.735249 0.720973 0.631909 0.374728
H11   H     H_    0.451551 0.168333 0.698815 0.390505
H12   H     H_    0.667802 0.405026 0.675565 0.212404
H13   H     H_    0.561178 0.829522 0.302421 0.378438
H14   H     H_    0.141393 0.425984 0.916288 0.352108
H15   H     H_    0.665658 0.972260 0.128824 0.403466
H16   H     H_    0.388830 0.033020 0.144456 0.393682
H17   H     H_    0.871058 0.533218 0.906634 0.354434
H18   H     H_    0.751510 0.244894 0.124345 0.392871
H19   H     H_    0.091298 0.584832 0.817328 0.398474
H20   H     H_    0.801306 0.298467 0.395755 0.366748
N1    N     N_R   0.502616 0.491176 0.851351 -0.372977
N2    N     N_R   0.517107 0.493942 0.148472 -0.368791
N3    N     N_R   0.500000 0.852070 0.500000 -0.311049
N4    N     N_R   0.500000 0.147930 0.500000 -0.313964
O1    O     O_R   0.319640 0.618740 0.500000 -0.488449
O2    O     O_2   0.355629 0.329353 0.152559 -0.358922
O3    O     O_2   0.378410 0.289915 0.851105 -0.342154
O4    O     O_2   0.680083 0.656597 0.148696 -0.367963
O5    O     O_2   0.238144 0.098684 0.913341 -0.084656
O6    O     O_2   0.116767 0.202689 0.987599 -0.169808
O7    O     O_3   0.155214 0.341005 0.894564 -0.421920
O8    O     O_2   0.840030 0.827921 0.084848 -0.134131
O9    O     O_2   0.730412 0.959442 0.012856 -0.169988
O10   O     O_3   0.619708 0.899295 0.107361 -0.478424
O11   O     O_2   0.206248 0.137346 0.094316 -0.143873
O12   O     O_R   0.680360 0.381260 0.500000 -0.493460
O13   O     O_2   0.321071 0.013146 0.023007 -0.154009
O14   O     O_3   0.433706 0.089237 0.115155 -0.451214
O15   O     O_2   0.792450 0.867501 0.903872 -0.082489
O16   O     O_2   0.915197 0.752730 0.975782 -0.170147
O17   O     O_3   0.856558 0.618492 0.884565 -0.437853
O18   O     O_2   0.837255 0.441898 0.195267 -0.146228
O19   O     O_2   0.765910 0.226681 0.242016 -0.184345
O20   O     O_3   0.678552 0.282459 0.142394 -0.507833
O21   O     O_2   0.317292 0.667327 0.859477 -0.243423
O22   O     O_2   0.253474 0.766035 0.768576 -0.159060
O23   O     O_R   0.680360 0.618740 0.500000 -0.430150
O24   O     O_3   0.154872 0.529759 0.799643 -0.433990
O25   O     O_2   0.823023 0.474917 0.323603 -0.407684
O26   O     O_R   0.719446 0.311783 0.376695 -0.599891
O27   O     O_2   0.286156 0.682472 0.635798 -0.417713
O28   O     O_R   0.173223 0.508432 0.678167 -0.590366
O29   O     O_2   0.197483 0.538003 0.193553 -0.116031
O30   O     O_2   0.257357 0.756080 0.238860 -0.205939
O31   O     O_3   0.347043 0.706351 0.139136 -0.461842
O32   O     O_2   0.697582 0.322444 0.853341 -0.245778
O33   O     O_2   0.732333 0.217139 0.760575 -0.152708
O34   O     O_R   0.319640 0.381260 0.500000 -0.432820
O35   O     O_3   0.844716 0.451303 0.781746 -0.450925
O36   O     O_2   0.091264 0.193466 0.582756 -0.399807
O37   O     O_R   0.167326 0.161737 0.494104 -0.565958
O38   O     O_2   0.854634 0.834226 0.477571 -0.384451
O39   O     O_R   0.944955 0.817160 0.564645 -0.623463
O40   O     O_2   0.809110 0.261748 0.592770 -0.432595
O41   O     O_R   0.841593 0.141656 0.511500 -0.630300
O42   O     O_2   0.122384 0.840865 0.454968 -0.430991
O43   O     O_R   0.191770 0.676456 0.396557 -0.665833
O44   O     O_2   0.478851 0.171129 0.342490 -0.211800
O45   O     O_R   0.499960 0.618810 0.417880 -0.450201
O46   O     O_2   0.319816 0.000750 0.369567 -0.220138
O47   O     O_3   0.297380 0.247140 0.403943 -0.454159
O48   O     O_2   0.685209 0.997698 0.629437 -0.196936
O49   O     O_2   0.525882 0.828454 0.657435 -0.194116
O50   O     O_3   0.703884 0.751409 0.594354 -0.512716
O51   O     O_2   0.322898 0.228105 0.599693 -0.249086
O52   O     O_2   0.332228 0.991451 0.631329 -0.176433
O53   O     O_3   0.503836 0.163636 0.664477 -0.442486
O54   O     O_2   0.674524 0.008692 0.370782 -0.177011
O55   O     O_2   0.685494 0.772522 0.403462 -0.214579
O56   O     O_R   0.500040 0.381190 0.582120 -0.445873
O57   O     O_3   0.506949 0.833698 0.336110 -0.486815
O58   O     O_R   0.500040 0.618810 0.582120 -0.432218
O59   O     O_R   0.499960 0.381190 0.417880 -0.422230
O60   O     O_2   0.629188 0.690731 0.847453 -0.331265
S1    S     S_3+6 0.212363 0.231396 0.942607 0.178292
S2    S     S_3+6 0.608147 0.875774 0.609178 0.114854
S3    S     S_3+6 0.408157 0.115495 0.611425 0.128047
S4    S     S_3+6 0.599128 0.883827 0.390202 0.135926
S5    S     S_3+6 0.717630 0.847737 0.057563 0.161052
S6    S     S_3+6 0.328414 0.127615 0.065814 0.173363
S7    S     S_3+6 0.813042 0.732331 0.933351 0.171427
S8    S     S_3+6 0.728122 0.345471 0.205387 0.129118
S9    S     S_3+6 0.281424 0.634086 0.799019 0.133962
S10   S     S_3+6 0.301767 0.641227 0.202788 0.116722
S11   S     S_3+6 0.716935 0.351228 0.790777 0.117375
S12   S     S_3+6 0.395097 0.123549 0.390154 0.138579

loop_
_geom_bond_atom_site_label_1
_geom_bond_atom_site_label_2
_ccdc_geom_bond_type
C25   C31   A    
C6    N1    S    
C34   S9    S    
C26   C32   A    
C27   C29   A    
C36   C42   S    
C16   N4    A    
C41   O42   D    
C31   S1    S    
C4    S11   S    
C24   N2    A    
C40   O40   D    
C15   S2    S    
H17   O17   S    
C46   H1    S    
C23   C42   A    
O5    S1    D    
C20   O60   S    
O10   S5    S    
O46   S12   D    
C2    H12   S    
H3    O31   S    
O8    S5    D    
C19   O56   A    
C12   O12   A    
O50   S2    S    
C35   S7    S    
O24   S9    S    
O44   S12   D    
H8    O43   S    
C39   O38   D    
Cu2   O34   S    
Cu1   Cu2   S    
H4    O35   S    
O17   S7    S    
C22   C25   A    
C31   C33   A    
Cu2   O59   S    
C36   O25   D    
C8    C39   S    
O49   S2    D    
C22   N1    A    
O52   S3    D    
H13   O57   S    
C1    O34   A    
H9    O47   S    
O53   S3    S    
C19   O58   A    
C39   O39   S    
O54   S4    D    
C10   C41   S    
O47   S12   S    
C14   C17   A    
C18   O59   A    
C3    S10   S    
C42   C44   A    
C22   O3    S    
Cu2   N4    S    
H16   O14   S    
C26   C28   A    
C44   C46   A    
C20   C29   A    
C2    C45   A    
O7    S1    S    
C14   S12   S    
H10   O50   S    
C41   O43   S    
Cu1   O58   S    
C32   C35   A    
C23   S8    S    
O55   S4    D    
Cu1   O1    S    
C4    C6    A    
O15   S7    D    
C24   O4    S    
H18   O20   S    
H7    O41   S    
O9    S5    D    
C21   O2    S    
C9    C40   S    
Cu2   O12   S    
O51   S3    D    
C37   C43   S    
C2    C4    A    
O16   S7    D    
C5    N2    S    
C18   C44   S    
Cu2   O56   S    
O57   S4    S    
C9    C11   A    
O29   S10   D    
H14   O7    S    
C40   O41   S    
C5    C23   A    
C7    C13   A    
C33   S6    S    
C17   S4    S    
O32   S11   D    
C12   O23   A    
C38   O37   S    
C43   C45   A    
C18   O45   A    
Cu1   N3    S    
C17   N3    A    
H19   O24   S    
C20   N1    A    
C1    C13   S    
O35   S11   S    
O20   S8    S    
O31   S10   S    
C37   O27   D    
O21   S9    D    
H5    O37   S    
C7    C9    A    
C30   C33   A    
O22   S9    D    
C14   N4    A    
C34   C43   A    
C24   C26   A    
C3    C5    A    
C10   C13   A    
O33   S11   D    
O18   S8    D    
C11   C12   S    
C19   C45   S    
H11   O53   S    
C15   N3    A    
C21   C30   A    
C29   C35   A    
C3    C46   A    
H2    O28   S    
C21   N2    A    
C1    O1    A    
C28   C30   A    
C32   S5    S    
C8    C11   A    
C7    C38   S    
H6    O39   S    
O48   S2    D    
C37   O28   S    
C38   O36   D    
O6    S1    D    
H20   O26   S    
O14   S6    S    
O19   S8    D    
C6    C34   A    
Cu1   O45   S    
C8    C10   A    
C27   C28   A    
Cu1   O23   S    
C36   O26   S    
O30   S10   D    
C16   S3    S    
O13   S6    D    
O11   S6    D    
H15   O10   S    
C15   C16   A    
C25   C27   A    
