data_str_m2_o5_o29_f0_pcu.sym.70
_audit_creation_date              2013-03-05T16:36:15-0500
_audit_creation_method            fapswitch 2.2
_symmetry_space_group_name_H-M    P1
_symmetry_Int_Tables_number       1
_space_group_crystal_system       triclinic
_cell_length_a                    27.859993
_cell_length_b                    9.079218
_cell_length_c                    7.77718
_cell_angle_alpha                 90.000075
_cell_angle_beta                  90.0001
_cell_angle_gamma                 89.999936
_cell_volume                      1967.21396002

loop_
_atom_site_label
_atom_site_type_symbol
_atom_site_description
_atom_site_fract_x
_atom_site_fract_y
_atom_site_fract_z
_atom_type_partial_charge
O1    O     O_R   0.500000 0.288390 0.642760 -0.570102
O2    O     O_R   0.500000 0.711610 0.357240 -0.570103
O3    O     O_R   0.500000 0.711610 0.642760 -0.570103
O4    O     O_R   0.500000 0.288390 0.357240 -0.570104
C1    C     C_R   0.500000 0.220012 0.500000 0.875099
C2    C     C_R   0.500000 0.779988 0.500000 0.875091
O5    O     O_R   0.430260 0.500000 0.642770 -0.554270
O6    O     O_R   0.569740 0.500000 0.357230 -0.554270
O7    O     O_R   0.569740 0.500000 0.642770 -0.554270
O8    O     O_R   0.430260 0.500000 0.357230 -0.554272
C3    C     C_R   0.407215 0.500000 0.500000 0.928277
C4    C     C_R   0.592785 0.500000 0.500000 0.928273
Cu1   Cu    Cu3+1 0.500000 0.500000 0.669080 1.146788
Cu2   Cu    Cu3+1 0.500000 0.500000 0.330920 1.146787
C5    C     C_R   0.177192 0.371216 0.469224 0.665526
C6    C     C_R   0.822808 0.628781 0.469234 0.665525
C7    C     C_R   0.177192 0.628780 0.530754 0.665522
C8    C     C_R   0.822808 0.371216 0.530759 0.665525
O9    O     O_2   0.201836 0.246889 0.433748 -0.452479
O10   O     O_2   0.798164 0.753109 0.433762 -0.452485
O11   O     O_2   0.201836 0.753107 0.566229 -0.452484
O12   O     O_2   0.798164 0.246889 0.566234 -0.452483
N1    N     N_R   0.201351 0.499998 0.499990 -0.427781
N2    N     N_R   0.798649 0.499999 0.499997 -0.427779
C9    C     C_R   0.278245 0.577890 0.371539 0.269968
C10   C     C_R   0.721755 0.422106 0.371544 0.269965
C11   C     C_R   0.278244 0.422104 0.628447 0.269967
C12   C     C_R   0.721756 0.577890 0.628455 0.269966
C13   C     C_R   0.328748 0.580745 0.373768 0.198097
C14   C     C_R   0.671252 0.419251 0.373771 0.198099
C15   C     C_R   0.328747 0.419250 0.626225 0.198097
C16   C     C_R   0.671253 0.580746 0.626229 0.198098
C17   C     C_R   0.253062 0.499997 0.499992 0.039997
C18   C     C_R   0.746938 0.499999 0.499999 0.039998
C19   C     C_R   0.101418 0.499998 0.499989 -0.041604
C20   C     C_R   0.898582 0.499999 0.499994 -0.041604
C21   C     C_R   0.126870 0.367828 0.474764 -0.036263
C22   C     C_R   0.873130 0.632169 0.474771 -0.036262
C23   C     C_R   0.126870 0.632169 0.525214 -0.036262
C24   C     C_R   0.873130 0.367828 0.525218 -0.036262
C25   C     C_R   0.101625 0.235790 0.454439 -0.109985
C26   C     C_R   0.898375 0.764207 0.454447 -0.109986
C27   C     C_R   0.101625 0.764206 0.545539 -0.109986
C28   C     C_R   0.898375 0.235790 0.545541 -0.109986
C29   C     C_R   0.354165 0.499999 0.499998 -0.335265
C30   C     C_R   0.645834 0.499999 0.500000 -0.335264
H1    H     H_    0.120326 0.132919 0.432266 0.191082
H2    H     H_    0.879674 0.867078 0.432276 0.191081
H3    H     H_    0.120326 0.867077 0.567712 0.191082
H4    H     H_    0.879674 0.132919 0.567713 0.191081
C31   C     C_R   0.974659 0.364441 0.508315 0.045938
C32   C     C_R   0.025341 0.635556 0.508316 0.045938
C33   C     C_R   0.974659 0.635556 0.491667 0.045938
C34   C     C_R   0.025341 0.364441 0.491665 0.045938
C35   C     C_R   0.949462 0.499999 0.499992 0.079648
C36   C     C_R   0.050538 0.499998 0.499990 0.079648
C37   C     C_R   0.948213 0.233621 0.535130 -0.196243
C38   C     C_R   0.051787 0.766376 0.535130 -0.196244
C39   C     C_R   0.948212 0.766376 0.464854 -0.196243
C40   C     C_R   0.051787 0.233621 0.464849 -0.196244
H5    H     H_    0.965337 0.128489 0.554941 0.131023
H6    H     H_    0.034663 0.871508 0.554942 0.131024
H7    H     H_    0.965337 0.871508 0.445042 0.131023
H8    H     H_    0.034663 0.128489 0.445037 0.131024
C41   C     C_1   0.500000 0.065394 0.500000 -0.058956
C42   C     C_1   0.500000 0.934606 0.500000 -0.058958
N3    N     N_1   0.500000 0.500000 0.076820 0.002083
N4    N     N_1   0.500000 0.500000 0.923180 0.002083
N5    N     N_R   0.354096 0.332420 0.751141 0.183198
O13   O     O_R   0.346696 0.352619 0.914628 -0.239748
O14   O     O_R   0.382704 0.227454 0.701364 -0.318463
N6    N     N_R   0.645903 0.667571 0.751148 0.183201
O15   O     O_R   0.653292 0.647334 0.914634 -0.239763
O16   O     O_R   0.617301 0.772553 0.701377 -0.318449
N7    N     N_R   0.354098 0.667569 0.248850 0.183201
O17   O     O_R   0.382699 0.772554 0.298621 -0.318447
O18   O     O_R   0.346712 0.647326 0.085364 -0.239773
N8    N     N_R   0.645902 0.332423 0.248856 0.183200
O19   O     O_R   0.617299 0.227445 0.298631 -0.318455
O20   O     O_R   0.653293 0.352649 0.085369 -0.239758
N9    N     N_R   0.252323 0.342902 0.758928 0.182162
O21   O     O_R   0.262186 0.205378 0.790126 -0.206046
O22   O     O_R   0.217248 0.405781 0.841437 -0.287521
N10   N     N_R   0.747676 0.657085 0.758944 0.182160
O23   O     O_R   0.737807 0.794598 0.790178 -0.206046
O24   O     O_R   0.782754 0.594207 0.841438 -0.287527
N11   N     N_R   0.252325 0.657085 0.241048 0.182160
O25   O     O_R   0.262195 0.794598 0.209815 -0.206046
O26   O     O_R   0.217247 0.594208 0.158551 -0.287526
N12   N     N_R   0.747675 0.342910 0.241056 0.182160
O27   O     O_R   0.737808 0.205392 0.209835 -0.206047
O28   O     O_R   0.782752 0.405788 0.158554 -0.287523

loop_
_geom_bond_atom_site_label_1
_geom_bond_atom_site_label_2
_geom_bond_distance
_ccdc_geom_bond_type
C38   H6    1.078173 S    
N11   O25   1.301304 A    
C12   N10   1.438190 S    
N6    O16   1.301279 A    
O3    C2    1.272053 A    
N9    O21   1.301311 A    
C33   C39   1.413184 A    
C16   N6    1.436673 S    
C34   C40   1.413185 A    
C11   C17   1.410810 A    
C5    O9    1.349703 S    
C7    N1    1.370184 A    
C2    C42   1.403811 S    
O1    C1    1.272052 A    
C19   C21   1.407586 A    
N10   O24   1.300990 A    
C22   C26   1.398851 A    
N8    O20   1.301056 A    
C9    N11   1.438191 S    
C7    C23   1.402964 A    
N5    O14   1.301283 A    
C8    C24   1.402962 A    
C5    C21   1.402964 A    
C20   C24   1.407587 A    
O7    Cu1   1.953698 S    
C27   C38   1.390964 A    
C10   C18   1.410812 A    
N1    C17   1.440657 S    
Cu2   N3    1.976181 S    
C31   C37   1.413187 A    
O3    Cu1   1.932127 S    
C6    O10   1.349703 S    
C5    N1    1.370185 A    
C12   C18   1.410811 A    
C6    N2    1.370184 A    
Cu1   Cu2   2.629932 S    
C21   C25   1.398850 A    
O2    C2    1.272052 A    
N9    O22   1.300992 A    
O5    C3    1.282608 A    
C33   C35   1.418353 A    
C9    C13   1.407356 A    
C34   C36   1.418354 A    
C11   C15   1.407361 A    
N3    N4    1.194887 T    
C12   C16   1.407361 A    
N10   O23   1.301304 A    
C1    C41   1.403811 S    
O8    Cu2   1.953701 S    
N8    O19   1.301280 A    
C27   H3    1.083290 S    
C11   N9    1.438187 S    
C23   C27   1.398851 A    
C7    O11   1.349702 S    
C13   C29   1.415161 A    
C19   C23   1.407586 A    
N7    O17   1.301278 A    
C15   N5    1.436678 S    
N12   O28   1.300992 A    
C24   C28   1.398851 A    
C28   C37   1.390962 A    
O6    C4    1.282606 A    
C25   H1    1.083290 S    
C26   H2    1.083289 S    
N7    O18   1.301052 A    
C32   C38   1.413184 A    
C4    C30   1.477961 S    
C10   C14   1.407359 A    
N11   O26   1.300990 A    
C8    N2    1.370184 A    
C3    C29   1.477961 S    
O1    Cu1   1.932128 S    
C32   C33   1.417929 A    
C28   H4    1.083289 S    
O6    Cu2   1.953697 S    
C19   C36   1.417542 A    
C8    O12   1.349704 S    
C16   C30   1.415161 A    
C14   C30   1.415161 A    
C25   C40   1.390962 A    
N6    O15   1.301055 A    
C26   C39   1.390963 A    
C37   H5    1.078173 S    
C13   N7    1.436672 S    
C10   N12   1.438190 S    
C39   H7    1.078173 S    
C40   H8    1.078173 S    
C31   C34   1.417926 A    
C20   C22   1.407586 A    
C20   C35   1.417542 A    
N12   O27   1.301308 A    
O4    C1    1.272053 A    
C31   C35   1.418354 A    
O4    Cu2   1.932128 S    
N5    O13   1.301066 A    
O2    Cu2   1.932127 S    
O7    C4    1.282606 A    
N2    C18   1.440660 S    
O8    C3    1.282606 A    
C14   N8    1.436675 S    
O5    Cu1   1.953700 S    
C41   C42   1.187446 T    
C15   C29   1.415162 A    
C9    C17   1.410811 A    
C32   C36   1.418353 A    
C6    C22   1.402963 A    
Cu1   N4    1.976181 S    
