data_str_m4_o4_o14_f0_acs.sym.142
_audit_creation_date              2012-12-11T15:43:02-0500
_audit_creation_method            fapswitch 2.2
_symmetry_space_group_name_H-M    P1
_symmetry_Int_Tables_number       1
_space_group_crystal_system       triclinic
_cell_length_a                    19.049194
_cell_length_b                    10.923199
_cell_length_c                    18.874708
_cell_angle_alpha                 89.99116
_cell_angle_beta                  90.247737
_cell_angle_gamma                 90.024064
_cell_volume                      3927.37696984

loop_
_atom_site_label
_atom_site_type_symbol
_atom_type_description
_atom_site_fract_x
_atom_site_fract_y
_atom_site_fract_z
_atom_type_partial_charge
C1    C     C_R   0.728925 0.375288 0.144971 0.550388
C2    C     C_R   0.271070 0.375300 0.855026 0.551199
C3    C     C_R   0.228925 0.875288 0.144971 0.550388
C4    C     C_R   0.771070 0.875300 0.855026 0.551199
C5    C     C_R   0.508711 0.391731 0.926813 -0.099169
C6    C     C_R   0.491282 0.391669 0.073160 -0.099212
C7    C     C_R   0.008710 0.891731 0.926813 -0.099169
C8    C     C_R   0.991282 0.891669 0.073160 -0.099212
C9    C     C_R   0.005189 0.002196 0.963623 -0.157158
C10   C     C_R   0.994790 0.002163 0.036352 -0.157199
C11   C     C_R   0.505189 0.502196 0.963623 -0.157158
C12   C     C_R   0.494790 0.502163 0.036352 -0.157199
C13   C     C_R   0.756028 0.914136 0.927003 0.014991
C14   C     C_R   0.243957 0.914116 0.072984 0.014961
C15   C     C_R   0.256028 0.414136 0.927003 0.014991
C16   C     C_R   0.743957 0.414116 0.072984 0.014961
C17   C     C_R   0.692797 0.889771 0.961695 0.011132
C18   C     C_R   0.307189 0.889846 0.038299 0.011717
C19   C     C_R   0.192797 0.389771 0.961695 0.011132
C20   C     C_R   0.807190 0.389846 0.038299 0.011717
C21   C     C_R   0.688777 0.897829 0.035072 0.042502
C22   C     C_R   0.311206 0.897899 0.964922 0.043615
C23   C     C_R   0.188777 0.397830 0.035072 0.042502
C24   C     C_R   0.811206 0.397899 0.964922 0.043615
C25   C     C_R   0.810753 0.954918 0.040604 -0.166564
C26   C     C_R   0.189226 0.954788 0.959376 -0.167076
C27   C     C_R   0.310753 0.454917 0.040604 -0.166564
C28   C     C_R   0.689226 0.454788 0.959376 -0.167076
C29   C     C_R   0.813485 0.955030 0.967690 -0.156108
C30   C     C_R   0.186494 0.954903 0.032289 -0.156184
C31   C     C_R   0.313485 0.455030 0.967690 -0.156108
C32   C     C_R   0.686494 0.454902 0.032289 -0.156184
C33   C     C_3   0.646819 0.779657 0.958782 -0.272355
C34   C     C_3   0.353171 0.779803 0.041231 -0.272250
C35   C     C_3   0.146819 0.279658 0.958782 -0.272354
C36   C     C_3   0.853171 0.279803 0.041231 -0.272250
C37   C     C_3   0.643113 0.786704 0.038880 -0.275643
C38   C     C_3   0.356874 0.786848 0.961132 -0.276245
C39   C     C_3   0.143112 0.286704 0.038880 -0.275643
C40   C     C_3   0.856874 0.286848 0.961132 -0.276246
C41   C     C_R   0.748715 0.924930 0.075631 0.014255
C42   C     C_R   0.251266 0.924899 0.924360 0.014141
C43   C     C_R   0.248715 0.424930 0.075631 0.014255
C44   C     C_R   0.751266 0.424899 0.924360 0.014141
C45   C     C_R   0.531220 0.155729 0.146727 0.543733
C46   C     C_R   0.468793 0.155747 0.853263 0.540667
C47   C     C_R   0.031220 0.655729 0.146727 0.543733
C48   C     C_R   0.968792 0.655747 0.853263 0.540667
C49   C     C_R   0.505053 0.162079 0.579377 0.001229
C50   C     C_R   0.523161 0.163802 0.431851 0.018910
C51   C     C_R   0.005053 0.662079 0.579377 0.001229
C52   C     C_R   0.023161 0.663802 0.431850 0.018910
C53   C     C_R   0.514419 0.052999 0.541543 0.027096
C54   C     C_R   0.522634 0.054530 0.469598 0.025240
C55   C     C_R   0.014419 0.552999 0.541543 0.027096
C56   C     C_R   0.022634 0.554530 0.469598 0.025240
C57   C     C_R   0.528389 0.273972 0.470578 -0.112282
C58   C     C_R   0.519028 0.273183 0.544507 -0.159420
C59   C     C_R   0.028389 0.773972 0.470578 -0.112281
C60   C     C_R   0.019028 0.773183 0.544507 -0.159420
C61   C     C_3   0.470225 0.939494 0.537419 -0.265593
C62   C     C_3   0.479924 0.941957 0.458021 -0.276765
C63   C     C_3   0.970225 0.439494 0.537419 -0.265593
C64   C     C_3   0.979924 0.441957 0.458021 -0.276765
C65   C     C_R   0.749929 0.933588 0.580457 0.011104
C66   C     C_R   0.238303 0.893435 0.429866 0.000255
C67   C     C_R   0.249929 0.433588 0.580457 0.011104
C68   C     C_R   0.738303 0.393434 0.429866 0.000255
C69   C     C_R   0.799909 0.001985 0.543066 -0.025451
C70   C     C_R   0.183328 0.947116 0.466780 -0.002276
C71   C     C_R   0.299909 0.501985 0.543066 -0.025451
C72   C     C_R   0.683328 0.447116 0.466780 -0.002278
C73   C     C_R   0.795688 0.012854 0.470887 0.027274
C74   C     C_R   0.184414 0.956439 0.539133 0.070978
C75   C     C_R   0.295688 0.512854 0.470887 0.027274
C76   C     C_R   0.684414 0.456439 0.539133 0.070990
C77   C     C_R   0.684935 0.907779 0.470567 -0.167840
C78   C     C_R   0.291999 0.840390 0.543149 -0.172554
C79   C     C_R   0.184935 0.407779 0.470567 -0.167840
C80   C     C_R   0.791998 0.340389 0.543149 -0.172556
C81   C     C_R   0.688359 0.897973 0.544709 -0.168352
C82   C     C_R   0.290255 0.830843 0.468973 -0.164199
C83   C     C_R   0.188359 0.397973 0.544709 -0.168352
C84   C     C_R   0.790255 0.330843 0.468973 -0.164199
C85   C     C_3   0.878686 0.993844 0.541043 -0.224604
C86   C     C_3   0.149845 0.068823 0.455717 -0.200657
C87   C     C_3   0.378686 0.493844 0.541043 -0.224604
C88   C     C_3   0.649845 0.568824 0.455716 -0.200660
C89   C     C_R   0.741051 0.968968 0.147579 0.546832
C90   C     C_R   0.258941 0.968971 0.852416 0.544501
C91   C     C_R   0.241051 0.468968 0.147579 0.546832
C92   C     C_R   0.758941 0.468971 0.852416 0.544501
C93   C     C_3   0.873425 0.006610 0.461174 0.106787
C94   C     C_3   0.150892 0.080846 0.535482 0.097354
C95   C     C_3   0.373425 0.506610 0.461174 0.106786
C96   C     C_3   0.650892 0.580847 0.535481 0.097356
C97   C     C_R   0.742304 0.956259 0.432723 0.021630
C98   C     C_R   0.242497 0.914383 0.577894 -0.007433
C99   C     C_R   0.242304 0.456259 0.432723 0.021630
C100  C     C_R   0.742497 0.414383 0.577894 -0.007433
C101  C     C_R   0.727850 0.373259 0.354617 0.545711
C102  C     C_R   0.269982 0.380457 0.648239 0.543884
C103  C     C_R   0.227850 0.873259 0.354617 0.545710
C104  C     C_R   0.769982 0.880457 0.648239 0.543884
C105  C     C_R   0.537188 0.156850 0.356335 0.560690
C106  C     C_R   0.468693 0.156793 0.647075 0.541707
C107  C     C_R   0.037188 0.656850 0.356334 0.560690
C108  C     C_R   0.968693 0.656793 0.647075 0.541707
C109  C     C_R   0.739270 0.978796 0.357114 0.569027
C110  C     C_R   0.257719 0.969992 0.646210 0.537888
C111  C     C_R   0.239270 0.478796 0.357114 0.569027
C112  C     C_R   0.757718 0.469992 0.646210 0.537890
C113  C     C_R   0.496906 0.164943 0.925639 0.000706
C114  C     C_R   0.503152 0.164905 0.074330 0.000696
C115  C     C_R   0.996906 0.664943 0.925639 0.000706
C116  C     C_R   0.003151 0.664905 0.074330 0.000696
C117  C     C_R   0.501437 0.278400 0.962423 0.031444
C118  C     C_R   0.498587 0.278375 0.037549 0.030585
C119  C     C_R   0.001437 0.778400 0.962423 0.031444
C120  C     C_R   0.998587 0.778375 0.037549 0.030585
C121  C     C_R   0.500649 0.055171 0.036261 -0.146300
C122  C     C_R   0.499482 0.055193 0.963699 -0.146220
C123  C     C_R   0.000649 0.555171 0.036261 -0.146300
C124  C     C_R   0.999481 0.555193 0.963699 -0.146220
Cr1   Cr    Cr6+3 0.772010 0.169670 0.250090 1.019206
Cr2   Cr    Cr6+3 0.227990 0.169670 0.749910 0.997744
Cr3   Cr    Cr6+3 0.272010 0.669670 0.250090 1.019206
Cr4   Cr    Cr6+3 0.727990 0.669670 0.749910 0.997743
Cr5   Cr    Cr6+3 0.615000 0.323260 0.249260 1.020002
Cr6   Cr    Cr6+3 0.385000 0.323260 0.750740 1.005398
Cr7   Cr    Cr6+3 0.115000 0.823260 0.249260 1.020001
Cr8   Cr    Cr6+3 0.885000 0.823260 0.750740 1.005396
Cr9   Cr    Cr6+3 0.616710 0.010760 0.250840 1.013014
Cr10  Cr    Cr6+3 0.383290 0.010760 0.749160 1.010990
Cr11  Cr    Cr6+3 0.116710 0.510760 0.250840 1.013014
Cr12  Cr    Cr6+3 0.883290 0.510760 0.749160 1.010991
H1    H     H_    0.502708 0.967110 0.062481 0.132017
H2    H     H_    0.497471 0.967146 0.937470 0.131884
H3    H     H_    0.002708 0.467110 0.062481 0.132017
H4    H     H_    0.997471 0.467146 0.937470 0.131884
H5    H     H_    0.536361 0.360318 0.443739 0.184483
H6    H     H_    0.517293 0.359016 0.573006 0.172880
H7    H     H_    0.036361 0.860318 0.443739 0.184484
H8    H     H_    0.017292 0.859016 0.573006 0.172877
H9    H     H_    0.915218 0.457266 0.553117 0.164426
H10   H     H_    0.011620 0.364031 0.438016 0.144708
H11   H     H_    0.415218 0.957266 0.553117 0.164426
H12   H     H_    0.511620 0.864031 0.438016 0.144707
H13   H     H_    0.495723 0.859572 0.563386 0.150724
H14   H     H_    0.430514 0.960224 0.428241 0.139792
H15   H     H_    0.995723 0.359573 0.563386 0.150727
H16   H     H_    0.930514 0.460224 0.428241 0.139792
H17   H     H_    0.639095 0.873461 0.443014 0.140739
H18   H     H_    0.334979 0.798997 0.572212 0.126654
H19   H     H_    0.139096 0.373461 0.443014 0.140739
H20   H     H_    0.834979 0.298996 0.572212 0.126654
H21   H     H_    0.646071 0.853197 0.572769 0.137147
H22   H     H_    0.330410 0.778434 0.442381 0.126251
H23   H     H_    0.146071 0.353197 0.572769 0.137152
H24   H     H_    0.830410 0.278434 0.442381 0.126252
H25   H     H_    0.898219 0.903224 0.558609 0.169049
H26   H     H_    0.096303 0.061271 0.432450 0.173951
H27   H     H_    0.398219 0.403224 0.558609 0.169049
H28   H     H_    0.596303 0.561271 0.432451 0.173951
H29   H     H_    0.904268 0.073786 0.566901 0.125714
H30   H     H_    0.185199 0.134878 0.428685 0.094209
H31   H     H_    0.404268 0.573786 0.566901 0.125713
H32   H     H_    0.685199 0.634877 0.428684 0.094209
H33   H     H_    0.896659 0.092525 0.440281 0.153538
H34   H     H_    0.185303 0.155564 0.555018 0.140519
H35   H     H_    0.396659 0.592525 0.440281 0.153538
H36   H     H_    0.685305 0.655564 0.555017 0.140511
H37   H     H_    0.519687 0.396688 0.870791 0.132242
H38   H     H_    0.480303 0.396570 0.129181 0.137122
H39   H     H_    0.019688 0.896688 0.870791 0.132241
H40   H     H_    0.980303 0.896570 0.129181 0.137122
H41   H     H_    0.010087 0.088127 0.935485 0.106241
H42   H     H_    0.989878 0.088068 0.064490 0.107272
H43   H     H_    0.510087 0.588127 0.935485 0.106241
H44   H     H_    0.489877 0.588068 0.064490 0.107272
H45   H     H_    0.856728 0.983893 0.069743 0.143361
H46   H     H_    0.143254 0.983698 0.930229 0.142510
H47   H     H_    0.356728 0.483892 0.069744 0.143361
H48   H     H_    0.643254 0.483698 0.930229 0.142510
H49   H     H_    0.863126 0.978597 0.943843 0.163940
H50   H     H_    0.136851 0.978390 0.056128 0.163809
H51   H     H_    0.363126 0.478597 0.943843 0.163940
H52   H     H_    0.636851 0.478389 0.056128 0.163809
H53   H     H_    0.175042 0.197842 0.939352 0.174865
H54   H     H_    0.824949 0.197948 0.060679 0.174041
H55   H     H_    0.675043 0.697842 0.939352 0.174865
H56   H     H_    0.324949 0.697948 0.060679 0.174041
H57   H     H_    0.595791 0.798692 0.932241 0.121565
H58   H     H_    0.404200 0.798916 0.067766 0.122333
H59   H     H_    0.095791 0.298693 0.932240 0.121565
H60   H     H_    0.904200 0.298916 0.067766 0.122333
H61   H     H_    0.589685 0.807903 0.058667 0.131013
H62   H     H_    0.410299 0.808133 0.941337 0.130991
H63   H     H_    0.089685 0.307904 0.058667 0.131013
H64   H     H_    0.910299 0.308133 0.941337 0.130991
H65   H     H_    0.669445 0.709024 0.066170 0.140365
H66   H     H_    0.330542 0.709129 0.933857 0.139645
H67   H     H_    0.169445 0.209025 0.066170 0.140364
H68   H     H_    0.830542 0.209129 0.933857 0.139645
O1    O     O_R   0.787520 0.042810 0.170440 -0.533343
O2    O     O_R   0.212480 0.042810 0.829560 -0.536970
O3    O     O_R   0.287520 0.542810 0.170440 -0.533343
O4    O     O_R   0.712480 0.542810 0.829560 -0.536969
O5    O     O_R   0.556610 0.252880 0.323980 -0.497029
O6    O     O_R   0.443390 0.252880 0.676020 -0.512616
O7    O     O_R   0.056610 0.752880 0.323980 -0.497030
O8    O     O_R   0.943390 0.752880 0.676020 -0.512617
O9    O     O_R   0.545950 0.051210 0.330860 -0.524023
O10   O     O_R   0.454050 0.051210 0.669140 -0.521450
O11   O     O_R   0.045950 0.551210 0.330860 -0.524023
O12   O     O_R   0.954050 0.551210 0.669140 -0.521449
O13   O     O_R   0.681390 0.959480 0.325510 -0.519358
O14   O     O_R   0.318610 0.959480 0.674490 -0.508569
O15   O     O_R   0.181390 0.459480 0.325510 -0.519358
O16   O     O_R   0.818610 0.459480 0.674490 -0.508570
O17   O     O_3   0.667900 0.167900 0.250060 -0.254905
O18   O     O_3   0.332100 0.167900 0.749940 -0.241153
O19   O     O_3   0.167900 0.667900 0.250060 -0.254905
O20   O     O_3   0.832100 0.667900 0.749940 -0.241153
O21   O     O_R   0.765640 0.292100 0.175020 -0.501991
O22   O     O_R   0.234360 0.292100 0.824980 -0.501126
O23   O     O_R   0.265640 0.792100 0.175020 -0.501991
O24   O     O_R   0.734360 0.792100 0.824980 -0.501126
O25   O     O_R   0.670190 0.408840 0.168540 -0.529098
O26   O     O_R   0.329810 0.408840 0.831460 -0.528863
O27   O     O_R   0.170190 0.908840 0.168540 -0.529098
O28   O     O_R   0.829810 0.908840 0.831460 -0.528863
O29   O     O_R   0.556620 0.251410 0.175160 -0.507151
O30   O     O_R   0.443380 0.251410 0.824840 -0.509094
O31   O     O_R   0.056620 0.751410 0.175160 -0.507151
O32   O     O_R   0.943380 0.751410 0.824840 -0.509094
O33   O     O_R   0.545960 0.049620 0.170320 -0.522090
O34   O     O_R   0.454040 0.049620 0.829680 -0.522466
O35   O     O_R   0.045960 0.549620 0.170320 -0.522090
O36   O     O_R   0.954040 0.549620 0.829680 -0.522466
O37   O     O_R   0.681390 0.958010 0.176690 -0.495185
O38   O     O_R   0.318610 0.958010 0.823310 -0.494465
O39   O     O_R   0.181390 0.458010 0.176690 -0.495185
O40   O     O_R   0.818610 0.458010 0.823310 -0.494465
O41   O     O_R   0.787510 0.044390 0.330970 -0.489912
O42   O     O_R   0.212490 0.044390 0.669030 -0.533225
O43   O     O_R   0.287510 0.544390 0.330970 -0.489912
O44   O     O_R   0.712490 0.544390 0.669030 -0.533219
O45   O     O_R   0.765630 0.293570 0.323840 -0.510683
O46   O     O_R   0.234370 0.293570 0.676160 -0.513296
O47   O     O_R   0.265630 0.793570 0.323840 -0.510683
O48   O     O_R   0.734370 0.793570 0.676160 -0.513298
O49   O     O_R   0.670190 0.410420 0.329080 -0.522014
O50   O     O_R   0.329810 0.410420 0.670920 -0.522470
O51   O     O_R   0.170190 0.910420 0.329080 -0.522014
O52   O     O_R   0.829810 0.910420 0.670920 -0.522470
O53   O     O_3   0.895321 0.902049 0.423575 -0.699720
H69   H     H_    0.872338 0.828649 0.444251 0.324505
O54   O     O_3   0.082911 0.080790 0.563614 -0.734912
H70   H     H_    0.088151 0.099898 0.614713 0.336594
O55   O     O_3   0.395321 0.402048 0.423575 -0.699720
H71   H     H_    0.372338 0.328649 0.444251 0.324506
O56   O     O_3   0.582912 0.580792 0.563615 -0.734908
H72   H     H_    0.588152 0.599921 0.614711 0.336591

loop_
_geom_bond_atom_site_label_1
_geom_bond_atom_site_label_2
_ccdc_geom_bond_type
C25   C41   A    
C87   H27   S    
C55   C56   A    
C88   C96   S    
C67   C83   A    
C98   C110  S    
C116  C123  A    
C39   H67   S    
Cr2   O42   S    
C103  O51   A    
C14   C18   A    
C101  O49   A    
C86   H30   S    
C73   C93   S    
C72   C76   A    
C7    H39   S    
Cr4   O20   S    
C84   H24   S    
C75   C95   S    
O56   H72   S    
C74   C98   A    
C22   C42   A    
C53   C54   A    
C65   C69   A    
C15   C19   A    
Cr8   O8    S    
C93   H33   S    
Cr4   O48   S    
C17   C33   S    
C64   H16   S    
C59   H7    S    
C36   H54   S    
C30   H50   S    
C13   C29   A    
C65   C104  S    
C45   O29   A    
Cr2   O46   S    
C5    C11   A    
Cr7   O19   S    
C6    C12   A    
O55   H71   S    
C82   H22   S    
Cr7   O51   S    
C107  O7    A    
Cr6   O26   S    
C11   H43   S    
C121  H1    S    
Cr11  O19   S    
C106  O6    A    
Cr5   O25   S    
Cr2   O18   S    
C105  O5    A    
Cr6   O30   S    
C112  O44   A    
O53   H69   S    
Cr11  O39   S    
C4    C13   S    
Cr3   O3    S    
C85   H25   S    
Cr10  O38   S    
C86   C94   S    
Cr9   O37   S    
C79   C99   A    
C114  C121  A    
C85   C93   S    
C45   C114  S    
C89   O1    A    
C113  C122  A    
C40   H68   S    
C52   C107  S    
C29   H49   S    
C51   C108  S    
C88   H32   S    
C55   C63   S    
C70   C74   A    
C50   C105  S    
Cr9   O17   S    
C58   H6    S    
C56   C64   S    
C69   C73   A    
C99   C111  S    
C86   H26   S    
C37   H61   S    
C9    C10   A    
C67   C102  S    
Cr7   O27   S    
Cr3   O47   S    
C44   C92   S    
C16   C20   A    
C123  C124  A    
C77   H17   S    
C34   H58   S    
C46   O34   A    
C72   C88   S    
C109  O41   A    
C59   C60   A    
C35   H53   S    
C62   H12   S    
C80   C100  A    
Cr3   O23   S    
Cr10  O34   S    
Cr8   O20   S    
Cr2   O22   S    
Cr9   O33   S    
C14   C30   A    
C111  O15   A    
Cr1   O21   S    
Cr8   O28   S    
C75   C99   A    
C34   C38   S    
C108  O8    A    
Cr1   O1    S    
C25   H45   S    
C80   H20   S    
C47   O31   A    
C38   H66   S    
C25   C29   A    
C47   C116  S    
C106  O10   A    
Cr11  O11   S    
C71   C75   A    
C105  O9    A    
C32   H52   S    
C27   C31   A    
C80   C84   A    
C10   H42   S    
C20   C24   A    
C76   C100  A    
C28   C32   A    
Cr6   O18   S    
C81   H21   S    
C68   C101  S    
C122  H2    S    
Cr5   O17   S    
Cr3   O19   S    
C3    O27   A    
Cr12  O40   S    
C78   H18   S    
C20   C36   S    
C6    H38   S    
C51   C55   A    
Cr10  O18   S    
C42   C90   S    
Cr10  O14   S    
C79   H19   S    
C15   C31   A    
C28   C44   A    
C43   C91   S    
C49   C58   A    
C116  C120  A    
Cr5   O29   S    
C68   C72   A    
C102  O50   A    
C68   C84   A    
C19   C23   A    
C17   C21   A    
C36   H60   S    
C78   C98   A    
C92   O4    A    
C52   C59   A    
C7    C119  A    
C66   C82   A    
C97   C109  S    
C78   C82   A    
C65   C81   A    
C94   O54   S    
Cr12  O20   S    
C36   C40   S    
Cr4   O24   S    
Cr3   O43   S    
Cr11  O15   S    
C46   O30   A    
C38   H62   S    
C112  O16   A    
Cr1   O17   S    
C83   H23   S    
C1    C16   S    
C108  O12   A    
C77   C97   A    
C2    C15   S    
C18   C34   S    
C63   H15   S    
C121  C122  A    
C114  C118  A    
Cr4   O44   S    
C40   H64   S    
C4    O28   A    
C48   C115  S    
C21   C41   A    
C26   H46   S    
C45   O33   A    
C8    C10   A    
C103  O47   A    
C12   H44   S    
Cr5   O49   S    
C73   C97   A    
C96   O56   S    
C115  C119  A    
C94   H34   S    
C90   O38   A    
C102  O46   A    
Cr7   O7    S    
C24   C44   A    
C123  H3    S    
C89   O37   A    
Cr6   O6    S    
C3    C14   S    
Cr8   O52   S    
Cr5   O5    S    
O54   H70   S    
C70   C86   S    
C3    O23   A    
C9    H41   S    
C8    C120  A    
C33   C37   S    
C113  C117  A    
C1    O21   A    
C104  O48   A    
C7    C9    A    
C27   C43   A    
C39   H63   S    
C87   C95   S    
C24   C40   S    
C115  C124  A    
C62   H14   S    
C46   C113  S    
C64   H10   S    
C41   C89   S    
C18   C22   A    
C50   C57   A    
C5    H37   S    
C66   C103  S    
C69   C85   S    
C101  O45   A    
C124  H4    S    
C90   O2    A    
C91   O39   A    
C63   C64   S    
Cr6   O50   S    
C107  O11   A    
Cr10  O10   S    
C91   O3    A    
C119  C120  A    
C8    H40   S    
C100  C112  S    
C49   C106  S    
Cr12  O16   S    
C35   H59   S    
C16   C32   A    
C87   H31   S    
C54   C62   S    
C48   O36   A    
C93   O53   S    
C104  O52   A    
C57   H5    S    
C33   H55   S    
C85   H29   S    
Cr12  O36   S    
C61   H11   S    
Cr9   O9    S    
Cr7   O31   S    
C50   C54   A    
C88   H28   S    
C117  C118  A    
C60   H8    S    
C79   C83   A    
C92   O40   A    
C110  O42   A    
C57   C58   A    
C66   C70   A    
C61   H13   S    
Cr1   O45   S    
Cr2   O2    S    
C23   C39   S    
C35   C39   S    
C34   H56   S    
C48   O32   A    
C47   O35   A    
Cr11  O35   S    
C67   C71   A    
C53   C61   S    
C4    O24   A    
C26   C42   A    
C28   H48   S    
C61   C62   S    
C110  O14   A    
C27   H47   S    
C49   C53   A    
C109  O13   A    
C2    O26   A    
C33   H57   S    
C13   C17   A    
Cr8   O32   S    
C1    O25   A    
C95   O55   S    
C21   C37   S    
C2    O22   A    
C111  O43   A    
C77   C81   A    
C96   H36   S    
C5    C117  A    
C74   C94   S    
C37   H65   S    
C71   C87   S    
C19   C35   S    
C51   C60   A    
Cr4   O4    S    
Cr1   O41   S    
C31   H51   S    
C23   C43   A    
C95   H35   S    
C63   H9    S    
C76   C96   S    
C52   C56   A    
C11   C12   A    
C6    C118  A    
Cr9   O13   S    
Cr12  O12   S    
C26   C30   A    
C22   C38   S    
