data_str_m3_o10_o25_f0_pcu.sym.51
_audit_creation_date              2012-12-10T16:56:34-0500
_audit_creation_method            fapswitch 2.2
_symmetry_space_group_name_H-M    P1
_symmetry_Int_Tables_number       1
_space_group_crystal_system       triclinic
_cell_length_a                    7.85706
_cell_length_b                    8.560124
_cell_length_c                    15.680303
_cell_angle_alpha                 92.160541
_cell_angle_beta                  84.378093
_cell_angle_gamma                 93.557107
_cell_volume                      1046.99087714

loop_
_atom_site_label
_atom_site_type_symbol
_atom_type_description
_atom_site_fract_x
_atom_site_fract_y
_atom_site_fract_z
_atom_type_partial_charge
C1    C     C_R   0.545357 0.794379 0.498027 0.954916
C2    C     C_3   0.420123 0.362272 0.029886 -0.256934
C3    C     C_1   0.498617 0.498049 0.750666 -0.149757
C4    C     C_1   0.501427 0.497964 0.249023 -0.112770
C5    C     C_3   0.339290 0.487683 0.980320 -0.350530
C6    C     C_3   0.669999 0.498810 0.019242 -0.351780
C7    C     C_3   0.501277 0.493314 0.916544 0.059621
C8    C     C_3   0.507241 0.494229 0.082315 0.073406
C9    C     C_1   0.498548 0.495623 0.825938 -0.047825
C10   C     C_1   0.504378 0.496198 0.173449 0.025117
C11   C     C_3   0.244192 0.820521 0.027582 0.067375
C12   C     C_R   0.454632 0.205640 0.502298 0.951008
C13   C     C_3   0.340866 0.919574 0.956765 -0.342654
C14   C     C_3   0.221308 0.022379 0.916060 -0.940747
C15   C     C_3   0.821329 0.243246 0.902319 0.045948
C16   C     C_3   0.865310 0.329479 0.818261 -0.337660
C17   C     C_3   0.048970 0.306564 0.780841 -0.892723
C18   C     C_2   0.016540 0.323981 0.434037 1.110958
C19   C     C_2   0.982665 0.673811 0.567962 1.107204
C20   C     C_R   0.499810 0.500167 0.661795 0.903875
C21   C     C_R   0.500146 0.499483 0.338131 0.900748
C22   C     C_2   0.569099 0.957917 0.496669 -0.360528
C23   C     C_2   0.430855 0.042139 0.504200 -0.361492
C24   C     C_3   0.428825 0.617920 0.033243 0.613878
C25   C     C_3   0.580879 0.369675 0.964986 0.605037
C26   C     C_3   0.590317 0.625204 0.969229 -0.314785
H1    H     H_    0.659434 0.732250 0.942525 0.162229
H2    H     H_    0.400779 0.842200 0.905515 0.219238
H3    H     H_    0.122148 0.948325 0.885121 0.259790
H4    H     H_    0.296396 0.094457 0.866529 0.290970
H5    H     H_    0.157769 0.102077 0.965064 0.251215
H6    H     H_    0.863477 0.121931 0.892350 0.183169
H7    H     H_    0.894175 0.296866 0.954357 0.122507
H8    H     H_    0.777157 0.284522 0.770509 0.249386
H9    H     H_    0.849800 0.456756 0.830121 0.229415
H10   H     H_    0.140420 0.349224 0.827281 0.258126
H11   H     H_    0.076679 0.373572 0.721349 0.298936
H12   H     H_    0.354227 0.254853 0.057737 0.168933
H13   H     H_    0.066717 0.180838 0.764602 0.262506
H14   H     H_    0.045094 0.092205 0.436136 0.342691
H15   H     H_    0.951934 0.905590 0.569170 0.337364
H16   H     H_    0.802290 0.506102 0.038861 0.155301
H17   H     H_    0.205687 0.479859 0.962590 0.145124
H18   H     H_    0.699766 0.008428 0.489103 0.222483
H19   H     H_    0.300174 0.991620 0.511844 0.221376
H20   H     H_    0.167380 0.899258 0.071896 0.183738
H21   H     H_    0.150141 0.734541 0.000734 0.125366
H22   H     H_    0.443125 0.994761 0.984458 0.268737
N1    N     N_2   0.950320 0.457950 0.477300 -0.187233
N2    N     N_2   0.049680 0.542050 0.522700 -0.191819
O1    O     O_R   0.389250 0.738570 0.505570 -0.615395
O2    O     O_3   0.642685 0.230377 0.925264 -0.663370
O3    O     O_2   0.072861 0.330526 0.358752 -0.641191
O4    O     O_R   0.000183 0.180993 0.474884 -0.827468
O5    O     O_2   0.928563 0.663914 0.643419 -0.663368
O6    O     O_R   0.996875 0.818647 0.529054 -0.820603
O7    O     O_R   0.610750 0.261430 0.494430 -0.617380
O8    O     O_R   0.678390 0.711630 0.491020 -0.616426
O9    O     O_R   0.321610 0.288370 0.508980 -0.622359
O10   O     O_R   0.355460 0.513480 0.630490 -0.636685
O11   O     O_R   0.644540 0.486520 0.369510 -0.623450
O12   O     O_R   0.644600 0.486540 0.615950 -0.601208
O13   O     O_R   0.355400 0.513460 0.384050 -0.590506
O14   O     O_3   0.357744 0.749729 0.077022 -0.639960
Zn1   Zn    Zn3+2 0.306940 0.517990 0.509710 0.996872
Zn2   Zn    Zn3+2 0.693060 0.482010 0.490290 1.004045

loop_
_geom_bond_atom_site_label_1
_geom_bond_atom_site_label_2
_ccdc_geom_bond_type
C19   O6    S    
C13   H22   S    
O13   Zn1   S    
C13   H2    S    
C3    C9    T    
C17   H10   S    
C20   O10   A    
C11   C13   S    
C2    H12   S    
C11   H21   S    
C7    C25   S    
C14   H5    S    
C5    H17   S    
C25   O2    S    
C5    C7    S    
C1    C22   S    
H15   O6    S    
O7    Zn2   S    
C17   H11   S    
C15   O2    S    
O9    Zn1   S    
C4    C21   S    
C1    O1    A    
C12   C23   S    
C26   H1    S    
C6    C26   S    
C5    C24   S    
C7    C26   S    
C14   H4    S    
C23   H19   S    
C12   O7    A    
C8    C10   S    
C17   H13   S    
C8    C24   S    
C24   C26   S    
O10   Zn1   S    
C11   O14   S    
C2    C25   S    
H14   O4    S    
C16   H9    S    
C20   O12   A    
N2    Zn1   S    
C2    C8    S    
C21   O13   A    
C2    C5    S    
O1    Zn1   S    
N1    Zn2   S    
C18   O4    S    
C14   H3    S    
C4    C10   T    
C15   C16   S    
C6    C25   S    
C19   N2    S    
C3    C20   S    
C1    O8    A    
C24   O14   S    
N1    N2    D    
C6    H16   S    
C19   O5    D    
C7    C9    S    
O12   Zn2   S    
C22   C23   D    
C11   H20   S    
C6    C8    S    
C18   O3    D    
C16   H8    S    
C13   C14   S    
C12   O9    A    
C21   O11   A    
O11   Zn2   S    
O8    Zn2   S    
C22   H18   S    
C18   N1    S    
C15   H7    S    
C16   C17   S    
C15   H6    S    
