data_str_m9_o2_o18_f0_sra.sym.74
_audit_creation_date              2012-12-11T16:27:32-0500
_audit_creation_method            fapswitch 2.2
_symmetry_space_group_name_H-M    P1
_symmetry_Int_Tables_number       1
_space_group_crystal_system       triclinic
_cell_length_a                    21.737973
_cell_length_b                    6.91159
_cell_length_c                    14.685379
_cell_angle_alpha                 89.999979
_cell_angle_beta                  104.603075
_cell_angle_gamma                 90.0
_cell_volume                      2135.11345092

loop_
_atom_site_label
_atom_site_type_symbol
_atom_type_description
_atom_site_fract_x
_atom_site_fract_y
_atom_site_fract_z
_atom_type_partial_charge
O1    O     O_R   0.835850 0.638310 0.002120 -0.533717
O2    O     O_R   0.164150 0.361690 0.997880 -0.533714
O3    O     O_R   0.664150 0.138310 0.997880 -0.533717
O4    O     O_R   0.335850 0.861690 0.002120 -0.533717
O5    O     O_R   0.717530 0.306070 0.861970 -0.493762
O6    O     O_R   0.282470 0.693930 0.138030 -0.493763
O7    O     O_R   0.782470 0.806070 0.138030 -0.493763
O8    O     O_R   0.217530 0.193930 0.861970 -0.493765
C1    C     C_R   0.703144 0.478086 0.824642 0.819050
C2    C     C_R   0.296856 0.521914 0.175358 0.819050
C3    C     C_R   0.796856 0.978086 0.175358 0.819047
C4    C     C_R   0.203143 0.021914 0.824642 0.819060
O9    O     O_R   0.838690 0.308440 0.993250 -0.534308
O10   O     O_R   0.161310 0.691560 0.006750 -0.534308
O11   O     O_R   0.661310 0.808440 0.006750 -0.534308
O12   O     O_R   0.338690 0.191560 0.993250 -0.534307
O13   O     O_R   0.786170 0.140510 0.130090 -0.563912
O14   O     O_R   0.213830 0.859490 0.869910 -0.563913
O15   O     O_R   0.713830 0.640510 0.869910 -0.563912
O16   O     O_R   0.286170 0.359490 0.130090 -0.563913
C5    C     C_R   0.864871 0.476126 0.994585 0.791177
C6    C     C_R   0.135129 0.523874 0.005415 0.791178
C7    C     C_R   0.635129 0.976126 0.005415 0.791176
C8    C     C_R   0.364871 0.023874 0.994586 0.791175
O17   O     O_3   0.732630 0.472520 0.044740 -0.371013
O18   O     O_3   0.267370 0.527480 0.955260 -0.371014
O19   O     O_3   0.767370 0.972520 0.955260 -0.371013
O20   O     O_3   0.232630 0.027480 0.044740 -0.371012
V1    V     V_3+5 0.753220 0.196740 0.991700 1.580978
V2    V     V_3+5 0.246780 0.803260 0.008300 1.580979
V3    V     V_3+5 0.746780 0.696740 0.008300 1.580978
V4    V     V_3+5 0.253220 0.303260 0.991700 1.580980
H1    H     H_    0.599685 0.097800 0.325952 0.151598
H2    H     H_    0.400315 0.902205 0.674048 0.151596
H3    H     H_    0.900317 0.597788 0.674046 0.151600
H4    H     H_    0.099684 0.402200 0.325952 0.151601
C9    C     C_R   0.538423 0.865178 0.841079 -0.066153
C10   C     C_R   0.461577 0.134821 0.158921 -0.066152
C11   C     C_R   0.961577 0.365178 0.158920 -0.066152
C12   C     C_R   0.038424 0.634813 0.841078 -0.066139
C13   C     C_R   0.494535 0.842393 0.754890 -0.114857
C14   C     C_R   0.505465 0.157607 0.245110 -0.114858
C15   C     C_R   0.005464 0.342393 0.245110 -0.114861
C16   C     C_R   0.994537 0.657594 0.754888 -0.114858
C17   C     C_R   0.432410 0.903576 0.743717 -0.120960
C18   C     C_R   0.567589 0.096427 0.256284 -0.120961
C19   C     C_R   0.067589 0.403572 0.256283 -0.120954
C20   C     C_R   0.932412 0.596417 0.743715 -0.120954
C21   C     C_R   0.412464 0.977165 0.820088 0.330072
C22   C     C_R   0.587536 0.022839 0.179912 0.330074
C23   C     C_R   0.087536 0.477160 0.179912 0.330074
C24   C     C_R   0.912464 0.522835 0.820087 0.330077
C25   C     C_R   0.454287 0.977484 0.912090 0.008959
C26   C     C_R   0.545713 0.022518 0.087910 0.008958
C27   C     C_R   0.045713 0.477482 0.087910 0.008956
C28   C     C_R   0.954287 0.522516 0.912089 0.008957
C29   C     C_R   0.520008 0.939286 0.920116 0.019588
C30   C     C_R   0.479992 0.060713 0.079884 0.019588
C31   C     C_R   0.979992 0.439286 0.079883 0.019589
C32   C     C_R   0.020008 0.560710 0.920115 0.019595
C33   C     C_R   0.433781 0.023207 0.994443 -0.139714
C34   C     C_R   0.566219 0.976793 0.005557 -0.139715
C35   C     C_R   0.066219 0.523206 0.005557 -0.139711
C36   C     C_R   0.933781 0.476793 0.994442 -0.139716
H5    H     H_    0.587034 0.825652 0.844309 0.129399
H6    H     H_    0.412966 0.174345 0.155691 0.129399
H7    H     H_    0.912965 0.325653 0.155690 0.129400
H8    H     H_    0.087035 0.674335 0.844308 0.129395
H9    H     H_    0.509879 0.788919 0.694961 0.146463
H10   H     H_    0.490121 0.211081 0.305039 0.146463
H11   H     H_    0.990120 0.288921 0.305039 0.146463
H12   H     H_    0.009881 0.711061 0.694959 0.146460
C37   C     C_R   0.175051 0.001798 0.722568 -0.076258
C38   C     C_R   0.824946 0.998203 0.277433 -0.076260
C39   C     C_R   0.324947 0.501796 0.277433 -0.076257
C40   C     C_R   0.675053 0.498204 0.722567 -0.076258
C41   C     C_R   0.178995 0.845829 0.576710 -0.153780
C42   C     C_R   0.821002 0.154190 0.423288 -0.153769
C43   C     C_R   0.321006 0.345795 0.423285 -0.153768
C44   C     C_R   0.678994 0.654206 0.576715 -0.153769
C45   C     C_R   0.206124 0.883107 0.671085 -0.151021
C46   C     C_R   0.793875 0.116913 0.328912 -0.150997
C47   C     C_R   0.293877 0.383082 0.328911 -0.151004
C48   C     C_R   0.706123 0.616919 0.671089 -0.151003
C49   C     C_R   0.113607 0.071895 0.680039 0.262112
C50   C     C_R   0.886387 0.928089 0.319967 0.262103
C51   C     C_R   0.386388 0.571909 0.319966 0.262111
C52   C     C_R   0.613612 0.428090 0.680034 0.262110
C53   C     C_R   0.080362 0.002327 0.589018 0.017647
C54   C     C_R   0.919632 0.997662 0.410987 0.017645
C55   C     C_R   0.419635 0.502331 0.410985 0.017642
C56   C     C_R   0.580365 0.497669 0.589015 0.017642
C57   C     C_R   0.116731 0.904983 0.535211 0.086638
C58   C     C_R   0.883264 0.095020 0.464790 0.086640
C59   C     C_R   0.383268 0.404963 0.464787 0.086638
C60   C     C_R   0.616732 0.595038 0.535213 0.086639
C61   C     C_R   0.013313 0.024221 0.548475 0.064539
C62   C     C_R   0.986681 0.975764 0.451530 0.064547
C63   C     C_R   0.486683 0.524234 0.451528 0.064541
C64   C     C_R   0.513317 0.475766 0.548472 0.064541
C65   C     C_R   0.028639 0.918434 0.397516 -0.132998
C66   C     C_R   0.971353 0.081553 0.602488 -0.132996
C67   C     C_R   0.471359 0.418416 0.602484 -0.132995
C68   C     C_R   0.528641 0.581584 0.397516 -0.132995
C69   C     C_R   0.091294 0.871512 0.439615 -0.173574
C70   C     C_R   0.908700 0.128488 0.560387 -0.173572
C71   C     C_R   0.408706 0.371482 0.560382 -0.173569
C72   C     C_R   0.591295 0.628519 0.439617 -0.173570
H13   H     H_    0.120642 0.813504 0.396340 0.170219
H14   H     H_    0.879352 0.186502 0.603660 0.170220
H15   H     H_    0.379359 0.313456 0.603655 0.170218
H16   H     H_    0.620641 0.686545 0.396345 0.170218
H17   H     H_    0.205956 0.764403 0.536863 0.141971
H18   H     H_    0.794041 0.235631 0.463132 0.141967
H19   H     H_    0.294047 0.264348 0.463128 0.141967
H20   H     H_    0.705953 0.735654 0.536872 0.141968
H21   H     H_    0.014589 0.912343 0.321912 0.193614
H22   H     H_    0.985401 0.087637 0.678090 0.193624
H23   H     H_    0.485408 0.412320 0.678087 0.193620
H24   H     H_    0.514593 0.587681 0.321913 0.193621
Cl1   Cl    Cl    0.341294 0.109302 0.790204 -0.741847
Cl2   Cl    Cl    0.658708 0.890706 0.209797 -0.741846
Cl3   Cl    Cl    0.158708 0.609289 0.209797 -0.741846
Cl4   Cl    Cl    0.841291 0.390710 0.790203 -0.741847
Cl5   Cl    Cl    0.913275 0.730063 0.264518 -0.719480
Cl6   Cl    Cl    0.086717 0.269888 0.735499 -0.719498
Cl7   Cl    Cl    0.586726 0.230068 0.735483 -0.719487
Cl8   Cl    Cl    0.413274 0.769930 0.264516 -0.719489
H25   H     H_    0.747632 0.177656 0.296438 0.173300
H26   H     H_    0.252369 0.822377 0.703556 0.173304
H27   H     H_    0.752366 0.677661 0.703563 0.173301
H28   H     H_    0.247634 0.322340 0.296437 0.173301

loop_
_geom_bond_atom_site_label_1
_geom_bond_atom_site_label_2
_ccdc_geom_bond_type
O17   V3    S    
C16   C20   A    
O1    C5    A    
C8    C33   S    
C12   C32   A    
C27   C31   A    
O19   V1    S    
C23   Cl3   S    
O3    C7    A    
C22   Cl2   S    
C56   C60   A    
C44   C48   A    
O15   V3    S    
C40   C48   A    
C61   C62   A    
C29   C34   A    
O7    C3    A    
C10   H6    S    
C31   C36   A    
C22   C26   A    
C32   C35   A    
O9    V1    S    
O10   V2    S    
C10   C14   A    
C52   Cl7   S    
C43   H19   S    
C9    C13   A    
C26   C30   A    
O4    C8    A    
O1    V3    S    
O13   V1    S    
H4    C19   S    
O2    V4    S    
C14   C18   A    
O3    V1    S    
C53   C61   A    
C5    C36   S    
C57   C69   A    
C6    C35   S    
C10   C30   A    
C25   C33   A    
C1    O15   A    
C7    C34   S    
C58   C70   A    
C44   H20   S    
C2    O16   A    
C27   C35   A    
O2    C6    A    
C28   C36   A    
C66   C70   A    
O14   V2    S    
C1    C40   S    
C17   C21   A    
C44   C60   A    
C40   C52   A    
C61   C66   A    
C66   H22   S    
C30   C33   A    
O11   C7    A    
C63   C68   A    
C60   C72   A    
C11   C31   A    
O12   C8    A    
C4    C37   S    
C50   Cl5   S    
O17   V1    S    
H1    C18   S    
C49   Cl6   S    
C42   H18   S    
C71   H15   S    
C38   C46   A    
C41   H17   S    
H3    C20   S    
C37   C45   A    
C51   Cl8   S    
C54   C58   A    
O5    V1    S    
C65   C69   A    
O7    V3    S    
C51   C55   A    
O19   V3    S    
O8    V4    S    
C52   C56   A    
O20   V4    S    
C50   C54   A    
C25   C29   A    
O18   V4    S    
C19   C23   A    
C26   C34   A    
C64   C67   A    
C72   H16   S    
C9    H5    S    
C14   H10   S    
C43   C59   A    
C2    C39   S    
C42   C46   A    
C63   C64   A    
C41   C45   A    
O8    C4    A    
C21   Cl1   S    
O9    C5    A    
H2    C17   S    
C38   C50   A    
C46   H25   S    
C37   C49   A    
C59   C71   A    
C39   C51   A    
O6    V2    S    
O18   V2    S    
C49   C53   A    
C68   C72   A    
C56   C64   A    
C13   H9    S    
O16   V4    S    
C69   H13   S    
C3    O13   A    
C15   H11   S    
C11   H7    S    
C67   H23   S    
O5    C1    A    
C3    C38   S    
O6    C2    A    
C11   C15   A    
O11   V3    S    
O12   V4    S    
C62   C65   A    
C18   C22   A    
C48   H27   S    
C65   H21   S    
O10   C6    A    
O20   V2    S    
C47   H28   S    
C43   C47   A    
C24   Cl4   S    
C39   C47   A    
C45   H26   S    
C42   C58   A    
C21   C25   A    
C41   C57   A    
C16   H12   S    
C23   C27   A    
C53   C57   A    
O4    V2    S    
C55   C59   A    
C28   C32   A    
C12   C16   A    
C70   H14   S    
C12   H8    S    
C4    O14   A    
C13   C17   A    
C67   C71   A    
C55   C63   A    
C20   C24   A    
C15   C19   A    
C54   C62   A    
C9    C29   A    
C24   C28   A    
C68   H24   S    
