data_str_m4_o22_o22_f0_acs.sym.109
_audit_creation_date              2012-12-11T15:06:49-0500
_audit_creation_method            fapswitch 2.2
_symmetry_space_group_name_H-M    P1
_symmetry_Int_Tables_number       1
_space_group_crystal_system       triclinic
_cell_length_a                    19.84108
_cell_length_b                    11.328717
_cell_length_c                    18.675005
_cell_angle_alpha                 90.000075
_cell_angle_beta                  89.521608
_cell_angle_gamma                 90.0
_cell_volume                      4197.50888819

loop_
_atom_site_label
_atom_site_type_symbol
_atom_type_description
_atom_site_fract_x
_atom_site_fract_y
_atom_site_fract_z
_atom_type_partial_charge
C1    C     C_R   0.761393 0.524551 0.639652 0.527569
C2    C     C_R   0.238607 0.524551 0.360348 0.527559
C3    C     C_R   0.261393 0.024551 0.639652 0.527563
C4    C     C_R   0.738607 0.024552 0.360348 0.527576
C5    C     C_3   0.810582 0.133202 0.447423 -0.266939
C6    C     C_3   0.189417 0.133201 0.552577 -0.266941
C7    C     C_3   0.310582 0.633201 0.447423 -0.266942
C8    C     C_3   0.689418 0.633201 0.552577 -0.266940
C9    C     C_3   0.746982 0.059489 0.436092 0.063854
C10   C     C_3   0.253018 0.059489 0.563908 0.063855
C11   C     C_3   0.246982 0.559489 0.436092 0.063855
C12   C     C_3   0.753018 0.559489 0.563908 0.063855
C13   C     C_3   0.761633 0.093515 0.573479 0.055557
C14   C     C_3   0.238367 0.093515 0.426521 0.055556
C15   C     C_3   0.261633 0.593515 0.573479 0.055557
C16   C     C_3   0.738367 0.593515 0.426521 0.055557
C17   C     C_3   0.752029 0.961999 0.561590 -0.265999
C18   C     C_3   0.247970 0.961999 0.438410 -0.265999
C19   C     C_3   0.252030 0.461999 0.561590 -0.266000
C20   C     C_3   0.747970 0.461999 0.438410 -0.266000
C21   C     C_3   0.824151 0.134195 0.528345 -0.218094
C22   C     C_3   0.175849 0.134195 0.471655 -0.218093
C23   C     C_3   0.324151 0.634196 0.528345 -0.218093
C24   C     C_3   0.675849 0.634195 0.471655 -0.218093
C25   C     C_3   0.004493 0.203944 0.458920 -0.292400
C26   C     C_3   0.995507 0.203944 0.541080 -0.292404
C27   C     C_3   0.504493 0.703944 0.458919 -0.292403
C28   C     C_3   0.495507 0.703944 0.541080 -0.292402
C29   C     C_3   0.063914 0.405596 0.473590 -0.140557
C30   C     C_3   0.936085 0.405596 0.526410 -0.140560
C31   C     C_3   0.563914 0.905596 0.473590 -0.140560
C32   C     C_3   0.436086 0.905596 0.526410 -0.140558
C33   C     C_3   0.941037 0.387655 0.445163 0.065842
C34   C     C_3   0.058962 0.387656 0.554837 0.065839
C35   C     C_3   0.441038 0.887656 0.445163 0.065840
C36   C     C_3   0.558962 0.887655 0.554837 0.065841
C37   C     C_3   0.010196 0.332514 0.430773 0.058028
C38   C     C_3   0.989804 0.332514 0.569227 0.058021
C39   C     C_3   0.510196 0.832514 0.430773 0.058021
C40   C     C_3   0.489804 0.832514 0.569227 0.058024
C41   C     C_3   0.818687 0.033904 0.046943 -0.241236
C42   C     C_3   0.181315 0.033900 0.953060 -0.241249
C43   C     C_3   0.318686 0.533901 0.046940 -0.241250
C44   C     C_3   0.681313 0.533903 0.953058 -0.241242
C45   C     C_R   0.775137 0.122728 0.648974 0.534818
C46   C     C_R   0.224863 0.122728 0.351026 0.534820
C47   C     C_R   0.275137 0.622728 0.648974 0.534819
C48   C     C_R   0.724863 0.622728 0.351026 0.534816
C49   C     C_3   0.818590 0.025948 0.966445 -0.237624
C50   C     C_3   0.181414 0.025939 0.033557 -0.237625
C51   C     C_3   0.318587 0.525939 0.966443 -0.237624
C52   C     C_3   0.681411 0.525944 0.033555 -0.237623
C53   C     C_3   0.692859 0.007060 0.032817 -0.221663
C54   C     C_3   0.307142 0.007058 0.967183 -0.221664
C55   C     C_3   0.192859 0.507058 0.032817 -0.221664
C56   C     C_3   0.807141 0.507060 0.967181 -0.221656
C57   C     C_3   0.732045 0.200015 0.059024 -0.251983
C58   C     C_3   0.267953 0.200013 0.940979 -0.251979
C59   C     C_3   0.232047 0.700013 0.059021 -0.251979
C60   C     C_3   0.767954 0.700015 0.940978 -0.251982
C61   C     C_3   0.747069 0.071093 0.075685 0.070744
C62   C     C_3   0.252931 0.071091 0.924317 0.070749
C63   C     C_3   0.247069 0.571091 0.075683 0.070749
C64   C     C_3   0.752930 0.571094 0.924315 0.070748
C65   C     C_3   0.759820 0.103013 0.936167 0.063447
C66   C     C_3   0.240182 0.103008 0.063835 0.063446
C67   C     C_3   0.259818 0.603008 0.936165 0.063447
C68   C     C_3   0.740181 0.603009 0.063834 0.063447
C69   C     C_3   0.695651 0.033726 0.950815 -0.253496
C70   C     C_3   0.304352 0.033726 0.049186 -0.253495
C71   C     C_3   0.195648 0.533725 0.950814 -0.253496
C72   C     C_3   0.804349 0.533719 0.049184 -0.253501
C73   C     C_3   0.753184 0.218919 0.980169 -0.234359
C74   C     C_3   0.246816 0.218914 0.019834 -0.234357
C75   C     C_3   0.253184 0.718914 0.980166 -0.234356
C76   C     C_3   0.746817 0.718915 0.019834 -0.234353
C77   C     C_3   0.003508 0.481331 0.040242 -0.239542
C78   C     C_3   0.996501 0.481328 0.959753 -0.239554
C79   C     C_3   0.503500 0.981325 0.040246 -0.239556
C80   C     C_3   0.496495 0.981327 0.959757 -0.239550
C81   C     C_3   0.071291 0.295297 0.012589 -0.269848
C82   C     C_3   0.928709 0.295307 0.987411 -0.269852
C83   C     C_3   0.571292 0.795303 0.012588 -0.269849
C84   C     C_3   0.428709 0.795297 0.987411 -0.269849
C85   C     C_3   0.957184 0.276283 0.064035 -0.105034
C86   C     C_3   0.042813 0.276267 0.935966 -0.105045
C87   C     C_3   0.457188 0.776264 0.064034 -0.105044
C88   C     C_3   0.542815 0.776275 0.935965 -0.105037
C89   C     C_R   0.969196 0.341937 0.645211 0.539801
C90   C     C_R   0.030804 0.341937 0.354789 0.539769
C91   C     C_R   0.469196 0.841937 0.645211 0.539786
C92   C     C_R   0.530804 0.841937 0.354789 0.539803
C93   C     C_3   0.020782 0.353064 0.066545 0.070468
C94   C     C_3   0.979220 0.353061 0.933454 0.070449
C95   C     C_3   0.520782 0.853058 0.066545 0.070446
C96   C     C_3   0.479218 0.853060 0.933455 0.070457
C97   C     C_R   0.760310 0.535000 0.847975 0.524725
C98   C     C_R   0.239690 0.534999 0.152024 0.524741
C99   C     C_R   0.260311 0.034998 0.847976 0.524738
C100  C     C_R   0.739689 0.034998 0.152024 0.524717
C101  C     C_R   0.774134 0.132380 0.858808 0.531489
C102  C     C_R   0.225867 0.132376 0.141193 0.531489
C103  C     C_R   0.274133 0.632376 0.858807 0.531488
C104  C     C_R   0.725866 0.632377 0.141193 0.531486
C105  C     C_R   0.949982 0.356141 0.860690 0.542353
C106  C     C_R   0.050020 0.356141 0.139309 0.542337
C107  C     C_R   0.449980 0.856141 0.860691 0.542345
C108  C     C_R   0.550019 0.856140 0.139310 0.542354
C109  C     C_3   0.688032 0.134506 0.465453 -0.222790
C110  C     C_3   0.311968 0.134506 0.534547 -0.222788
C111  C     C_3   0.188032 0.634506 0.465453 -0.222788
C112  C     C_3   0.811968 0.634506 0.534547 -0.222789
C113  C     C_3   0.696635 0.153217 0.546024 -0.228824
C114  C     C_3   0.303365 0.153217 0.453976 -0.228824
C115  C     C_3   0.196635 0.653217 0.546024 -0.228824
C116  C     C_3   0.803365 0.653217 0.453976 -0.228823
C117  C     C_3   0.755472 0.942913 0.480422 -0.214095
C118  C     C_3   0.244527 0.942913 0.519578 -0.214093
C119  C     C_3   0.255472 0.442913 0.480422 -0.214092
C120  C     C_3   0.744527 0.442912 0.519577 -0.214094
Cr1   Cr    Cr6+3 0.885690 0.492860 0.745310 0.998407
Cr2   Cr    Cr6+3 0.114310 0.492860 0.254690 0.998402
Cr3   Cr    Cr6+3 0.385690 0.992860 0.745310 0.998405
Cr4   Cr    Cr6+3 0.614310 0.992860 0.254690 0.998408
Cr5   Cr    Cr6+3 0.729880 0.332270 0.748190 0.988912
Cr6   Cr    Cr6+3 0.270120 0.332270 0.251810 0.988906
Cr7   Cr    Cr6+3 0.229880 0.832270 0.748190 0.988908
Cr8   Cr    Cr6+3 0.770120 0.832270 0.251810 0.988918
Cr9   Cr    Cr6+3 0.888120 0.178590 0.753010 0.976282
Cr10  Cr    Cr6+3 0.111880 0.178590 0.246990 0.976290
Cr11  Cr    Cr6+3 0.388120 0.678590 0.753010 0.976285
Cr12  Cr    Cr6+3 0.611880 0.678590 0.246990 0.976279
H1    H     H_    0.639821 0.093028 0.454974 0.148955
H2    H     H_    0.360179 0.093028 0.545026 0.148956
H3    H     H_    0.139821 0.593028 0.454974 0.148956
H4    H     H_    0.860179 0.593028 0.545026 0.148955
H5    H     H_    0.863839 0.067303 0.537681 0.130359
H6    H     H_    0.136161 0.067303 0.462319 0.130360
H7    H     H_    0.363839 0.567303 0.537681 0.130360
H8    H     H_    0.636161 0.567303 0.462319 0.130360
H9    H     H_    0.807901 0.914110 0.469831 0.133101
H10   H     H_    0.192099 0.914109 0.530168 0.133101
H11   H     H_    0.307901 0.414109 0.469831 0.133101
H12   H     H_    0.692099 0.414109 0.530168 0.133101
H13   H     H_    0.792281 0.911016 0.588695 0.120418
H14   H     H_    0.207718 0.911017 0.411305 0.120418
H15   H     H_    0.292281 0.411017 0.588695 0.120418
H16   H     H_    0.707719 0.411017 0.411305 0.120418
H17   H     H_    0.047666 0.151411 0.442546 0.145222
H18   H     H_    0.952334 0.151411 0.557453 0.145220
H19   H     H_    0.547665 0.651411 0.442546 0.145220
H20   H     H_    0.452334 0.651411 0.557453 0.145221
H21   H     H_    0.961243 0.158371 0.433894 0.108134
H22   H     H_    0.038757 0.158372 0.566106 0.108133
H23   H     H_    0.461243 0.658372 0.433894 0.108133
H24   H     H_    0.538757 0.658372 0.566106 0.108133
H25   H     H_    0.615242 0.890992 0.453751 0.070787
H26   H     H_    0.384758 0.890992 0.546249 0.070788
H27   H     H_    0.115242 0.390992 0.453752 0.070789
H28   H     H_    0.884758 0.390992 0.546249 0.070788
H29   H     H_    0.599859 0.827502 0.572326 0.091048
H30   H     H_    0.400141 0.827503 0.427674 0.091049
H31   H     H_    0.099859 0.327503 0.572326 0.091049
H32   H     H_    0.900141 0.327502 0.427674 0.091048
H33   H     H_    0.947999 0.499585 0.536773 0.214669
H34   H     H_    0.052001 0.499585 0.463227 0.214669
H35   H     H_    0.447999 0.999585 0.536773 0.214669
H36   H     H_    0.552001 0.999585 0.463227 0.214669
H37   H     H_    0.837190 0.947226 0.065974 0.139630
H38   H     H_    0.162808 0.947226 0.934025 0.139626
H39   H     H_    0.337193 0.447227 0.065975 0.139625
H40   H     H_    0.662807 0.447228 0.934025 0.139629
H41   H     H_    0.685938 0.220796 0.437653 0.108178
H42   H     H_    0.314061 0.220796 0.562347 0.108177
H43   H     H_    0.185939 0.720796 0.437653 0.108177
H44   H     H_    0.814061 0.720796 0.562347 0.108178
H45   H     H_    0.856445 0.099028 0.064225 0.119235
H46   H     H_    0.143558 0.099032 0.935787 0.119236
H47   H     H_    0.356442 0.599034 0.064212 0.119237
H48   H     H_    0.643557 0.599033 0.935781 0.119234
H49   H     H_    0.869819 0.047408 0.947202 0.135328
H50   H     H_    0.130184 0.047396 0.052801 0.135332
H51   H     H_    0.369816 0.547396 0.947199 0.135332
H52   H     H_    0.630182 0.547403 0.052799 0.135329
H53   H     H_    0.811734 0.932793 0.949638 0.118616
H54   H     H_    0.188272 0.932784 0.050362 0.118617
H55   H     H_    0.311729 0.432784 0.949638 0.118617
H56   H     H_    0.688266 0.432788 0.050361 0.118616
H57   H     H_    0.701587 0.916971 0.045226 0.103266
H58   H     H_    0.298414 0.916968 0.954775 0.103265
H59   H     H_    0.201587 0.416968 0.045225 0.103265
H60   H     H_    0.798416 0.416970 0.954768 0.103265
H61   H     H_    0.697022 0.951664 0.919483 0.097142
H62   H     H_    0.302984 0.951665 0.080519 0.097139
H63   H     H_    0.197016 0.451665 0.919481 0.097139
H64   H     H_    0.802976 0.451654 0.080513 0.097145
H65   H     H_    0.677262 0.219744 0.065213 0.121384
H66   H     H_    0.322735 0.219745 0.934787 0.121381
H67   H     H_    0.177265 0.719746 0.065213 0.121381
H68   H     H_    0.822736 0.719747 0.934786 0.121381
H69   H     H_    0.755451 0.261626 0.096475 0.088752
H70   H     H_    0.244543 0.261622 0.903530 0.088753
H71   H     H_    0.255458 0.761623 0.096469 0.088751
H72   H     H_    0.744545 0.761626 0.903529 0.088752
H73   H     H_    0.803974 0.250425 0.982552 0.110115
H74   H     H_    0.196025 0.250417 0.017455 0.110116
H75   H     H_    0.303975 0.750418 0.982544 0.110116
H76   H     H_    0.696027 0.750421 0.017454 0.110115
H77   H     H_    0.718186 0.281338 0.954316 0.131295
H78   H     H_    0.281814 0.281334 0.045687 0.131296
H79   H     H_    0.218186 0.781334 0.954313 0.131295
H80   H     H_    0.781816 0.781333 0.045687 0.131295
H81   H     H_    0.642917 0.029655 0.054036 0.122731
H82   H     H_    0.357083 0.029653 0.945963 0.122732
H83   H     H_    0.142918 0.529652 0.054038 0.122733
H84   H     H_    0.857083 0.529661 0.945964 0.122731
H85   H     H_    0.696295 0.245457 0.559341 0.132232
H86   H     H_    0.303705 0.245457 0.440659 0.132231
H87   H     H_    0.196295 0.745457 0.559341 0.132232
H88   H     H_    0.803705 0.745457 0.440659 0.132231
H89   H     H_    0.651144 0.086318 0.934385 0.115955
H90   H     H_    0.348858 0.086322 0.065614 0.115958
H91   H     H_    0.151142 0.586322 0.934387 0.115957
H92   H     H_    0.848856 0.586308 0.065617 0.115951
H93   H     H_    0.040119 0.549847 0.055368 0.121469
H94   H     H_    0.959890 0.549844 0.944626 0.121478
H95   H     H_    0.540110 0.049843 0.055373 0.121479
H96   H     H_    0.459885 0.049845 0.944631 0.121473
H97   H     H_    0.955699 0.512531 0.064361 0.122277
H98   H     H_    0.044312 0.512515 0.935631 0.122281
H99   H     H_    0.455689 0.012510 0.064368 0.122283
H100  H     H_    0.544306 0.012520 0.935638 0.122280
H101  H     H_    0.611537 0.856736 0.006295 0.109269
H102  H     H_    0.388463 0.856729 0.993707 0.109269
H103  H     H_    0.111538 0.356727 0.006295 0.109268
H104  H     H_    0.888464 0.356741 0.993703 0.109273
H105  H     H_    0.971344 0.181416 0.069008 0.135057
H106  H     H_    0.028647 0.181402 0.930999 0.135063
H107  H     H_    0.471355 0.681399 0.069000 0.135062
H108  H     H_    0.528652 0.681409 0.930994 0.135059
H109  H     H_    0.911083 0.211570 0.965517 0.107221
H110  H     H_    0.088914 0.211560 0.034486 0.107227
H111  H     H_    0.411084 0.711561 0.965514 0.107227
H112  H     H_    0.588918 0.711567 0.034483 0.107222
H113  H     H_    0.652801 0.120420 0.575634 0.189494
H114  H     H_    0.347199 0.120420 0.424366 0.189493
H115  H     H_    0.152801 0.620420 0.575634 0.189493
H116  H     H_    0.847199 0.620420 0.424366 0.189494
H117  H     H_    0.720615 0.873416 0.464024 0.110200
H118  H     H_    0.279385 0.873416 0.535975 0.110201
H119  H     H_    0.220615 0.373416 0.464025 0.110201
H120  H     H_    0.779385 0.373416 0.535975 0.110200
H121  H     H_    0.703009 0.931758 0.583875 0.116224
H122  H     H_    0.296991 0.931758 0.416125 0.116223
H123  H     H_    0.203009 0.431758 0.583875 0.116223
H124  H     H_    0.796991 0.431758 0.416125 0.116225
H125  H     H_    0.854302 0.094315 0.418335 0.120443
H126  H     H_    0.145697 0.094314 0.581665 0.120437
H127  H     H_    0.354302 0.594314 0.418335 0.120435
H128  H     H_    0.645697 0.594314 0.581665 0.120439
H129  H     H_    0.803307 0.223992 0.426849 0.097726
H130  H     H_    0.196693 0.223991 0.573152 0.097728
H131  H     H_    0.303307 0.723991 0.426848 0.097729
H132  H     H_    0.696693 0.723991 0.573152 0.097727
H133  H     H_    0.842995 0.220058 0.545842 0.108818
H134  H     H_    0.157005 0.220058 0.454158 0.108817
H135  H     H_    0.342995 0.720058 0.545842 0.108818
H136  H     H_    0.657005 0.720058 0.454158 0.108817
O1    O     O_R   0.957210 0.449410 0.665480 -0.487502
O2    O     O_R   0.042790 0.449410 0.334520 -0.487507
O3    O     O_R   0.457210 0.949410 0.665480 -0.487504
O4    O     O_R   0.542790 0.949410 0.334520 -0.487502
O5    O     O_R   0.736260 0.212010 0.826560 -0.509714
O6    O     O_R   0.263740 0.212010 0.173440 -0.509714
O7    O     O_R   0.236260 0.712010 0.826560 -0.509714
O8    O     O_R   0.763740 0.712010 0.173440 -0.509714
O9    O     O_R   0.832520 0.095300 0.836000 -0.534585
O10   O     O_R   0.167480 0.095300 0.164000 -0.534584
O11   O     O_R   0.332520 0.595300 0.836000 -0.534586
O12   O     O_R   0.667480 0.595300 0.164000 -0.534586
O13   O     O_R   0.946380 0.253940 0.826940 -0.528429
O14   O     O_R   0.053620 0.253940 0.173060 -0.528428
O15   O     O_R   0.446380 0.753940 0.826940 -0.528428
O16   O     O_R   0.553620 0.753940 0.173060 -0.528429
O17   O     O_3   0.834560 0.334570 0.748840 -0.282803
O18   O     O_3   0.165440 0.334570 0.251160 -0.282803
O19   O     O_3   0.334560 0.834570 0.748840 -0.282803
O20   O     O_3   0.665440 0.834570 0.251160 -0.282805
O21   O     O_R   0.820730 0.541240 0.668250 -0.515602
O22   O     O_R   0.179270 0.541240 0.331750 -0.515599
O23   O     O_R   0.320730 0.041240 0.668250 -0.515601
O24   O     O_R   0.679270 0.041240 0.331750 -0.515604
O25   O     O_R   0.714240 0.455060 0.663710 -0.532817
O26   O     O_R   0.285760 0.455060 0.336290 -0.532828
O27   O     O_R   0.214240 0.955060 0.663710 -0.532823
O28   O     O_R   0.785760 0.955060 0.336290 -0.532809
O29   O     O_R   0.736780 0.204870 0.675910 -0.514193
O30   O     O_R   0.263220 0.204870 0.324090 -0.514192
O31   O     O_R   0.236780 0.704870 0.675910 -0.514193
O32   O     O_R   0.763220 0.704870 0.324090 -0.514194
O33   O     O_R   0.833070 0.087590 0.673490 -0.525724
O34   O     O_R   0.166930 0.087590 0.326510 -0.525722
O35   O     O_R   0.333070 0.587590 0.673490 -0.525723
O36   O     O_R   0.666930 0.587590 0.326510 -0.525725
O37   O     O_R   0.946890 0.246800 0.676300 -0.531371
O38   O     O_R   0.053110 0.246800 0.323700 -0.531371
O39   O     O_R   0.446890 0.746800 0.676300 -0.531371
O40   O     O_R   0.553110 0.746800 0.323700 -0.531372
O41   O     O_R   0.956650 0.457120 0.827980 -0.534534
O42   O     O_R   0.043350 0.457120 0.172020 -0.534535
O43   O     O_R   0.456650 0.957120 0.827980 -0.534534
O44   O     O_R   0.543350 0.957120 0.172020 -0.534534
O45   O     O_R   0.820220 0.548390 0.818890 -0.519947
O46   O     O_R   0.179780 0.548390 0.181110 -0.519946
O47   O     O_R   0.320220 0.048390 0.818890 -0.519946
O48   O     O_R   0.679780 0.048390 0.181110 -0.519948
O49   O     O_R   0.713680 0.462770 0.826210 -0.534887
O50   O     O_R   0.286320 0.462770 0.173790 -0.534892
O51   O     O_R   0.213680 0.962770 0.826210 -0.534891
O52   O     O_R   0.786320 0.962770 0.173790 -0.534880
O53   O     O_3   0.935002 0.496386 0.409959 -0.738922
H137  H     H_    0.914737 0.480320 0.362448 0.322589
O54   O     O_3   0.064998 0.496388 0.590041 -0.738923
H138  H     H_    0.085263 0.480322 0.637552 0.322586
O55   O     O_3   0.435002 0.996387 0.409959 -0.738923
H139  H     H_    0.414737 0.980322 0.362449 0.322585
O56   O     O_3   0.564998 0.996387 0.590041 -0.738922
H140  H     H_    0.585263 0.980321 0.637552 0.322588
C121  C     C_3   0.595281 0.804813 0.875142 -0.269327
C122  C     C_3   0.594252 0.725351 0.807992 -0.287757
C123  C     C_3   0.655090 0.749160 0.759316 -0.447569
H141  H     H_    0.654659 0.842251 0.740573 0.136169
H142  H     H_    0.702889 0.732185 0.787625 0.161790
H143  H     H_    0.652955 0.690431 0.711810 0.148089
H144  H     H_    0.593610 0.630678 0.823339 0.162540
H145  H     H_    0.550067 0.743948 0.774626 0.218458
H146  H     H_    0.592874 0.898154 0.857640 0.159997
H147  H     H_    0.644260 0.791319 0.898576 0.133535
C124  C     C_3   0.404724 0.804789 0.124861 -0.269312
C125  C     C_3   0.405741 0.725283 0.191994 -0.287770
C126  C     C_3   0.344913 0.749113 0.240683 -0.447531
H148  H     H_    0.345388 0.842181 0.259470 0.136140
H149  H     H_    0.297103 0.732241 0.212368 0.161763
H150  H     H_    0.347025 0.690319 0.288161 0.148140
H151  H     H_    0.406357 0.630618 0.176626 0.162523
H152  H     H_    0.449935 0.743818 0.225359 0.218447
H153  H     H_    0.407142 0.898119 0.142382 0.160019
H154  H     H_    0.355742 0.791328 0.101423 0.133525
C127  C     C_3   0.095279 0.304794 0.875140 -0.269321
C128  C     C_3   0.094259 0.225301 0.808003 -0.287780
C129  C     C_3   0.155086 0.249132 0.759315 -0.447552
H155  H     H_    0.154623 0.342207 0.740546 0.136155
H156  H     H_    0.202892 0.232226 0.787624 0.161776
H157  H     H_    0.152965 0.190365 0.711825 0.148119
H158  H     H_    0.093641 0.130636 0.823364 0.162532
H159  H     H_    0.050066 0.243845 0.774640 0.218454
H160  H     H_    0.092864 0.398127 0.857624 0.160014
H161  H     H_    0.144259 0.291324 0.898578 0.133529
C130  C     C_3   0.904715 0.304829 0.124854 -0.269343
C131  C     C_3   0.905759 0.225407 0.192020 -0.287739
C132  C     C_3   0.844908 0.249189 0.240683 -0.447603
H162  H     H_    0.845303 0.342295 0.259395 0.136186
H163  H     H_    0.797120 0.232135 0.212375 0.161813
H164  H     H_    0.847061 0.190506 0.288208 0.148056
H165  H     H_    0.906430 0.130728 0.176693 0.162554
H166  H     H_    0.949933 0.244072 0.225387 0.218468
H167  H     H_    0.907107 0.398179 0.142337 0.159973
H168  H     H_    0.855738 0.291296 0.101422 0.133545

loop_
_geom_bond_atom_site_label_1
_geom_bond_atom_site_label_2
_ccdc_geom_bond_type
C78   H94   S    
C82   C94   S    
C119  H11   S    
C10   C110  S    
C7    H127  S    
C120  H12   S    
C41   C61   S    
C53   C69   S    
C104  O12   A    
C56   H60   S    
C120  H120  S    
C43   C63   S    
Cr5   O5    S    
C44   C64   S    
C124  H154  S    
C125  H152  S    
C114  H86   S    
C63   C98   S    
C51   H51   S    
C131  H165  S    
C109  H41   S    
C28   C40   S    
C72   H92   S    
C30   C38   S    
C130  H167  S    
C79   H95   S    
C42   H38   S    
Cr9   O37   S    
C56   C72   S    
C34   O54   S    
C105  O13   A    
C21   H5    S    
C8    H132  S    
C18   C118  S    
C81   C86   S    
C108  O16   A    
C110  H42   S    
C83   C88   S    
C48   O36   A    
C5    H129  S    
C90   O2    A    
C41   C49   S    
Cr8   O32   S    
C132  H164  S    
Cr5   O17   S    
Cr2   O46   S    
C122  C123  S    
C109  H1    S    
O54   H138  S    
Cr7   O19   S    
C125  C126  S    
Cr8   O20   S    
C118  H118  S    
C26   C38   S    
Cr10  O38   S    
C14   C114  S    
C41   H37   S    
C83   H112  S    
C60   C76   S    
C24   H8    S    
C55   H59   S    
C81   H110  S    
Cr11  O35   S    
C44   H40   S    
C47   O31   A    
C22   H134  S    
C54   C70   S    
C16   C20   S    
C43   H47   S    
C88   H108  S    
C69   H61   S    
C33   O53   S    
C98   O46   A    
C102  O6    A    
C99   O51   A    
C79   H99   S    
C31   H25   S    
C19   H123  S    
C64   C97   S    
C36   H29   S    
C15   C115  S    
C20   C120  S    
Cr7   O27   S    
Cr8   O28   S    
C57   H65   S    
C59   C63   S    
C52   H52   S    
Cr7   O7    S    
Cr4   O24   S    
C127  H161  S    
C72   H64   S    
C57   C61   S    
C82   C85   S    
C77   H97   S    
C60   C64   S    
Cr9   O17   S    
C13   C45   S    
C66   C70   S    
C42   H46   S    
C113  H113  S    
C23   H135  S    
C86   H106  S    
C69   H89   S    
C128  C129  S    
C95   C108  S    
C60   H68   S    
C62   C99   S    
C5    C21   S    
C58   H70   S    
O53   H137  S    
C130  C131  S    
C31   C36   S    
C75   H79   S    
C97   O49   A    
C48   O32   A    
C87   C124  S    
C55   C71   S    
C76   H76   S    
Cr6   O26   S    
C91   O39   A    
C127  C128  S    
C129  H155  S    
Cr2   O22   S    
C65   C101  S    
Cr10  O18   S    
C43   C51   S    
Cr11  O15   S    
C129  H157  S    
C67   C103  S    
C18   H122  S    
C37   C90   S    
C41   H45   S    
C78   C94   S    
C55   H83   S    
C66   C74   S    
C25   H17   S    
C57   C73   S    
C105  O41   A    
C53   C61   S    
C60   H72   S    
C83   H101  S    
C107  O43   A    
C87   C95   S    
Cr5   O49   S    
C56   C64   S    
C7    H131  S    
C45   O33   A    
C116  H88   S    
C42   C62   S    
C85   H105  S    
C76   H80   S    
Cr6   O6    S    
C50   H50   S    
C1    C12   S    
C75   H75   S    
C80   H100  S    
C2    C11   S    
C121  H146  S    
C131  C132  S    
C126  H149  S    
Cr12  O12   S    
C87   H107  S    
C112  H4    S    
C43   H39   S    
C25   C26   S    
C106  O14   A    
C8    H128  S    
C84   H102  S    
C5    C9    S    
C119  H119  S    
C93   C106  S    
C123  H142  S    
C71   H63   S    
C104  O8    A    
C8    C12   S    
C5    H125  S    
C6    H130  S    
C51   C67   S    
C42   C50   S    
C49   H49   S    
C112  H44   S    
C122  H144  S    
Cr6   O18   S    
Cr3   O47   S    
C110  H2    S    
C61   C100  S    
C67   C75   S    
C125  H151  S    
C50   H54   S    
Cr1   O1    S    
C112  C116  S    
C58   C74   S    
Cr3   O3    S    
C73   H73   S    
Cr4   O4    S    
C53   H81   S    
C54   H58   S    
C30   H33   S    
C68   C76   S    
C124  H153  S    
C85   C130  S    
C36   O56   S    
C13   C17   S    
C98   O50   A    
C2    O22   A    
C99   O47   A    
C103  O7    A    
C13   C21   S    
C131  H166  S    
C20   H16   S    
C128  H158  S    
C7    C23   S    
C8    C24   S    
C40   C91   S    
C123  H143  S    
C56   H84   S    
Cr7   O31   S    
C49   H53   S    
Cr1   O41   S    
C57   H69   S    
Cr3   O43   S    
C52   H56   S    
C4    C9    S    
C53   H57   S    
C24   H136  S    
C115  H87   S    
C58   C62   S    
C88   C96   S    
C94   C105  S    
C77   H93   S    
C82   H104  S    
C12   C112  S    
C44   H48   S    
C14   C46   S    
C77   C78   S    
C15   C19   S    
C132  H163  S    
Cr9   O33   S    
C101  O9    A    
C92   O4    A    
C68   C72   S    
C29   H34   S    
C108  O44   A    
C6    C22   S    
C2    O26   A    
Cr11  O39   S    
Cr7   O51   S    
C116  H116  S    
Cr8   O52   S    
C15   C47   S    
Cr3   O23   S    
Cr11  O11   S    
C17   C117  S    
C19   C119  S    
Cr10  O34   S    
C9    C109  S    
Cr12  O40   S    
C16   C116  S    
C100  O48   A    
C20   H124  S    
C115  H115  S    
C27   H23   S    
C25   H21   S    
C26   H18   S    
C35   O55   S    
C127  H160  S    
C117  H117  S    
C106  O42   A    
C92   O40   A    
C18   H14   S    
C11   C111  S    
C29   C34   S    
C33   C37   S    
C82   H109  S    
C130  H168  S    
C45   O29   A    
C117  H9    S    
C123  H141  S    
C4    O24   A    
C79   C95   S    
C89   O37   A    
C88   C121  S    
Cr5   O29   S    
C124  C125  S    
C70   H62   S    
Cr1   O17   S    
C80   H96   S    
Cr3   O19   S    
Cr4   O20   S    
Cr12  O16   S    
C96   C107  S    
C89   O1    A    
C39   C92   S    
C73   H77   S    
C27   H19   S    
C14   C18   S    
C107  O15   A    
C68   C104  S    
C6    C10   S    
C129  H156  S    
C1    O25   A    
C78   H98   S    
C54   C62   S    
C22   H6    S    
C6    H126  S    
O56   H140  S    
C103  O11   A    
C14   C22   S    
C114  H114  S    
C65   C69   S    
C77   C93   S    
C70   H90   S    
Cr4   O44   S    
C84   H111  S    
C67   C71   S    
O55   H139  S    
C111  H3    S    
C19   H15   S    
C51   H55   S    
Cr2   O2    S    
C3    O27   A    
C59   H71   S    
C31   H36   S    
Cr12  O36   S    
C32   H35   S    
C29   C37   S    
C46   O30   A    
C30   H28   S    
C86   C127  S    
C9    C117  S    
C121  C122  S    
C66   C102  S    
C17   H13   S    
C84   C87   S    
C3    O23   A    
C11   C119  S    
C16   C48   S    
C29   H27   S    
C54   H82   S    
C126  H148  S    
C7    C11   S    
C38   C89   S    
C17   H121  S    
C49   C65   S    
C74   H78   S    
C111  H43   S    
C23   H7    S    
C91   O3    A    
Cr1   O45   S    
Cr2   O42   S    
C65   C73   S    
C84   C96   S    
Cr4   O48   S    
Cr8   O8    S    
C86   C94   S    
C25   C37   S    
C12   C120  S    
C27   C39   S    
Cr9   O9    S    
C80   C96   S    
C52   C68   S    
C21   H133  S    
C15   C23   S    
C16   C24   S    
C122  H145  S    
C97   O45   A    
C101  O5    A    
C85   C93   S    
C102  O10   A    
C113  H85   S    
C32   H26   S    
C35   H30   S    
C71   H91   S    
C1    O21   A    
C32   C35   S    
C36   C40   S    
C33   H32   S    
C34   H31   S    
C59   H67   S    
Cr6   O50   S    
C55   C63   S    
Cr10  O10   S    
C46   O34   A    
C10   C118  S    
C81   C93   S    
C128  H159  S    
C83   C95   S    
C81   H103  S    
Cr9   O13   S    
C50   C66   S    
C100  O52   A    
C28   H20   S    
C26   H22   S    
C59   C75   S    
C121  H147  S    
C74   H74   S    
C126  H150  S    
C110  C114  S    
C58   H66   S    
C30   C33   S    
C34   C38   S    
C47   O35   A    
C4    O28   A    
C118  H10   S    
Cr5   O25   S    
C90   O38   A    
Cr6   O30   S    
C109  C113  S    
C132  H162  S    
Cr1   O21   S    
Cr2   O18   S    
Cr10  O14   S    
C3    C10   S    
Cr11  O19   S    
C44   C52   S    
Cr12  O20   S    
C35   C39   S    
C31   C39   S    
C32   C40   S    
C79   C80   S    
C27   C28   S    
C28   H24   S    
C111  C115  S    
C13   C113  S    
