data_str_m9_o17_o18_f0_sra.sym.71
_audit_creation_date              2012-12-11T15:18:39-0500
_audit_creation_method            fapswitch 2.2
_symmetry_space_group_name_H-M    P1
_symmetry_Int_Tables_number       1
_space_group_crystal_system       triclinic
_cell_length_a                    6.936751
_cell_length_b                    19.944354
_cell_length_c                    23.794435
_cell_angle_alpha                 93.425386
_cell_angle_beta                  90.881446
_cell_angle_gamma                 88.282322
_cell_volume                      3284.27414615

loop_
_atom_site_label
_atom_site_type_symbol
_atom_type_description
_atom_site_fract_x
_atom_site_fract_y
_atom_site_fract_z
_atom_type_partial_charge
O1    O     O_R   0.620100 0.812200 0.810870 -0.537787
O2    O     O_R   0.379900 0.187800 0.189130 -0.537782
O3    O     O_R   0.296960 0.671650 0.794750 -0.539403
O4    O     O_R   0.703040 0.328350 0.205250 -0.539403
O5    O     O_R   0.120160 0.687800 0.689130 -0.541431
O6    O     O_R   0.879840 0.312200 0.310870 -0.541431
C1    C     C_R   0.468792 0.647048 0.804656 0.702194
C2    C     C_R   0.531207 0.352953 0.195344 0.702195
O7    O     O_R   0.290810 0.810670 0.817290 -0.544337
O8    O     O_R   0.709190 0.189330 0.182710 -0.544339
O9    O     O_R   0.113980 0.827820 0.711840 -0.532634
O10   O     O_R   0.886020 0.172180 0.288160 -0.532642
C3    C     C_R   0.458402 0.830581 0.835130 0.713125
C4    C     C_R   0.541598 0.169418 0.164870 0.713125
O11   O     O_R   0.626290 0.672180 0.788160 -0.535639
O12   O     O_R   0.373710 0.327820 0.211840 -0.535639
O13   O     O_3   0.451520 0.755460 0.715370 -0.370727
O14   O     O_3   0.548480 0.244540 0.284630 -0.370728
V1    V     V_3+5 0.179200 0.748980 0.756420 1.424551
V2    V     V_3+5 0.820800 0.251020 0.243580 1.424545
O15   O     O_R   0.783880 0.828350 0.705250 -0.543547
O16   O     O_R   0.216120 0.171650 0.294750 -0.543542
C5    C     C_R   0.949925 0.852694 0.694848 0.737716
C6    C     C_R   0.050075 0.147306 0.305152 0.737737
O17   O     O_R   0.790030 0.689320 0.682700 -0.544826
O18   O     O_R   0.209970 0.310680 0.317300 -0.544827
C7    C     C_R   0.959637 0.668072 0.665720 0.702569
C8    C     C_R   0.040363 0.331928 0.334280 0.702567
V3    V     V_3+5 0.678400 0.751010 0.743570 1.420361
V4    V     V_3+5 0.321600 0.248990 0.256430 1.420365
O19   O     O_3   0.955950 0.744540 0.784620 -0.367108
O20   O     O_3   0.044050 0.255460 0.215380 -0.367107
C9    C     C_R   0.180122 0.425859 0.395807 -0.214249
C10   C     C_R   0.819878 0.574141 0.604193 -0.214249
C11   C     C_R   0.029323 0.381206 0.383740 -0.080878
C12   C     C_R   0.970677 0.618794 0.616260 -0.080879
C13   C     C_R   0.866830 0.384511 0.418731 -0.221390
C14   C     C_R   0.133170 0.615488 0.581269 -0.221391
C15   C     C_R   0.855334 0.431049 0.465477 0.090185
C16   C     C_R   0.144666 0.568951 0.534522 0.090185
C17   C     C_R   0.005942 0.476182 0.476749 0.054330
C18   C     C_R   0.994058 0.523818 0.523251 0.054330
C19   C     C_R   0.168312 0.473813 0.441566 0.090139
C20   C     C_R   0.831688 0.526187 0.558434 0.090138
C21   C     C_R   0.695886 0.433269 0.501251 -0.187919
C22   C     C_R   0.304114 0.566731 0.498748 -0.187920
C23   C     C_R   0.684327 0.480299 0.547312 -0.176651
C24   C     C_R   0.315672 0.519701 0.452688 -0.176652
H1    H     H_    0.305183 0.424138 0.368917 0.122141
H2    H     H_    0.694817 0.575863 0.631083 0.122141
H3    H     H_    0.750280 0.350217 0.410004 0.125616
H4    H     H_    0.249720 0.649783 0.589996 0.125616
H5    H     H_    0.579190 0.398866 0.493404 0.134633
H6    H     H_    0.420810 0.601134 0.506596 0.134632
H7    H     H_    0.559123 0.481071 0.574047 0.137763
H8    H     H_    0.440876 0.518929 0.425953 0.137762
C25   C     C_R   0.949739 0.914798 0.663845 -0.057544
C26   C     C_R   0.050265 0.085202 0.336154 -0.057531
C27   C     C_R   0.902032 0.035444 0.662053 -0.187577
C28   C     C_R   0.098042 0.964559 0.337948 -0.187597
C29   C     C_R   0.907605 0.977166 0.692190 0.201843
C30   C     C_R   0.092451 0.022837 0.307812 0.201834
C31   C     C_R   0.984411 0.911375 0.605565 -0.275135
C32   C     C_R   0.015554 0.088622 0.394432 -0.275148
C33   C     C_R   0.976079 0.970036 0.574070 0.090375
C34   C     C_R   0.023920 0.029962 0.425928 0.090377
C35   C     C_R   0.934497 0.032345 0.603856 0.100190
C36   C     C_R   0.065543 0.967654 0.396144 0.100196
C37   C     C_R   0.006047 0.969208 0.514287 0.066877
C38   C     C_R   0.993954 0.030789 0.485711 0.066878
C39   C     C_R   0.952841 0.091077 0.517913 -0.184956
C40   C     C_R   0.047190 0.908922 0.482086 -0.184954
C41   C     C_R   0.924058 0.091619 0.575542 -0.182851
C42   C     C_R   0.076000 0.908382 0.424458 -0.182852
H9    H     H_    0.892416 0.139328 0.598279 0.132211
H10   H     H_    0.107682 0.860674 0.401723 0.132209
H11   H     H_    0.985186 0.137932 0.413783 0.104830
H12   H     H_    0.014717 0.862062 0.586211 0.104827
H13   H     H_    0.869955 0.083557 0.684085 0.122017
H14   H     H_    0.130158 0.916448 0.315918 0.122018
H15   H     H_    0.941459 0.139261 0.499856 0.124426
H16   H     H_    0.058600 0.860739 0.500145 0.124425
C43   C     C_R   0.489882 0.585426 0.835650 -0.055780
C44   C     C_R   0.510112 0.414575 0.164351 -0.055788
C45   C     C_R   0.602898 0.469427 0.836797 -0.027249
C46   C     C_R   0.397009 0.530565 0.163200 -0.027250
C47   C     C_R   0.563375 0.527034 0.807736 -0.197908
C48   C     C_R   0.436554 0.472960 0.192262 -0.197900
C49   C     C_R   0.456112 0.586584 0.893652 -0.208412
C50   C     C_R   0.543918 0.413421 0.106351 -0.208416
C51   C     C_R   0.499469 0.529430 0.925295 0.081691
C52   C     C_R   0.500523 0.470572 0.074706 0.081690
C53   C     C_R   0.573248 0.470212 0.895681 0.082982
C54   C     C_R   0.426699 0.529784 0.104318 0.082985
C55   C     C_R   0.475307 0.529494 0.985283 0.064353
C56   C     C_R   0.524682 0.470507 0.014718 0.064352
C57   C     C_R   0.595699 0.413228 0.983144 -0.178580
C58   C     C_R   0.404262 0.586770 0.016856 -0.178580
C59   C     C_R   0.618699 0.413138 0.925381 -0.182542
C60   C     C_R   0.381235 0.586857 0.074618 -0.182542
H17   H     H_    0.674723 0.367319 0.904072 0.146302
H18   H     H_    0.325178 0.632672 0.095925 0.146302
H19   H     H_    0.597757 0.366396 0.087269 0.097634
H20   H     H_    0.402336 0.633617 0.912738 0.097626
H21   H     H_    0.408363 0.473290 0.237024 0.110314
H22   H     H_    0.591531 0.526700 0.762971 0.110311
H23   H     H_    0.636278 0.366922 0.001720 0.130571
H24   H     H_    0.363657 0.633073 0.998279 0.130573
C61   C     C_R   0.381174 0.077267 0.109698 -0.222015
C62   C     C_R   0.618830 0.922730 0.890304 -0.222006
C63   C     C_R   0.534778 0.121116 0.114659 -0.123328
C64   C     C_R   0.465222 0.878882 0.885343 -0.123325
C65   C     C_R   0.677473 0.118033 0.072093 0.139578
C66   C     C_R   0.322524 0.881966 0.927907 0.139576
C67   C     C_R   0.666481 0.069123 0.025788 0.062166
C68   C     C_R   0.333520 0.930874 0.974214 0.062166
C69   C     C_R   0.508797 0.024670 0.022646 0.024011
C70   C     C_R   0.491205 0.975327 0.977357 0.024009
C71   C     C_R   0.367595 0.029502 0.064684 0.113419
C72   C     C_R   0.632408 0.970494 0.935319 0.113417
C73   C     C_R   0.806708 0.062339 0.982348 -0.050142
C74   C     C_R   0.193297 0.937657 0.017656 -0.050142
C75   C     C_R   0.787414 0.013595 0.938234 -0.239544
C76   C     C_R   0.212592 0.986401 0.061769 -0.239547
H25   H     H_    0.271384 0.079722 0.141777 0.141942
H26   H     H_    0.728623 0.920273 0.858227 0.141924
H27   H     H_    0.895908 0.008974 0.905677 0.134924
H28   H     H_    0.104100 0.991020 0.094327 0.134920
C77   C     C_1   0.678185 0.410616 0.804935 0.290191
N1    N     N_1   0.738436 0.363606 0.779392 -0.342476
C78   C     C_1   0.321641 0.589366 0.195058 0.290189
N2    N     N_1   0.261323 0.636369 0.220598 -0.342475
N3    N     N_3   0.828617 0.165760 0.074458 -0.659427
H29   H     H_    0.923826 0.155623 0.107539 0.253092
H30   H     H_    0.769211 0.214492 0.079840 0.228406
N4    N     N_3   0.171371 0.834242 0.925540 -0.659427
H31   H     H_    0.076167 0.844383 0.892459 0.253091
H32   H     H_    0.230768 0.785510 0.920157 0.228408
C79   C     C_1   0.975281 0.103086 0.980705 0.386706
N5    N     N_1   0.110706 0.135414 0.979057 -0.339738
C80   C     C_1   0.024728 0.896908 0.019299 0.386704
N6    N     N_1   0.889307 0.864578 0.020948 -0.339739
N7    N     N_3   0.128480 0.019090 0.248337 -0.685753
H33   H     H_    0.262014 0.040466 0.242595 0.220890
H34   H     H_    0.141724 0.969012 0.232848 0.232243
N8    N     N_3   0.871608 0.980916 0.751665 -0.685734
H35   H     H_    0.738105 0.959524 0.757416 0.220875
H36   H     H_    0.858303 0.030994 0.767149 0.232240

loop_
_geom_bond_atom_site_label_1
_geom_bond_atom_site_label_2
_ccdc_geom_bond_type
C26   C30   A    
C43   C47   A    
C31   C33   A    
C67   C73   A    
O13   V3    S    
C17   C18   A    
C1    C43   S    
C55   C56   A    
C24   H8    S    
C30   N7    S    
O4    C2    A    
V1    O19   S    
C70   C72   A    
C64   C66   A    
C55   C58   A    
C15   C17   A    
C71   C76   A    
C16   C22   A    
O9    V1    S    
C68   C74   A    
C11   C13   A    
C77   N1    T    
C3    C64   S    
O3    C1    A    
C69   C71   A    
C13   H3    S    
C46   C48   A    
C46   C78   S    
C14   H4    S    
C34   C36   A    
C36   C42   A    
N7    H33   S    
C52   C56   A    
C58   H24   S    
C28   C30   A    
C32   H11   S    
O7    C3    A    
C46   C54   A    
C27   C35   A    
O5    C7    A    
C45   C53   A    
O7    V1    S    
O6    C8    A    
C8    C11   S    
O8    V2    S    
C33   C35   A    
O3    V1    S    
C38   C39   A    
C35   C41   A    
C49   C51   A    
C19   C24   A    
C53   C59   A    
C10   C12   A    
C20   C23   A    
C15   C21   A    
C45   C77   S    
C21   C23   A    
C21   H5    S    
C2    O12   A    
C65   N3    S    
O17   V3    S    
C17   C19   A    
O10   V2    S    
C44   C50   A    
O1    V3    S    
C57   C59   A    
O11   V3    S    
N8    H36   S    
C45   C47   A    
C26   C32   A    
C4    C63   S    
C43   C49   A    
C22   C24   A    
C27   C29   A    
C10   H2    S    
C9    C19   A    
C10   C20   A    
C40   C42   A    
O8    C4    A    
C62   C72   A    
C39   C41   A    
N4    H31   S    
C1    O11   A    
C67   C69   A    
O15   V3    S    
O4    V2    S    
C37   C40   A    
C29   N8    S    
V4    O20   S    
C51   C53   A    
C50   C52   A    
C54   C60   A    
V3    O19   S    
C56   C57   A    
C22   H6    S    
C60   H18   S    
C63   C65   A    
C42   H10   S    
C62   H26   S    
C5    C25   S    
C61   H25   S    
C59   H17   S    
O18   V4    S    
C58   C60   A    
O15   C5    A    
C49   H20   S    
N3    H29   S    
O16   C6    A    
O1    C3    A    
C41   H9    S    
O12   V4    S    
C27   H13   S    
C78   N2    T    
C75   H27   S    
C61   C71   A    
N4    H32   S    
C23   H7    S    
N8    H35   S    
V2    O20   S    
N7    H34   S    
C28   H14   S    
O16   V4    S    
C2    C44   S    
C44   C48   A    
C25   C31   A    
C16   C18   A    
C66   C68   A    
C79   N5    T    
C72   C75   A    
C25   C29   A    
O5    V1    S    
C7    C12   S    
O17   C7    A    
O6    V2    S    
O10   C6    A    
O18   C8    A    
C76   H28   S    
O2    V4    S    
C73   C79   S    
C61   C63   A    
C18   C20   A    
C13   C15   A    
C69   C70   A    
C12   C14   A    
C14   C16   A    
C48   H21   S    
C9    C11   A    
C52   C54   A    
C34   C38   A    
C47   H22   S    
C33   C37   A    
O9    C5    A    
O13   V1    S    
C68   C70   A    
O14   V2    S    
C37   C38   A    
O2    C4    A    
C62   C64   A    
C50   H19   S    
C73   C75   A    
O14   V4    S    
C51   C55   A    
C57   H23   S    
C28   C36   A    
C6    C26   S    
C9    H1    S    
N3    H30   S    
C66   N4    S    
C74   C80   S    
C39   H15   S    
C80   N6    T    
C74   C76   A    
C40   H16   S    
C32   C34   A    
C65   C67   A    
C31   H12   S    
