data_str_m2_o41_o41_f0_fof.sym.69
_audit_creation_date              2012-10-26T17:13:08-0400
_audit_creation_method            fapswitch 2.2
_symmetry_space_group_name_H-M    P1
_symmetry_Int_Tables_number       1
_space_group_crystal_system       triclinic
_cell_length_a                    16.856006
_cell_length_b                    16.909057
_cell_length_c                    16.772563
_cell_angle_alpha                 68.071643
_cell_angle_beta                  68.184384
_cell_angle_gamma                 67.809744
_cell_volume                      3955.47437872

loop_
_atom_site_label
_atom_site_type_symbol
_atom_type_description
_atom_site_fract_x
_atom_site_fract_y
_atom_site_fract_z
_atom_type_partial_charge
C1    C     C_R   0.324127 0.940800 0.455935 -0.030209
C2    C     C_R   0.690989 0.991235 0.565295 -0.019475
C3    C     C_R   0.961524 0.448594 0.320870 -0.026447
C4    C     C_R   0.042078 0.553794 0.674819 -0.034051
C5    C     C_R   0.456032 0.324479 0.939540 -0.028250
C6    C     C_R   0.567441 0.696841 0.977198 -0.017027
C7    C     C_R   0.552566 0.019344 0.683276 -0.031355
C8    C     C_R   0.453991 0.939284 0.326517 -0.029743
C9    C     C_R   0.699902 0.569643 0.970362 -0.021789
C10   C     C_R   0.325050 0.453638 0.942295 -0.024462
C11   C     C_R   0.000994 0.690351 0.560029 -0.015849
C12   C     C_R   0.008167 0.309643 0.430275 -0.029884
C13   C     C_R   0.463531 0.943478 0.466934 0.062648
C14   C     C_R   0.554618 0.975388 0.558456 0.065728
C15   C     C_R   0.002758 0.450411 0.445310 0.062402
C16   C     C_R   0.018974 0.547243 0.541405 0.061300
C17   C     C_R   0.465401 0.463485 0.945373 0.059942
C18   C     C_R   0.562184 0.560713 0.959849 0.058661
C19   C     C_R   0.011733 0.832450 0.569849 0.789122
C20   C     C_R   0.981888 0.169724 0.431536 0.834305
C21   C     C_R   0.834380 0.571225 0.006561 0.809158
C22   C     C_R   0.171903 0.435814 0.969502 0.790632
C23   C     C_R   0.564708 0.026476 0.828206 0.788363
C24   C     C_R   0.434320 0.975138 0.171211 0.822807
C25   C     C_R   0.436174 0.171843 0.968857 0.809789
C26   C     C_R   0.570764 0.833450 0.008508 0.800692
C27   C     C_R   0.970745 0.435764 0.171657 0.812182
C28   C     C_R   0.022736 0.566559 0.829169 0.770974
C29   C     C_R   0.170994 0.975160 0.434370 0.804959
C30   C     C_R   0.829717 0.018933 0.567772 0.820515
C31   C     C_R   0.413946 0.940663 0.416510 0.078998
C32   C     C_R   0.599431 0.995880 0.602258 0.072036
C33   C     C_R   0.990287 0.402779 0.399205 0.076569
C34   C     C_R   0.021330 0.597030 0.591943 0.071908
C35   C     C_R   0.415185 0.413406 0.943217 0.075780
C36   C     C_R   0.609470 0.608532 0.970936 0.070993
C37   C     C_R   0.268630 0.962413 0.399427 -0.184854
C38   C     C_R   0.734191 0.018540 0.606231 -0.181253
C39   C     C_R   0.957195 0.400205 0.270420 -0.193741
C40   C     C_R   0.025701 0.606082 0.732899 -0.192037
C41   C     C_R   0.403157 0.271637 0.946656 -0.193141
C42   C     C_R   0.614507 0.744008 0.990878 -0.198958
C43   C     C_R   0.599231 0.034519 0.729960 -0.181920
C44   C     C_R   0.398628 0.962187 0.269598 -0.189615
C45   C     C_R   0.745430 0.615483 0.987717 -0.192126
C46   C     C_R   0.272028 0.402062 0.947712 -0.195969
C47   C     C_R   0.005422 0.739682 0.609984 -0.193223
C48   C     C_R   0.980860 0.264822 0.391458 -0.187730
C49   C     C_R   0.459981 0.027705 0.714214 -0.112173
C50   C     C_R   0.547550 0.920980 0.296058 -0.130552
C51   C     C_R   0.973859 0.731574 0.480565 -0.123459
C52   C     C_R   0.051454 0.265646 0.499529 -0.110039
C53   C     C_R   0.743735 0.489964 0.943909 -0.115521
C54   C     C_R   0.292404 0.546132 0.930210 -0.123827
C55   C     C_R   0.292627 0.925553 0.549883 -0.124764
C56   C     C_R   0.734456 0.962596 0.486296 -0.127962
C57   C     C_R   0.549794 0.293640 0.922082 -0.108213
C58   C     C_R   0.482364 0.737122 0.961326 -0.126469
C59   C     C_R   0.938068 0.541690 0.294605 -0.114178
C60   C     C_R   0.074939 0.460136 0.697427 -0.111221
C61   C     C_R   0.305542 0.984183 0.306118 0.306769
C62   C     C_R   0.684765 0.045939 0.684991 0.326927
C63   C     C_R   0.951579 0.312877 0.313126 0.328882
C64   C     C_R   0.001799 0.699721 0.700209 0.303185
C65   C     C_R   0.314915 0.314495 0.939333 0.326272
C66   C     C_R   0.705809 0.705769 0.985201 0.299926
C67   C     C_R   0.687480 0.958103 0.435735 -0.082585
C68   C     C_R   0.335788 0.941889 0.597004 -0.078023
C69   C     C_R   0.072718 0.409674 0.647808 -0.067350
C70   C     C_R   0.956094 0.588828 0.335298 -0.077439
C71   C     C_R   0.431958 0.688653 0.960149 -0.085509
C72   C     C_R   0.600143 0.341597 0.925871 -0.073413
C73   C     C_R   0.595863 0.931877 0.341781 -0.073453
C74   C     C_R   0.418621 0.996145 0.678305 -0.100120
C75   C     C_R   0.337018 0.593662 0.942382 -0.079696
C76   C     C_R   0.697345 0.439985 0.937186 -0.069638
C77   C     C_R   0.060437 0.312215 0.548713 -0.060551
C78   C     C_R   0.978057 0.683136 0.427466 -0.081567
C79   C     C_R   0.727768 0.955247 0.346343 0.322955
C80   C     C_R   0.293109 0.953265 0.683682 0.351697
C81   C     C_R   0.099967 0.315862 0.673849 0.349656
C82   C     C_R   0.949252 0.680054 0.297466 0.319304
C83   C     C_R   0.342283 0.728631 0.958188 0.313913
C84   C     C_R   0.693239 0.307438 0.913446 0.332613
C85   C     C_R   0.684044 0.937702 0.300707 0.319744
C86   C     C_R   0.331146 0.987873 0.720577 0.352627
C87   C     C_R   0.295527 0.682123 0.947031 0.323962
C88   C     C_R   0.741702 0.356661 0.918421 0.317626
C89   C     C_R   0.094379 0.267599 0.624251 0.328055
C90   C     C_R   0.965250 0.725697 0.341715 0.313020
C91   C     C_R   0.552632 0.944735 0.427634 -0.024165
C92   C     C_R   0.465571 0.972958 0.597910 -0.026904
C93   C     C_R   0.034257 0.405464 0.522155 -0.024462
C94   C     C_R   0.994609 0.590991 0.460617 -0.018326
C95   C     C_R   0.424502 0.551837 0.950279 -0.021577
C96   C     C_R   0.605131 0.474834 0.947649 -0.022082
C97   C     C_R   0.598461 0.958501 0.474359 -0.021316
C98   C     C_R   0.421716 0.952517 0.554155 -0.026635
C99   C     C_R   0.472448 0.599847 0.958321 -0.018793
C100  C     C_R   0.556661 0.425998 0.941117 -0.024305
C101  C     C_R   0.041413 0.454027 0.570932 -0.027574
C102  C     C_R   0.985200 0.543207 0.413416 -0.022016
Cu1   Cu    Cu3+1 0.995180 0.995180 0.424630 1.182061
Cu2   Cu    Cu3+1 0.004820 0.004820 0.575370 1.194443
Cu3   Cu    Cu3+1 0.995180 0.424630 0.995180 1.182199
Cu4   Cu    Cu3+1 0.004820 0.575370 0.004820 1.189997
Cu5   Cu    Cu3+1 0.424630 0.995180 0.995180 1.176204
Cu6   Cu    Cu3+1 0.575370 0.004820 0.004820 1.185275
H1    H     H_    0.417618 0.063153 0.763190 0.228995
H2    H     H_    0.583707 0.899525 0.236468 0.210983
H3    H     H_    0.940089 0.801124 0.462363 0.188364
H4    H     H_    0.081306 0.195214 0.513903 0.205929
H5    H     H_    0.814926 0.469241 0.921243 0.210049
H6    H     H_    0.234756 0.583581 0.905650 0.209337
H7    H     H_    0.233495 0.904341 0.586846 0.213164
H8    H     H_    0.805118 0.938430 0.463035 0.193860
H9    H     H_    0.585189 0.234849 0.899454 0.222020
H10   H     H_    0.456778 0.807638 0.939570 0.212146
H11   H     H_    0.902571 0.578403 0.244156 0.204028
H12   H     H_    0.104124 0.426081 0.752649 0.216424
O1    O     O_R   0.124540 0.978640 0.385460 -0.506628
O2    O     O_R   0.875460 0.021360 0.614540 -0.492193
O3    O     O_R   0.978640 0.385460 0.124540 -0.500727
O4    O     O_R   0.021360 0.614540 0.875460 -0.502950
O5    O     O_R   0.385460 0.124540 0.978640 -0.490666
O6    O     O_R   0.614540 0.875460 0.021360 -0.509047
O7    O     O_R   0.614540 0.021360 0.875460 -0.497717
O8    O     O_R   0.385460 0.978640 0.124540 -0.500656
O9    O     O_R   0.875460 0.614540 0.021360 -0.500020
O10   O     O_R   0.124540 0.385460 0.978640 -0.500221
O11   O     O_R   0.021360 0.875460 0.614540 -0.514278
O12   O     O_R   0.978640 0.124540 0.385460 -0.491884
O13   O     O_R   0.013780 0.867370 0.487190 -0.606574
O14   O     O_R   0.986220 0.132630 0.512810 -0.585662
O15   O     O_R   0.867370 0.487190 0.013780 -0.594826
O16   O     O_R   0.132630 0.512810 0.986220 -0.592686
O17   O     O_R   0.487190 0.013780 0.867370 -0.615543
O18   O     O_R   0.512810 0.986220 0.132630 -0.592543
O19   O     O_R   0.512810 0.132630 0.986220 -0.594057
O20   O     O_R   0.487190 0.867370 0.013780 -0.602794
O21   O     O_R   0.986220 0.512810 0.132630 -0.586839
O22   O     O_R   0.013780 0.487190 0.867370 -0.602002
O23   O     O_R   0.132630 0.986220 0.512810 -0.604637
O24   O     O_R   0.867370 0.013780 0.487190 -0.599298
Cl1   Cl    Cl    0.235265 0.057955 0.235461 -0.508037
Cl2   Cl    Cl    0.723822 0.106536 0.722109 -0.481747
Cl3   Cl    Cl    0.895874 0.270531 0.273568 -0.477094
Cl4   Cl    Cl    0.948775 0.769949 0.773078 -0.448162
Cl5   Cl    Cl    0.263921 0.264221 0.903030 -0.459625
Cl6   Cl    Cl    0.775053 0.775813 0.954764 -0.421291
Cl7   Cl    Cl    0.267906 0.020984 0.819437 -0.331579
Cl8   Cl    Cl    0.737451 0.932874 0.188929 -0.396313
Cl9   Cl    Cl    0.987254 0.829260 0.283016 -0.394284
Cl10  Cl    Cl    0.126564 0.150583 0.660538 -0.458585
Cl11  Cl    Cl    0.858212 0.311254 0.903107 -0.439635
Cl12  Cl    Cl    0.182888 0.734000 0.945010 -0.391057
Cl13  Cl    Cl    0.189962 0.929272 0.744975 -0.371077
Cl14  Cl    Cl    0.821675 0.995845 0.285189 -0.380275
Cl15  Cl    Cl    0.750697 0.201861 0.893205 -0.389866
Cl16  Cl    Cl    0.284748 0.833642 0.979026 -0.400895
Cl17  Cl    Cl    0.928521 0.736330 0.191442 -0.393847
Cl18  Cl    Cl    0.139122 0.257012 0.770240 -0.376274

loop_
_geom_bond_atom_site_label_1
_geom_bond_atom_site_label_2
_ccdc_geom_bond_type
C68   C80   A    
Cu4   O9    S    
C83   C87   A    
C9    C45   A    
C18   C96   A    
C81   Cl18  S    
C6    C58   A    
C11   C47   A    
C52   H4    S    
C50   H2    S    
C12   C48   A    
Cu1   O24   S    
C79   Cl14  S    
C55   C68   A    
C89   Cl10  S    
C7    C49   A    
C75   C95   A    
C78   C90   A    
C77   C89   A    
Cu2   O14   S    
Cu4   O21   S    
C57   H9    S    
C25   O19   A    
Cu5   O8    S    
C66   Cl6   S    
C26   O20   A    
C24   O8    A    
C19   C47   S    
C58   C71   A    
Cu2   O2    S    
C3    C33   A    
C29   O23   A    
C5    C35   A    
C1    C31   A    
C22   O10   A    
C30   O24   A    
Cu3   O3    S    
C2    C32   A    
C26   O6    A    
C74   C92   A    
Cu5   O20   S    
C58   H10   S    
C25   O5    A    
C80   C86   A    
Cu1   Cu2   S    
C16   C34   A    
C54   H6    S    
C83   Cl16  S    
C30   O2    A    
C27   C39   S    
Cu2   O11   S    
C29   O1    A    
C10   C46   A    
C9    C36   A    
C59   H11   S    
Cu5   Cu6   S    
C10   C35   A    
C17   C95   A    
C7    C43   A    
Cu1   O12   S    
C76   C88   A    
C71   C83   A    
C1    C37   A    
Cu3   O15   S    
C81   C89   A    
Cu4   O16   S    
C3    C39   A    
C57   C72   A    
C13   C91   A    
C20   O12   A    
C10   C54   A    
C63   Cl3   S    
C12   C52   A    
C84   Cl15  S    
C53   H5    S    
C14   C92   A    
C21   C45   S    
C19   O11   A    
C4    C34   A    
C21   O15   A    
C51   C78   A    
C92   C98   A    
C88   Cl11  S    
C4    C40   A    
C67   C79   A    
Cu5   O5    S    
C46   C65   A    
Cu1   O13   S    
C50   C73   A    
C93   C101  A    
Cu3   O22   S    
C27   O3    A    
C48   C63   A    
C41   C65   A    
C24   O18   A    
C71   C99   A    
C91   C97   A    
C22   O16   A    
C84   C88   A    
Cu5   O17   S    
C2    C38   A    
C61   Cl1   S    
C21   O9    A    
C4    C60   A    
C70   C102  A    
C56   H8    S    
Cu2   O23   S    
C20   C48   S    
C74   C86   A    
C90   Cl9   S    
C73   C91   A    
C72   C84   A    
C69   C81   A    
C75   C87   A    
C22   C46   S    
C62   Cl2   S    
C24   C44   S    
C53   C76   A    
C28   O22   A    
C18   C99   A    
C25   C41   S    
C52   C77   A    
Cu1   O1    S    
C8    C50   A    
C47   C64   A    
C26   C42   S    
C14   C97   A    
C23   O7    A    
C72   C100  A    
C5    C41   A    
C51   H3    S    
C7    C32   A    
C87   Cl12  S    
C8    C31   A    
C23   O17   A    
C11   C34   A    
C15   C102  A    
C8    C44   A    
C14   C32   A    
C40   C64   A    
C15   C93   A    
Cu6   O19   S    
C37   C61   A    
C28   O4    A    
Cu3   O10   S    
C82   Cl17  S    
C69   C101  A    
C44   C61   A    
C19   O13   A    
C56   C67   A    
C39   C63   A    
Cu3   Cu4   S    
C16   C94   A    
C82   C90   A    
C5    C57   A    
Cu6   O6    S    
C1    C55   A    
C49   H1    S    
C73   C85   A    
C2    C56   A    
C86   Cl7   S    
C76   C96   A    
Cu6   O18   S    
C13   C31   A    
C80   Cl13  S    
C13   C98   A    
C55   H7    S    
C60   C69   A    
C78   C94   A    
C96   C100  A    
C77   C93   A    
C27   O21   A    
C79   C85   A    
C6    C36   A    
C60   H12   S    
C95   C99   A    
Cu6   O7    S    
C65   Cl5   S    
C70   C82   A    
C17   C100  A    
C68   C98   A    
C85   Cl8   S    
C11   C51   A    
C67   C97   A    
C59   C70   A    
C54   C75   A    
C16   C101  A    
C9    C53   A    
C94   C102  A    
C6    C42   A    
C29   C37   S    
C45   C66   A    
C42   C66   A    
Cu4   O4    S    
C28   C40   S    
C49   C74   A    
C17   C35   A    
C30   C38   S    
C20   O14   A    
C12   C33   A    
C23   C43   S    
C18   C36   A    
C15   C33   A    
C64   Cl4   S    
C43   C62   A    
C38   C62   A    
C3    C59   A    
