data_str_m4_o4_o15_f0_acs.sym.61
_audit_creation_date              2013-03-05T15:51:28-0500
_audit_creation_method            fapswitch 2.2
_symmetry_space_group_name_H-M    P1
_symmetry_Int_Tables_number       1
_space_group_crystal_system       triclinic
_cell_length_a                    19.614403
_cell_length_b                    11.127196
_cell_length_c                    18.569241
_cell_angle_alpha                 89.727656
_cell_angle_beta                  91.289674
_cell_angle_gamma                 90.155553
_cell_volume                      4051.7120438

loop_
_atom_site_label
_atom_site_type_symbol
_atom_site_description
_atom_site_fract_x
_atom_site_fract_y
_atom_site_fract_z
_atom_type_partial_charge
O1    O     O_R   0.957020 0.451640 0.669920 -0.440566
O2    O     O_R   0.042980 0.451640 0.330080 -0.435970
O3    O     O_R   0.457020 0.951640 0.669920 -0.429767
O4    O     O_R   0.542980 0.951640 0.330080 -0.440410
O5    O     O_R   0.821450 0.543440 0.674610 -0.486841
O6    O     O_R   0.178550 0.543440 0.325390 -0.471708
O7    O     O_R   0.321450 0.043440 0.674610 -0.479744
O8    O     O_R   0.678550 0.043440 0.325390 -0.483418
C1    C     C_R   0.758820 0.538979 0.650176 0.563717
C2    C     C_R   0.241880 0.539066 0.349512 0.546260
C3    C     C_R   0.258260 0.039005 0.648979 0.559452
C4    C     C_R   0.741512 0.040099 0.349153 0.559444
O9    O     O_R   0.715320 0.458650 0.668100 -0.464736
O10   O     O_R   0.284680 0.458650 0.331900 -0.461204
O11   O     O_R   0.215320 0.958650 0.668100 -0.502682
O12   O     O_R   0.784680 0.958650 0.331900 -0.511564
O13   O     O_R   0.737170 0.209590 0.674530 -0.508038
O14   O     O_R   0.262830 0.209590 0.325470 -0.536897
O15   O     O_R   0.237170 0.709590 0.674530 -0.510139
O16   O     O_R   0.762830 0.709590 0.325470 -0.507114
C5    C     C_R   0.791540 0.175304 0.639116 0.555294
C6    C     C_R   0.207730 0.176045 0.361008 0.552471
C7    C     C_R   0.292884 0.676669 0.639687 0.552559
C8    C     C_R   0.708561 0.673173 0.360664 0.552097
O17   O     O_R   0.832710 0.092740 0.669580 -0.426277
O18   O     O_R   0.167290 0.092740 0.330420 -0.449787
O19   O     O_R   0.332710 0.592740 0.669580 -0.432930
O20   O     O_R   0.667290 0.592740 0.330420 -0.450286
O21   O     O_R   0.946290 0.250060 0.676040 -0.545857
O22   O     O_R   0.053710 0.250060 0.323960 -0.542939
O23   O     O_R   0.446290 0.750060 0.676040 -0.544078
O24   O     O_R   0.553710 0.750060 0.323960 -0.552561
C9    C     C_R   0.971266 0.344927 0.647334 0.532949
C10   C     C_R   0.028612 0.345421 0.352557 0.529757
C11   C     C_R   0.469032 0.845865 0.645577 0.519182
C12   C     C_R   0.528622 0.842924 0.352258 0.581051
O25   O     O_R   0.956270 0.452200 0.830470 -0.514006
O26   O     O_R   0.043730 0.452200 0.169530 -0.506558
O27   O     O_R   0.456270 0.952200 0.830470 -0.517953
O28   O     O_R   0.543730 0.952200 0.169530 -0.506741
O29   O     O_R   0.820760 0.543950 0.823440 -0.502496
O30   O     O_R   0.179240 0.543950 0.176560 -0.500865
O31   O     O_R   0.320760 0.043950 0.823440 -0.503787
O32   O     O_R   0.679240 0.043950 0.176560 -0.501318
C13   C     C_R   0.762050 0.527955 0.853356 0.538587
C14   C     C_R   0.239163 0.532445 0.148449 0.541836
C15   C     C_R   0.262624 0.025948 0.854198 0.536628
C16   C     C_R   0.737741 0.027361 0.146357 0.538123
O33   O     O_R   0.714570 0.459210 0.828640 -0.524231
O34   O     O_R   0.285430 0.459210 0.171360 -0.526103
O35   O     O_R   0.214570 0.959210 0.828640 -0.524096
O36   O     O_R   0.785430 0.959210 0.171360 -0.524407
O37   O     O_R   0.736470 0.210100 0.823360 -0.507522
O38   O     O_R   0.263530 0.210100 0.176640 -0.520269
O39   O     O_R   0.236470 0.710100 0.823360 -0.505306
O40   O     O_R   0.763530 0.710100 0.176640 -0.506113
C17   C     C_R   0.772929 0.125139 0.851964 0.554609
C18   C     C_R   0.227393 0.124531 0.148321 0.546523
C19   C     C_R   0.274506 0.629411 0.853904 0.549203
C20   C     C_R   0.726985 0.625952 0.147786 0.554713
O41   O     O_R   0.831960 0.093290 0.830130 -0.509839
O42   O     O_R   0.168040 0.093290 0.169870 -0.510219
O43   O     O_R   0.331960 0.593290 0.830130 -0.505844
O44   O     O_R   0.668040 0.593290 0.169870 -0.510977
O45   O     O_R   0.945600 0.250580 0.824860 -0.517799
O46   O     O_R   0.054400 0.250580 0.175140 -0.515589
O47   O     O_R   0.445600 0.750580 0.824860 -0.513550
O48   O     O_R   0.554400 0.750580 0.175140 -0.513849
C21   C     C_R   0.971540 0.346990 0.852016 0.542702
C22   C     C_R   0.032064 0.347249 0.145255 0.538603
C23   C     C_R   0.471405 0.846852 0.852102 0.542675
C24   C     C_R   0.531910 0.847270 0.145379 0.548136
Cr1   Cr    Cr6+3 0.885860 0.491680 0.749630 1.088420
Cr2   Cr    Cr6+3 0.114140 0.491680 0.250370 1.100501
Cr3   Cr    Cr6+3 0.385860 0.991680 0.749630 1.093322
Cr4   Cr    Cr6+3 0.614140 0.991680 0.250370 1.085262
Cr5   Cr    Cr6+3 0.730490 0.332970 0.748720 1.049160
Cr6   Cr    Cr6+3 0.269510 0.332970 0.251280 1.022032
Cr7   Cr    Cr6+3 0.230490 0.832970 0.748720 1.032857
Cr8   Cr    Cr6+3 0.769510 0.832970 0.251280 1.030445
Cr9   Cr    Cr6+3 0.887570 0.179310 0.750150 1.038494
Cr10  Cr    Cr6+3 0.112430 0.179310 0.249850 1.030403
Cr11  Cr    Cr6+3 0.387570 0.679310 0.750150 1.044416
Cr12  Cr    Cr6+3 0.612430 0.679310 0.249850 1.041348
O49   O     O_3   0.834640 0.334650 0.749500 -0.309257
O50   O     O_3   0.165360 0.334650 0.250500 -0.302242
O51   O     O_3   0.334640 0.834650 0.749500 -0.306513
O52   O     O_3   0.665360 0.834650 0.250500 -0.305261
C25   C     C_R   0.756064 0.107019 0.414658 0.119593
C26   C     C_R   0.233485 0.120942 0.590076 0.006964
C27   C     C_R   0.258378 0.599469 0.416620 0.099970
C28   C     C_R   0.743617 0.604919 0.584584 0.124173
C29   C     C_R   0.703501 0.111869 0.461573 0.026530
C30   C     C_R   0.275664 0.199380 0.555299 0.011336
C31   C     C_R   0.208494 0.593510 0.466330 -0.052526
C32   C     C_R   0.796326 0.615129 0.538025 -0.017879
C33   C     C_R   0.713918 0.142649 0.533360 0.000918
C34   C     C_R   0.262819 0.238956 0.484528 -0.006466
C35   C     C_R   0.219838 0.633996 0.535613 -0.041922
C36   C     C_R   0.785116 0.651409 0.467289 -0.015387
C37   C     C_R   0.829745 0.190255 0.509428 -0.052755
C38   C     C_R   0.157725 0.135589 0.483796 -0.071100
C39   C     C_R   0.332518 0.688563 0.509523 -0.038226
C40   C     C_R   0.666098 0.660914 0.486845 -0.046856
C41   C     C_R   0.818980 0.156865 0.436283 -0.054261
C42   C     C_R   0.168097 0.109630 0.558393 -0.079807
C43   C     C_R   0.321111 0.653672 0.436540 -0.014689
C44   C     C_R   0.678412 0.640604 0.560984 -0.016502
C45   C     C_3   0.640247 0.179773 0.449177 0.065307
C46   C     C_3   0.349780 0.198534 0.552743 0.106573
C47   C     C_3   0.142195 0.653209 0.457903 0.101178
C48   C     C_3   0.855526 0.692744 0.550824 0.082802
C49   C     C_3   0.654094 0.225540 0.524580 0.052865
C50   C     C_3   0.337587 0.244092 0.475361 0.092063
C51   C     C_3   0.158823 0.711302 0.530594 0.082162
C52   C     C_3   0.836664 0.749553 0.478125 0.084228
C53   C     C_R   0.779018 0.168616 0.560267 0.100151
C54   C     C_R   0.210426 0.183871 0.442629 -0.034168
C55   C     C_R   0.282866 0.666275 0.561203 0.084239
C56   C     C_R   0.719657 0.659729 0.438482 0.085540
H1    H     H_    0.876825 0.228843 0.527290 0.109561
H2    H     H_    0.112231 0.104930 0.456655 0.198217
H3    H     H_    0.377802 0.733364 0.526117 0.110900
H4    H     H_    0.616516 0.679925 0.466666 0.115512
H5    H     H_    0.858488 0.167245 0.397467 0.089215
H6    H     H_    0.129439 0.062307 0.587549 0.169918
H7    H     H_    0.360358 0.665861 0.397234 0.124535
H8    H     H_    0.637276 0.641847 0.598454 0.116612
H9    H     H_    0.105211 0.579111 0.455414 0.098026
H10   H     H_    0.896375 0.627300 0.555667 0.107310
H11   H     H_    0.599839 0.112101 0.441265 0.109247
H12   H     H_    0.370609 0.105897 0.555782 0.106175
H13   H     H_    0.615169 0.206694 0.563303 0.156245
H14   H     H_    0.348901 0.180317 0.433639 0.077639
H15   H     H_    0.130220 0.694594 0.578917 0.146037
H16   H     H_    0.873312 0.749445 0.434408 0.109140
C57   C     C_R   0.996412 0.335730 0.424019 -0.036834
C58   C     C_R   0.003857 0.333161 0.575979 -0.033585
C59   C     C_R   0.489660 0.824199 0.419482 -0.001393
C60   C     C_R   0.495505 0.836078 0.571144 -0.044343
C61   C     C_R   0.983789 0.117033 0.423694 -0.108986
C62   C     C_R   0.001153 0.110607 0.573043 -0.095191
C63   C     C_R   0.496260 0.603019 0.426282 -0.067652
C64   C     C_R   0.507116 0.614392 0.575944 -0.074812
C65   C     C_R   0.979244 0.009249 0.460505 -0.032888
C66   C     C_R   0.988227 0.005808 0.534937 -0.016805
C67   C     C_R   0.504413 0.498966 0.467120 -0.001707
C68   C     C_R   0.505337 0.504599 0.541620 -0.004829
C69   C     C_R   0.001862 0.222944 0.537605 -0.035098
C70   C     C_R   0.995808 0.225136 0.461066 -0.036824
C71   C     C_R   0.500251 0.722579 0.536598 -0.046678
C72   C     C_R   0.495038 0.716530 0.459916 -0.059088
H17   H     H_    0.966356 0.929740 0.430652 0.133779
H18   H     H_    0.983898 0.922277 0.563785 0.165250
H19   H     H_    0.508416 0.413123 0.440954 0.181984
H20   H     H_    0.508375 0.423820 0.573752 0.188197
H21   H     H_    0.972468 0.115455 0.366451 0.135729
H22   H     H_    0.012276 0.101397 0.630018 0.138683
H23   H     H_    0.488777 0.592819 0.368818 0.163965
H24   H     H_    0.517952 0.611904 0.633129 0.146191
C73   C     C_R   0.010682 0.440424 0.536883 -0.045515
C74   C     C_R   0.989750 0.441972 0.463952 -0.047947
C75   C     C_R   0.491951 0.940392 0.527269 -0.048016
C76   C     C_R   0.471422 0.928099 0.454745 -0.015024
C77   C     C_R   0.030387 0.549441 0.570789 0.273426
C78   C     C_R   0.968928 0.552601 0.432038 0.294512
C79   C     C_R   0.509935 0.056807 0.551839 0.292338
C80   C     C_R   0.447944 0.026269 0.413768 0.260134
C81   C     C_R   0.013400 0.657476 0.536860 -0.164273
C82   C     C_R   0.987115 0.658684 0.466802 -0.143432
C83   C     C_R   0.495414 0.155412 0.506612 -0.148386
C84   C     C_R   0.468890 0.139603 0.436936 -0.162888
H25   H     H_    0.023090 0.741054 0.564123 0.166497
H26   H     H_    0.980987 0.742708 0.439391 0.163295
H27   H     H_    0.509034 0.244611 0.523327 0.159945
H28   H     H_    0.465345 0.215201 0.400707 0.196587
C85   C     C_R   0.743351 0.054624 0.070307 0.021498
C86   C     C_R   0.257925 0.050610 0.930779 0.022291
C87   C     C_R   0.252078 0.588916 0.079364 0.021602
C88   C     C_R   0.756022 0.556466 0.929088 0.023954
C89   C     C_R   0.790326 0.987722 0.031803 0.040697
C90   C     C_R   0.213189 0.979744 0.970506 0.046062
C91   C     C_R   0.314731 0.570538 0.046141 0.025457
C92   C     C_R   0.711848 0.484974 0.969112 0.041786
C93   C     C_R   0.794407 0.997024 0.958461 0.024235
C94   C     C_R   0.209235 0.989716 0.043892 0.029041
C95   C     C_R   0.319309 0.578302 0.972660 0.036476
C96   C     C_R   0.708287 0.494679 0.042473 0.022759
C97   C     C_R   0.696493 0.127661 0.956476 -0.153402
C98   C     C_R   0.304480 0.126465 0.044043 -0.168311
C99   C     C_R   0.202518 0.642155 0.962421 -0.154170
C100  C     C_R   0.800849 0.637813 0.041379 -0.162882
C101  C     C_R   0.692970 0.118424 0.031551 -0.155303
C102  C     C_R   0.307483 0.117604 0.968838 -0.170154
C103  C     C_R   0.197506 0.635172 0.037407 -0.153931
C104  C     C_R   0.804083 0.627567 0.966379 -0.167582
C105  C     C_3   0.865715 0.978656 0.042926 -0.271240
C106  C     C_3   0.138307 0.960268 0.960393 -0.267630
C107  C     C_3   0.363272 0.466254 0.048873 -0.265645
C108  C     C_3   0.636811 0.466369 0.959414 -0.268403
C109  C     C_3   0.870693 0.988175 0.962128 -0.267777
C110  C     C_3   0.133665 0.969366 0.041342 -0.267201
C111  C     C_3   0.366848 0.474564 0.967967 -0.269661
C112  C     C_3   0.632626 0.474820 0.040343 -0.267632
C113  C     C_R   0.751429 0.075604 0.920240 0.019432
C114  C     C_R   0.250051 0.073056 0.080999 0.018829
C115  C     C_R   0.262617 0.605249 0.929211 0.020150
C116  C     C_R   0.748642 0.578931 0.079206 0.018965
H29   H     H_    0.660232 0.184215 0.927953 0.126762
H30   H     H_    0.340888 0.183263 0.072090 0.120453
H31   H     H_    0.158937 0.671617 0.930389 0.123662
H32   H     H_    0.835059 0.699928 0.068471 0.133109
H33   H     H_    0.653301 0.165192 0.059323 0.123023
H34   H     H_    0.346058 0.167293 0.940534 0.118247
H35   H     H_    0.149311 0.655199 0.061465 0.127920
H36   H     H_    0.841714 0.678972 0.937601 0.123288
H37   H     H_    0.882133 0.890017 0.064564 0.139240
H38   H     H_    0.125461 0.869638 0.939547 0.139710
H39   H     H_    0.339331 0.381294 0.066269 0.165404
H40   H     H_    0.623394 0.376149 0.938398 0.136501
H41   H     H_    0.887593 0.057503 0.071960 0.137867
H42   H     H_    0.113008 0.035741 0.930988 0.140145
H43   H     H_    0.412219 0.488829 0.076993 0.132648
H44   H     H_    0.611586 0.542370 0.930411 0.141415
H45   H     H_    0.896101 0.072296 0.945314 0.162968
H46   H     H_    0.104328 0.048733 0.057987 0.164658
H47   H     H_    0.417970 0.500193 0.949005 0.138628
H48   H     H_    0.603435 0.554250 0.057385 0.164639
H49   H     H_    0.889682 0.904750 0.936778 0.137769
H50   H     H_    0.118998 0.883333 0.067496 0.135714
H51   H     H_    0.343313 0.396328 0.939751 0.142014
H52   H     H_    0.617933 0.388657 0.066333 0.134194
C117  C     C_R   0.015955 0.342347 0.069477 0.022660
C118  C     C_R   0.008649 0.339744 0.919672 0.019247
C119  C     C_R   0.515570 0.842399 0.069708 0.022385
C120  C     C_R   0.508049 0.838455 0.919939 0.018895
C121  C     C_R   0.029109 0.445988 0.029728 0.040176
C122  C     C_R   0.026017 0.445805 0.956241 0.024799
C123  C     C_R   0.531079 0.944464 0.029438 0.042165
C124  C     C_R   0.528134 0.943527 0.955913 0.026326
C125  C     C_R   0.009303 0.230621 0.958090 -0.172343
C126  C     C_R   0.010624 0.232276 0.033209 -0.171039
C127  C     C_R   0.505478 0.730018 0.958998 -0.163752
C128  C     C_R   0.507395 0.732386 0.034046 -0.164969
C129  C     C_3   0.998580 0.567832 0.036104 -0.274488
C130  C     C_3   0.995572 0.570070 0.954902 -0.265333
C131  C     C_3   0.503218 0.068386 0.035104 -0.271182
C132  C     C_3   0.500853 0.069964 0.953882 -0.263041
H53   H     H_    0.001388 0.146005 0.930755 0.121160
H54   H     H_    0.005260 0.148892 0.062707 0.118609
H55   H     H_    0.494627 0.646055 0.932168 0.125830
H56   H     H_    0.500395 0.649766 0.063941 0.119027
H57   H     H_    0.034318 0.635052 0.059643 0.137313
H58   H     H_    0.942284 0.573704 0.934138 0.169982
H59   H     H_    0.540111 0.133337 0.058856 0.139038
H60   H     H_    0.447975 0.077680 0.932597 0.169126
H61   H     H_    0.947484 0.565357 0.060830 0.142724
H62   H     H_    0.030372 0.637865 0.931246 0.128847
H63   H     H_    0.451960 0.069501 0.059406 0.139926
H64   H     H_    0.537429 0.134709 0.930280 0.129879
N1    N     N_R   0.640659 0.270907 0.391127 0.119604
O53   O     O_R   0.696684 0.320563 0.369065 -0.302320
O54   O     O_R   0.584665 0.290206 0.354172 -0.369800
N2    N     N_R   0.379631 0.280727 0.606877 0.113036
O55   O     O_R   0.340828 0.355622 0.640629 -0.285607
O56   O     O_R   0.437850 0.253262 0.637279 -0.328569
N3    N     N_R   0.135733 0.736461 0.395593 0.134531
O57   O     O_R   0.184958 0.808857 0.377805 -0.275257
O58   O     O_R   0.082320 0.729564 0.353025 -0.323605
N4    N     N_R   0.853020 0.771088 0.614700 0.130211
O59   O     O_R   0.797073 0.823350 0.634269 -0.282440
O60   O     O_R   0.907570 0.782962 0.655192 -0.348095
N5    N     N_R   0.672069 0.350811 0.527611 0.102432
O61   O     O_R   0.727254 0.392917 0.499251 -0.358871
O62   O     O_R   0.632580 0.419689 0.563463 -0.402997
N6    N     N_R   0.362416 0.364194 0.460505 0.068379
O63   O     O_R   0.359309 0.447431 0.508751 -0.327965
O64   O     O_R   0.390122 0.387286 0.399081 -0.399871
N7    N     N_R   0.169836 0.839148 0.522372 0.107510
O65   O     O_R   0.230038 0.884675 0.511927 -0.353117
O66   O     O_R   0.116074 0.899886 0.503554 -0.396375
N8    N     N_R   0.807339 0.867917 0.488004 0.098902
O67   O     O_R   0.742357 0.881299 0.497548 -0.391424
O68   O     O_R   0.848422 0.949607 0.512587 -0.353204
O69   O     O_3   0.933941 0.562008 0.366146 -0.538473
C133  C     C_3   0.878341 0.480670 0.361636 -0.085081
H65   H     H_    0.837407 0.521742 0.327821 0.184652
H66   H     H_    0.856208 0.458044 0.414794 0.126796
H67   H     H_    0.893398 0.397184 0.333860 0.116966
O70   O     O_3   0.064110 0.554893 0.637812 -0.544311
C134  C     C_3   0.119619 0.473607 0.643039 -0.102639
H68   H     H_    0.161351 0.516444 0.674924 0.177161
H69   H     H_    0.140769 0.447987 0.590081 0.098575
H70   H     H_    0.104766 0.391661 0.673091 0.125402
O71   O     O_3   0.427810 0.003753 0.342479 -0.565183
C135  C     C_3   0.368918 0.062265 0.320823 -0.066995
H71   H     H_    0.378861 0.160357 0.317451 0.167818
H72   H     H_    0.326588 0.033781 0.355915 0.164465
H73   H     H_    0.355051 0.032304 0.265494 0.152652
O72   O     O_3   0.543776 0.078473 0.617506 -0.521797
C136  C     C_3   0.601858 0.003758 0.628251 -0.098880
H74   H     H_    0.642573 0.057123 0.655106 0.172883
H75   H     H_    0.622687 0.967158 0.577530 0.120406
H76   H     H_    0.591021 0.929366 0.666098 0.134581

loop_
_geom_bond_atom_site_label_1
_geom_bond_atom_site_label_2
_geom_bond_distance
_ccdc_geom_bond_type
O4    C12   1.308028 A    
O39   C19   1.290032 A    
C62   C66   1.386715 A    
C134  H68   1.107480 S    
C39   H3    1.057879 S    
C111  H47   1.106411 S    
C65   C66   1.389741 A    
C87   C103  1.406869 A    
C136  H74   1.105152 S    
C60   C75   1.415909 A    
C109  H45   1.106201 S    
N8    O67   1.299852 A    
C85   C101  1.401909 A    
C59   C76   1.383235 A    
C64   C71   1.410387 A    
O25   C21   1.269785 A    
C31   C35   1.378294 A    
C34   C50   1.481084 S    
O21   C9    1.281419 A    
C59   C72   1.413772 A    
C94   C110  1.498581 S    
C1    O9    1.282000 A    
O44   Cr12  2.098507 S    
C5    C53   1.481365 S    
C3    O11   1.281109 A    
C98   C114  1.410512 A    
C4    O12   1.288448 A    
C64   H24   1.078479 S    
C67   H19   1.077582 S    
C88   C104  1.402089 A    
C61   C65   1.381291 A    
O2    C10   1.284271 A    
C71   C72   1.427197 A    
C49   H13   1.079964 S    
C129  C130  1.507770 S    
O17   Cr9   2.063922 S    
C106  H38   1.108263 S    
C62   H22   1.079867 S    
Cr7   O51   2.042603 S    
C77   C81   1.392326 A    
C8    C56   1.463477 S    
O16   Cr8   1.946548 S    
C27   C43   1.411464 A    
C76   C80   1.401197 A    
C125  H53   1.080950 S    
C94   C114  1.397453 A    
C79   C83   1.404440 A    
C129  H57   1.108306 S    
O13   C5    1.323427 A    
O28   Cr4   2.064790 S    
O12   Cr8   2.069541 S    
C112  H52   1.111549 S    
O15   C7    1.335390 A    
C102  H34   1.080410 S    
O46   Cr10  1.942278 S    
C66   H18   1.074694 S    
O48   C24   1.281992 A    
C121  C129  1.489924 S    
C17   O41   1.286601 A    
C86   C90   1.398501 A    
C61   H21   1.081211 S    
C135  H71   1.109973 S    
C2    C27   1.448434 S    
C63   C67   1.388655 A    
C108  H40   1.107720 S    
N4    O60   1.300598 A    
O72   C136  1.422047 S    
C82   H26   1.068173 S    
C136  H76   1.106598 S    
C6    C54   1.518279 S    
C133  H67   1.108656 S    
C14   C87   1.452881 S    
Cr12  O52   2.013848 S    
C78   O69   1.392989 S    
C101  H33   1.079352 S    
C19   O43   1.285663 A    
C41   H5    1.075758 S    
C20   O44   1.286319 A    
C98   H30   1.079150 S    
C47   N3    1.482160 S    
Cr8   O52   2.042703 S    
C133  H66   1.114688 S    
O46   C22   1.281748 A    
N7    O66   1.294567 A    
C33   C53   1.390779 A    
C35   C55   1.362315 A    
C120  C124  1.400506 A    
C16   O36   1.283169 A    
C95   C115  1.391587 A    
C18   C114  1.456569 S    
C39   C43   1.424201 A    
O31   C15   1.301394 A    
C73   C77   1.418108 A    
C88   C92   1.398413 A    
C99   H31   1.081085 S    
C77   O70   1.397719 S    
O47   Cr11  1.945138 S    
C67   C68   1.384834 A    
C89   C105  1.492080 S    
O24   C12   1.267111 A    
C62   C69   1.410046 A    
C134  H69   1.114506 S    
C105  H41   1.112019 S    
O30   C14   1.303611 A    
N1    O53   1.302107 A    
O8    Cr4   1.947532 S    
C125  C126  1.394770 A    
O32   Cr4   1.978497 S    
C100  H32   1.080119 S    
C117  C121  1.392898 A    
C28   C44   1.400476 A    
C135  H73   1.109448 S    
O11   Cr7   2.060998 S    
N2    O55   1.302490 A    
C92   C108  1.492729 S    
C106  C110  1.511857 S    
O27   Cr3   2.063348 S    
O3    Cr3   2.107164 S    
C46   C50   1.535333 S    
C108  C112  1.510247 S    
C109  H49   1.111734 S    
Cr5   O49   2.042603 S    
C132  H64   1.110913 S    
C121  C122  1.364601 A    
C107  C111  1.507960 S    
C1    C28   1.444685 S    
C61   C70   1.408240 A    
C34   C54   1.415003 A    
C58   C69   1.421314 A    
C127  H55   1.079321 S    
O22   C10   1.292377 A    
C107  H39   1.104577 S    
C2    O10   1.277350 A    
C49   N5    1.437937 S    
C99   C103  1.399882 A    
C96   C112  1.499477 S    
C22   C117  1.436475 S    
O5    C1    1.300848 A    
O3    C11   1.287040 A    
O8    C4    1.302601 A    
C50   H14   1.080210 S    
C99   C115  1.405803 A    
C44   H8    1.077386 S    
C46   H12   1.110549 S    
Cr1   O49   2.013155 S    
Cr3   O51   2.013155 S    
C78   C82   1.389936 A    
C57   C70   1.407119 A    
C29   C33   1.388413 A    
C48   C52   1.526290 S    
O26   Cr2   2.064790 S    
C19   C115  1.446687 S    
C5    O17   1.339638 A    
C80   O71   1.396497 S    
O29   C13   1.301195 A    
O28   C24   1.271583 A    
O14   C6    1.330565 A    
C8    O20   1.323661 A    
N3    O57   1.303034 A    
C40   H4    1.055901 S    
N8    O68   1.291275 A    
O40   Cr8   1.952903 S    
C37   C53   1.406397 A    
C38   H2    1.070688 S    
C51   H15   1.083967 S    
C85   C89   1.397412 A    
C32   C36   1.385313 A    
N5    O62   1.289125 A    
O33   Cr5   2.077534 S    
C25   C29   1.366019 A    
C12   C59   1.491752 S    
O35   Cr7   2.077534 S    
O29   Cr1   1.984357 S    
C97   C101  1.400622 A    
C117  C126  1.403061 A    
N6    O63   1.294147 A    
C25   C41   1.402812 A    
C81   H25   1.075404 S    
C48   H10   1.086110 S    
Cr9   O49   2.018583 S    
C84   H28   1.076032 S    
C29   C45   1.467571 S    
C18   O42   1.285965 A    
Cr11  O51   2.018583 S    
O26   C22   1.272093 A    
C79   O72   1.396821 S    
O20   Cr12  2.060007 S    
C52   N8    1.452687 S    
C123  C124  1.365328 A    
C36   C52   1.497448 S    
C73   C74   1.406320 A    
C50   N6    1.448538 S    
C110  H46   1.104506 S    
C86   C102  1.403639 A    
C100  C104  1.400767 A    
C120  C127  1.406231 A    
C40   C56   1.397494 A    
C15   C86   1.454573 S    
C35   C51   1.476729 S    
C104  H36   1.081720 S    
C30   C34   1.401649 A    
C127  C128  1.393618 A    
C95   C111  1.489951 S    
C123  C131  1.489682 S    
O70   C134  1.418704 S    
C90   C94   1.371705 A    
C93   C109  1.499819 S    
C13   C88   1.450573 S    
C74   C78   1.420638 A    
C47   H9    1.097166 S    
C97   C113  1.410366 A    
C45   H11   1.099709 S    
N7    O65   1.301820 A    
O6    Cr2   1.947532 S    
C129  H61   1.111962 S    
C103  H35   1.078878 S    
C135  H72   1.111494 S    
O42   Cr10  2.098507 S    
O18   Cr10  2.060007 S    
O31   Cr3   1.984357 S    
C105  H37   1.109086 S    
O34   Cr6   2.066821 S    
C26   C30   1.370412 A    
C136  H75   1.114317 S    
O24   Cr12  1.981594 S    
O30   Cr2   1.978497 S    
C126  H54   1.081306 S    
C26   C42   1.404559 A    
C48   N4    1.477144 S    
O71   C135  1.378629 S    
O37   C17   1.291915 A    
C20   C116  1.451851 S    
C15   O35   1.282384 A    
C130  H58   1.106671 S    
Cr10  O50   2.013848 S    
C30   C46   1.455644 S    
C37   H1    1.064220 S    
O40   C20   1.288967 A    
O43   Cr11  2.089347 S    
O48   Cr12  1.942278 S    
O37   Cr5   1.944105 S    
O21   Cr9   1.973897 S    
O69   C133  1.416576 S    
C91   C95   1.371745 A    
C11   C60   1.491947 S    
O39   Cr7   1.944105 S    
O45   Cr9   1.945138 S    
C13   O33   1.281926 A    
C9    C58   1.490526 S    
C122  C130  1.507515 S    
O13   Cr5   1.956262 S    
O15   Cr7   1.956262 S    
C60   C71   1.423436 A    
C63   C72   1.412210 A    
O23   C11   1.287811 A    
C107  H43   1.111242 S    
C45   N1    1.476582 S    
C40   C44   1.409646 A    
C51   N7    1.446181 S    
C96   C116  1.395856 A    
C119  C123  1.393479 A    
O6    C2    1.311898 A    
C63   H23   1.080307 S    
C52   H16   1.096362 S    
C42   H6    1.076541 S    
C24   C119  1.435434 S    
O1    Cr1   2.107164 S    
O19   Cr11  2.063922 S    
C97   H29   1.079208 S    
C69   C70   1.423658 A    
C111  H51   1.112082 S    
N3    O58   1.300458 A    
C133  H65   1.106528 S    
O45   C21   1.286329 A    
C58   C73   1.401697 A    
O47   C23   1.284644 A    
C119  C128  1.401652 A    
C80   C84   1.392335 A    
N2    O56   1.298977 A    
C6    O18   1.338575 A    
C124  C132  1.506574 S    
N4    O59   1.303026 A    
C7    C55   1.471241 S    
O41   Cr9   2.089347 S    
C68   H20   1.077534 S    
O36   Cr8   2.066821 S    
O38   Cr6   1.952903 S    
C131  H59   1.107391 S    
O32   C16   1.302458 A    
C83   C84   1.395344 A    
O22   Cr10  1.981594 S    
C81   C82   1.388563 A    
C75   C76   1.404122 A    
C90   C106  1.491904 S    
C28   C32   1.366706 A    
C64   C68   1.380637 A    
O1    C9    1.294507 A    
O7    C3    1.318523 A    
C32   C48   1.461080 S    
C106  H42   1.111458 S    
C57   C74   1.406417 A    
C17   C113  1.450944 S    
O23   Cr11  1.973897 S    
O16   C8    1.323194 A    
C105  C109  1.508927 S    
C36   C56   1.382924 A    
C7    O19   1.330421 A    
C112  H48   1.105774 S    
Cr4   O52   2.017863 S    
C46   N2    1.472781 S    
C38   C54   1.403634 A    
O14   Cr6   1.946548 S    
C110  H50   1.111505 S    
C65   H17   1.072874 S    
Cr6   O50   2.042703 S    
O27   C23   1.271078 A    
O5    Cr1   1.945645 S    
C100  C116  1.412664 A    
C16   C85   1.449540 S    
C87   C91   1.403314 A    
C37   C41   1.420881 A    
O9    Cr5   2.060998 S    
C108  H44   1.111740 S    
C93   C113  1.396426 A    
C4    C25   1.451677 S    
C134  H70   1.108489 S    
N1    O54   1.299711 A    
C89   C93   1.369467 A    
O7    Cr3   1.945645 S    
C83   H27   1.072655 S    
C91   C107  1.502939 S    
C92   C96   1.370409 A    
C75   C79   1.416504 A    
C21   C118  1.439737 S    
C130  H62   1.111531 S    
N5    O61   1.299631 A    
C23   C120  1.438964 S    
Cr2   O50   2.017863 S    
N6    O64   1.298702 A    
C33   C49   1.500003 S    
O38   C18   1.292217 A    
O25   Cr1   2.063348 S    
C128  H56   1.081709 S    
C39   C55   1.403357 A    
O2    Cr2   2.102584 S    
C131  H63   1.111382 S    
C131  C132  1.507931 S    
C132  H60   1.105011 S    
C45   C49   1.510807 S    
C14   O34   1.285281 A    
C10   C57   1.485748 S    
C31   C47   1.466753 S    
C3    C26   1.494244 S    
C38   C42   1.423895 A    
O10   Cr6   2.069541 S    
C118  C122  1.401770 A    
O4    Cr4   2.102584 S    
C98   C102  1.403013 A    
C118  C125  1.405304 A    
C27   C31   1.361455 A    
C47   C51   1.527600 S    
C43   H7    1.080520 S    
