data_str_m3_o5_o17_f0_pcu.sym.39
_audit_creation_date              2013-03-05T16:46:59-0500
_audit_creation_method            fapswitch 2.2
_symmetry_space_group_name_H-M    P1
_symmetry_Int_Tables_number       1
_space_group_crystal_system       triclinic
_cell_length_a                    14.962965
_cell_length_b                    8.962911
_cell_length_c                    8.116773
_cell_angle_alpha                 90.061316
_cell_angle_beta                  90.001123
_cell_angle_gamma                 89.988133
_cell_volume                      1088.55377014

loop_
_atom_site_label
_atom_site_type_symbol
_atom_site_description
_atom_site_fract_x
_atom_site_fract_y
_atom_site_fract_z
_atom_type_partial_charge
O1    O     O_R   0.500000 0.285350 0.636850 -0.623130
O2    O     O_R   0.500000 0.714650 0.363150 -0.623334
O3    O     O_R   0.500000 0.714650 0.636850 -0.594820
O4    O     O_R   0.500000 0.285350 0.363150 -0.595038
H1    H     H_    0.919803 0.124110 0.452122 0.195133
H2    H     H_    0.080138 0.875931 0.548558 0.195304
H3    H     H_    0.919595 0.875852 0.548563 0.195242
H4    H     H_    0.080371 0.124164 0.452269 0.195563
C1    C     C_R   0.500013 0.217980 0.499961 0.994041
C2    C     C_R   0.500033 0.782020 0.500038 0.994595
O5    O     O_R   0.367850 0.500000 0.636890 -0.602150
O6    O     O_R   0.632150 0.500000 0.363110 -0.602237
O7    O     O_R   0.632150 0.500000 0.636890 -0.602268
O8    O     O_R   0.367850 0.500000 0.363110 -0.602403
C3    C     C_R   0.326827 0.500085 0.500001 1.005319
C4    C     C_R   0.673169 0.499958 0.500004 1.004321
Zn1   Zn    Zn3+2 0.500000 0.500000 0.682780 1.103666
Zn2   Zn    Zn3+2 0.500000 0.500000 0.317220 1.103522
N1    N     N_1   0.500000 0.500000 0.073640 -0.001310
N2    N     N_1   0.500000 0.500000 0.926360 -0.001303
C5    C     C_R   0.813205 0.636421 0.509619 0.210256
C6    C     C_R   0.186774 0.363641 0.490897 0.210108
C7    C     C_R   0.813269 0.363525 0.490584 0.210211
C8    C     C_R   0.186715 0.636614 0.509214 0.209931
C9    C     C_R   0.768266 0.499967 0.500030 -0.280041
C10   C     C_R   0.231722 0.500129 0.500035 -0.280513
C11   C     C_R   0.906467 0.363176 0.487573 0.021088
C12   C     C_R   0.093510 0.636909 0.512640 0.021186
C13   C     C_R   0.906396 0.636815 0.512818 0.021079
C14   C     C_R   0.093580 0.363243 0.487708 0.021100
C15   C     C_R   0.953161 0.500013 0.500205 0.021451
C16   C     C_R   0.046819 0.500054 0.500196 0.021407
C17   C     C_R   0.953828 0.229365 0.469042 -0.137303
C18   C     C_R   0.046137 0.770686 0.531461 -0.136918
C19   C     C_R   0.953680 0.770641 0.531531 -0.137282
C20   C     C_R   0.046289 0.229396 0.469135 -0.137047
C21   C     C_1   0.500029 0.065131 0.499941 -0.029962
C22   C     C_1   0.500037 0.934870 0.500055 -0.029748
N3    N     N_R   0.763813 0.773783 0.512224 0.197587
O9    O     O_R   0.767565 0.863773 0.386785 -0.329290
O10   O     O_R   0.711729 0.805284 0.635786 -0.352515
N4    N     N_R   0.236160 0.226259 0.488611 0.197936
O11   O     O_R   0.232223 0.136323 0.614079 -0.329498
O12   O     O_R   0.288408 0.194667 0.365310 -0.352573
N5    N     N_R   0.763935 0.226141 0.487913 0.197633
O13   O     O_R   0.711857 0.194670 0.364340 -0.352399
O14   O     O_R   0.767651 0.136181 0.613376 -0.329435
N6    N     N_R   0.236015 0.774086 0.510894 0.198258
O15   O     O_R   0.289353 0.805178 0.632800 -0.353848
O16   O     O_R   0.230808 0.864737 0.386163 -0.329572

loop_
_geom_bond_atom_site_label_1
_geom_bond_atom_site_label_2
_geom_bond_distance
_ccdc_geom_bond_type
C21   C22   1.167524 T    
C7    N5    1.435947 S    
C14   C20   1.400922 A    
O2    Zn2   1.959284 S    
C8    C12   1.394898 A    
O8    Zn2   2.012139 S    
O1    Zn1   1.959285 S    
N1    N2    1.195438 T    
C5    N3    1.435951 S    
O7    Zn1   2.012138 S    
C2    C22   1.369978 S    
O4    Zn2   1.960068 S    
C17   C20   1.383484 A    
N6    O16   1.301136 A    
C12   C18   1.400979 A    
C13   C15   1.415245 A    
O3    C2    1.264591 A    
N5    O13   1.300876 A    
C11   C17   1.400889 A    
C14   C16   1.415217 A    
H3    C19   1.080740 S    
C6    N4    1.436026 S    
N4    O12   1.300892 A    
C7    C9    1.397960 A    
C1    C21   1.369972 S    
N6    O15   1.301219 A    
C8    C10   1.398215 A    
O3    Zn1   1.960067 S    
O5    C3    1.269367 A    
C7    C11   1.394736 A    
N5    O14   1.300772 A    
H4    C20   1.080714 S    
N4    O11   1.300826 A    
N3    O9    1.300824 A    
C11   C15   1.415263 A    
C8    N6    1.436272 S    
O6    C4    1.269371 A    
C12   C16   1.415271 A    
Zn1   N2    1.977084 S    
O1    C1    1.264008 A    
N3    O10   1.300877 A    
C18   C19   1.383421 A    
C6    C10   1.398036 A    
O7    C4    1.269336 A    
O6    Zn2   2.012124 S    
C4    C9    1.422936 S    
C13   C19   1.400827 A    
O8    C3    1.269400 A    
Zn2   N1    1.977084 S    
C3    C10   1.423051 S    
C5    C9    1.397904 A    
C6    C14   1.394705 A    
O4    C1    1.264582 A    
C5    C13   1.394672 A    
C15   C16   1.401407 A    
O5    Zn1   2.012125 S    
H2    C18   1.080663 S    
H1    C17   1.080725 S    
O2    C2    1.264001 A    
