data_str_m9_o11_o16_f0_sra.sym.69
_audit_creation_date              2012-12-11T14:17:47-0500
_audit_creation_method            fapswitch 2.2
_symmetry_space_group_name_H-M    P1
_symmetry_Int_Tables_number       1
_space_group_crystal_system       triclinic
_cell_length_a                    6.942414
_cell_length_b                    13.63471
_cell_length_c                    20.419186
_cell_angle_alpha                 101.913285
_cell_angle_beta                  90.464195
_cell_angle_gamma                 91.100269
_cell_volume                      1890.71168792

loop_
_atom_site_label
_atom_site_type_symbol
_atom_type_description
_atom_site_fract_x
_atom_site_fract_y
_atom_site_fract_z
_atom_type_partial_charge
O1    O     O_R   0.506860 0.599390 0.449240 -0.541058
O2    O     O_R   0.180220 0.594600 0.586780 -0.495549
O3    O     O_R   0.004500 0.400610 0.550760 -0.544265
C1    C     C_R   0.351253 0.613937 0.614298 0.839980
O4    O     O_R   0.177490 0.611290 0.451970 -0.547579
O5    O     O_R   0.001750 0.417420 0.414990 -0.551383
C2    C     C_R   0.347411 0.638054 0.435163 0.763830
O6    O     O_R   0.509610 0.582580 0.585010 -0.530652
O7    O     O_3   0.337420 0.436370 0.488020 -0.392686
V1    V     V_3+5 0.064680 0.511800 0.502220 1.594324
O8    O     O_R   0.671710 0.405400 0.413220 -0.549119
C3    C     C_R   0.838944 0.382515 0.387207 0.744798
O9    O     O_R   0.674440 0.388710 0.548030 -0.545739
C4    C     C_R   0.842385 0.361957 0.564748 0.792068
V2    V     V_3+5 0.564010 0.488200 0.497780 1.555584
O10   O     O_3   0.841140 0.563630 0.511980 -0.349538
C5    C     C_R   0.827522 0.110610 0.612688 -0.126418
H1    H     H_    0.815097 0.032521 0.587603 0.226687
C6    C     C_R   0.847540 0.284586 0.604629 -0.168286
C7    C     C_R   0.879045 0.315708 0.928234 -0.146315
C8    C     C_R   0.882624 0.391604 0.892159 -0.123969
C9    C     C_R   0.873854 0.368598 0.822452 -0.133905
C10   C     C_R   0.860655 0.267759 0.786679 0.105234
C11   C     C_R   0.855076 0.190344 0.824130 -0.033185
C12   C     C_R   0.853129 0.241194 0.715180 0.005435
C13   C     C_R   0.837971 0.138193 0.682913 -0.103511
C14   C     C_R   0.832519 0.063761 0.720935 0.657390
C15   C     C_R   0.841389 0.089455 0.790295 -0.284841
C16   C     C_R   0.859270 0.313329 0.674357 -0.279544
C17   C     C_R   0.830995 0.183343 0.573829 0.596137
C18   C     C_R   0.864969 0.215427 0.894989 -0.042989
H2    H     H_    0.870575 0.392647 0.694894 0.140010
H3    H     H_    0.888040 0.335179 0.982403 0.119680
H4    H     H_    0.877891 0.431729 0.798341 0.108483
H5    H     H_    0.893371 0.469128 0.918420 0.132715
H6    H     H_    0.836939 0.028996 0.817324 0.148444
C19   C     C_2   0.999458 0.284765 0.286469 -0.120212
C20   C     C_2   0.839505 0.309533 0.322592 -0.283350
H7    H     H_    0.138712 0.314714 0.306582 0.163628
H8    H     H_    0.702405 0.273944 0.304538 0.165078
C21   C     C_2   0.997803 0.209165 0.222142 -0.141388
C22   C     C_2   0.862707 0.201126 0.172811 -0.166413
H9    H     H_    0.116773 0.157542 0.215174 0.162354
C23   C     C_2   0.236450 0.739231 0.799068 -0.089763
C24   C     C_2   0.347249 0.823762 0.818594 -0.360918
H10   H     H_    0.426573 0.854452 0.781636 0.139463
C25   C     C_2   0.221845 0.687822 0.726820 0.510601
C26   C     C_2   0.373741 0.672509 0.684476 -0.321582
C27   C     C_R   0.476557 0.880955 0.385533 -0.145254
H11   H     H_    0.528916 0.955083 0.409689 0.225565
C28   C     C_R   0.364133 0.716136 0.395774 -0.155196
C29   C     C_R   0.307929 0.687168 0.072994 -0.203930
C30   C     C_R   0.312094 0.609380 0.107303 -0.109862
C31   C     C_R   0.356566 0.627652 0.175984 0.018788
C32   C     C_R   0.376124 0.728942 0.212842 0.018086
C33   C     C_R   0.390311 0.806852 0.175685 -0.027606
C34   C     C_R   0.386168 0.756570 0.284559 0.000602
C35   C     C_R   0.447788 0.855433 0.315792 -0.077695
C36   C     C_R   0.476831 0.928121 0.277345 0.645546
C37   C     C_R   0.441433 0.905073 0.208862 -0.273474
C38   C     C_R   0.328513 0.691290 0.326738 -0.308040
C39   C     C_R   0.441333 0.810609 0.424922 0.613114
C40   C     C_R   0.354882 0.784919 0.105710 -0.047557
H12   H     H_    0.255447 0.620620 0.307252 0.134475
H13   H     H_    0.278893 0.669982 0.019631 0.164799
H14   H     H_    0.291788 0.533444 0.078835 0.165780
H15   H     H_    0.457770 0.965123 0.181825 0.142720
O11   O     O_R   0.203230 0.917310 0.915020 -0.519113
O12   O     O_R   0.535500 0.888690 0.048040 -0.548209
O13   O     O_R   0.711080 0.082610 0.085000 -0.518582
C41   C     C_R   0.366084 0.862675 0.065522 0.712568
O14   O     O_R   0.532630 0.905370 0.913230 -0.554415
O15   O     O_R   0.708190 0.099410 0.949230 -0.541103
C42   C     C_R   0.361738 0.883739 0.887181 0.833254
O16   O     O_R   0.206120 0.900510 0.050790 -0.532911
O17   O     O_3   0.375360 0.063570 0.011990 -0.364129
V3    V     V_3+5 0.648170 0.988200 0.997780 1.510083
O18   O     O_R   0.038240 0.111390 0.951940 -0.545911
C43   C     C_R   0.870260 0.138096 0.935229 0.681479
O19   O     O_R   0.041120 0.094710 0.086750 -0.547886
C44   C     C_R   0.873090 0.119413 0.112090 0.743311
V4    V     V_3+5 0.148810 0.011930 0.002180 1.530765
O20   O     O_3   0.871750 0.936430 0.988010 -0.368133
F1    F     F_    0.817559 0.155053 0.506153 -0.664123
C45   C     C_2   0.713222 0.278739 0.174127 0.409345
H16   H     H_    0.725791 0.350648 0.208572 0.068620
O21   O     O_2   0.576347 0.264437 0.135157 -0.498719
C46   C     C_2   0.120477 0.693170 0.846460 0.386810
H17   H     H_    0.015013 0.634389 0.826929 0.083399
O22   O     O_2   0.144378 0.716838 0.906970 -0.557823
F2    F     F_    0.046017 0.647984 0.704837 -0.663701
C47   C     C_2   0.574021 0.700366 0.709328 0.446670
H18   H     H_    0.615872 0.697265 0.760176 0.038307
O23   O     O_2   0.693379 0.728255 0.673152 -0.411008
F3    F     F_    0.479821 0.835119 0.491677 -0.650193
F4    F     F_    0.532274 0.023374 0.306450 -0.671993
F5    F     F_    0.818436 0.965172 0.690903 -0.631023
C48   C     C_2   0.412548 0.539756 0.203772 0.335033
H19   H     H_    0.516410 0.548583 0.244679 0.044833
O24   O     O_2   0.345403 0.456207 0.180656 -0.514127

loop_
_geom_bond_atom_site_label_1
_geom_bond_atom_site_label_2
_ccdc_geom_bond_type
C41   O16   A    
C32   C33   A    
C21   C22   D    
O12   V3    S    
C28   C38   A    
C1    O6    A    
C30   C31   A    
C29   C30   A    
C22   C44   S    
C13   C14   A    
C19   C20   D    
C5    C13   A    
C16   H2    S    
O5    C3    A    
V3    O20   S    
O11   C42   A    
V2    O10   S    
O12   C41   A    
O13   C44   A    
O8    V2    S    
C37   H15   S    
C39   F3    S    
C10   C11   A    
O1    V2    S    
O7    V1    S    
C23   C25   S    
C36   C37   A    
O9    C4    A    
O13   V3    S    
C17   F1    S    
C5    C17   A    
C21   H9    S    
C28   C39   A    
C45   O21   D    
C12   C16   A    
C9    H4    S    
O17   V3    S    
O14   C42   A    
O17   V4    S    
O4    C2    A    
O18   C43   A    
C12   C13   A    
C24   H10   S    
V4    O20   S    
C27   C35   A    
C33   C37   A    
C24   C42   S    
C38   H12   S    
O2    C1    A    
O14   V3    S    
O18   V4    S    
C25   C26   D    
C47   O23   D    
C5    H1    S    
O15   C43   A    
C33   C40   A    
C22   C45   S    
C46   H17   S    
C34   C38   A    
C30   H14   S    
C45   H16   S    
O3    C4    A    
C7    H3    S    
O19   V4    S    
C40   C41   S    
C27   H11   S    
O6    V2    S    
C48   O24   D    
O9    V2    S    
C36   F4    S    
O2    V1    S    
C3    C20   S    
C23   C24   D    
C1    C26   S    
C31   C32   A    
C14   F5    S    
C27   C39   A    
O1    C2    A    
C25   F2    S    
C4    C6    S    
C11   C15   A    
C46   O22   D    
O19   C44   A    
C29   C40   A    
O5    V1    S    
O8    C3    A    
O16   V4    S    
C18   C43   S    
C8    H5    S    
O11   V4    S    
C32   C34   A    
C35   C36   A    
C11   C18   A    
C2    C28   S    
O4    V1    S    
C19   H7    S    
O3    V1    S    
V1    O10   S    
C20   H8    S    
C34   C35   A    
C47   H18   S    
C23   C46   S    
C10   C12   A    
C19   C21   S    
C7    C8    A    
C15   H6    S    
C48   H19   S    
C26   C47   S    
C14   C15   A    
O15   V3    S    
C9    C10   A    
C31   C48   S    
C8    C9    A    
C6    C17   A    
C29   H13   S    
O7    V2    S    
C7    C18   A    
C6    C16   A    
