data_str_m2_o10_o17_f0_pcu.sym.20
_audit_creation_date              2012-10-26T19:40:04-0400
_audit_creation_method            fapswitch 2.2
_symmetry_space_group_name_H-M    P1
_symmetry_Int_Tables_number       1
_space_group_crystal_system       triclinic
_cell_length_a                    15.097493
_cell_length_b                    8.673067
_cell_length_c                    7.431654
_cell_angle_alpha                 103.103058
_cell_angle_beta                  94.181205
_cell_angle_gamma                 92.32047
_cell_volume                      943.623950282

loop_
_atom_site_label
_atom_site_type_symbol
_atom_type_description
_atom_site_fract_x
_atom_site_fract_y
_atom_site_fract_z
_atom_type_partial_charge
C1    C     C_R   0.496600 0.199556 0.453160 0.534246
C2    C     C_R   0.179356 0.450523 0.341308 -0.186026
C3    C     C_R   0.767781 0.492259 0.491947 -0.005237
C4    C     C_R   0.232218 0.507741 0.508053 -0.005237
C5    C     C_R   0.807494 0.430196 0.326314 0.249658
C6    C     C_R   0.192505 0.569804 0.673686 0.249658
C7    C     C_R   0.901051 0.438708 0.328041 0.010973
C8    C     C_R   0.098949 0.561292 0.671959 0.010973
C9    C     C_R   0.953351 0.497269 0.497758 0.023708
C10   C     C_R   0.046649 0.502732 0.502242 0.023708
C11   C     C_R   0.912622 0.551018 0.663124 -0.007400
C12   C     C_R   0.503400 0.800443 0.546840 0.534246
C13   C     C_R   0.087378 0.448983 0.336876 -0.007400
C14   C     C_R   0.943399 0.389880 0.164016 -0.138201
C15   C     C_R   0.056601 0.610121 0.835984 -0.138201
C16   C     C_3   0.757723 0.201453 0.110382 -0.020389
C17   C     C_3   0.670373 0.122323 0.141746 -0.344840
C18   C     C_3   0.242277 0.798547 0.889618 -0.020390
C19   C     C_3   0.329627 0.877677 0.858258 -0.344840
C20   C     C_R   0.035647 0.393054 0.168969 -0.147050
C21   C     C_R   0.964353 0.606947 0.831031 -0.147050
C22   C     C_2   0.495095 0.031545 0.426753 -0.165643
C23   C     C_2   0.504905 0.968455 0.573247 -0.165644
C24   C     C_R   0.328820 0.503256 0.503248 0.561530
C25   C     C_R   0.671180 0.496744 0.496752 0.561530
C26   C     C_R   0.820644 0.549477 0.658692 -0.186026
Cu1   Cu    Cu3+1 0.510010 0.517380 0.684380 0.962415
Cu2   Cu    Cu3+1 0.489990 0.482620 0.315620 0.962416
H1    H     H_    0.790147 0.594781 0.786438 0.149449
H2    H     H_    0.569801 0.621981 0.051963 0.241969
H3    H     H_    0.813298 0.151990 0.182999 0.109975
H4    H     H_    0.766917 0.167675 0.959858 0.142026
H5    H     H_    0.614055 0.167333 0.067817 0.189629
H6    H     H_    0.670832 0.991968 0.088294 0.085881
H7    H     H_    0.661890 0.147375 0.292393 0.150997
H8    H     H_    0.233082 0.832324 0.040142 0.142025
H9    H     H_    0.186703 0.848010 0.817000 0.109975
H10   H     H_    0.338112 0.852625 0.707611 0.150998
H11   H     H_    0.329169 0.008031 0.911710 0.085881
H12   H     H_    0.209853 0.405219 0.213562 0.149449
H13   H     H_    0.385945 0.832666 0.932188 0.189629
H14   H     H_    0.905726 0.348988 0.030905 0.145497
H15   H     H_    0.094274 0.651012 0.969095 0.145497
H16   H     H_    0.066607 0.352207 0.040922 0.123632
H17   H     H_    0.933393 0.647794 0.959078 0.123632
H18   H     H_    0.486291 0.959548 0.285626 0.124240
H19   H     H_    0.513709 0.040452 0.714374 0.124240
H20   H     H_    0.430200 0.378019 0.948037 0.241969
N1    N     N_2   0.474890 0.456420 0.038520 -0.250130
N2    N     N_2   0.525110 0.543580 0.961480 -0.250131
O1    O     O_R   0.506510 0.286130 0.619770 -0.506115
O2    O     O_3   0.245393 0.631035 0.837269 -0.548057
O3    O     O_R   0.493490 0.713870 0.380230 -0.506115
O4    O     O_R   0.489600 0.256770 0.308360 -0.518984
O5    O     O_R   0.510400 0.743230 0.691640 -0.518984
O6    O     O_R   0.378710 0.514640 0.655720 -0.456417
O7    O     O_R   0.621290 0.485360 0.344280 -0.456417
O8    O     O_R   0.361800 0.485290 0.344300 -0.511335
O9    O     O_R   0.638200 0.514710 0.655700 -0.511335
O10   O     O_3   0.754607 0.368965 0.162731 -0.548057

loop_
_geom_bond_atom_site_label_1
_geom_bond_atom_site_label_2
_ccdc_geom_bond_type
C2    C4    A    
Cu2   O3    S    
C25   O9    A    
C19   H10   S    
Cu2   O8    S    
C16   H4    S    
C3    C26   A    
C1    O1    A    
Cu2   N1    S    
C12   O3    A    
C13   C20   A    
Cu1   N2    S    
C14   H14   S    
C1    O4    A    
C6    O2    S    
C7    C9    A    
H2    N2    S    
C18   O2    S    
C1    C22   S    
Cu1   O9    S    
Cu2   O7    S    
C16   H3    S    
C9    C11   A    
C12   C23   S    
C15   C21   A    
C17   H5    S    
C19   H11   S    
C24   O8    A    
H20   N1    S    
C22   H18   S    
C18   H9    S    
Cu1   O1    S    
N1    N2    D    
C8    C15   A    
C21   H17   S    
C5    O10   S    
C16   O10   S    
C4    C24   S    
Cu1   O5    S    
C12   O5    A    
C24   O6    A    
C17   H6    S    
C15   H15   S    
C25   O7    A    
C2    H12   S    
C3    C25   S    
C23   H19   S    
C26   H1    S    
C8    C10   A    
C4    C6    A    
C9    C10   A    
C14   C20   A    
Cu1   Cu2   S    
C5    C7    A    
C2    C13   A    
Cu2   O4    S    
Cu1   O6    S    
C18   C19   S    
C6    C8    A    
C17   H7    S    
C11   C26   A    
C20   H16   S    
C22   C23   D    
C18   H8    S    
C11   C21   A    
C7    C14   A    
C19   H13   S    
C16   C17   S    
C3    C5    A    
C10   C13   A    
