data_str_m9_o16_o17_f0_sra.sym.87
_audit_creation_date              2012-12-11T15:07:40-0500
_audit_creation_method            fapswitch 2.2
_symmetry_space_group_name_H-M    P1
_symmetry_Int_Tables_number       1
_space_group_crystal_system       triclinic
_cell_length_a                    21.647273
_cell_length_b                    7.186906
_cell_length_c                    18.817667
_cell_angle_alpha                 90.002746
_cell_angle_beta                  95.259139
_cell_angle_gamma                 90.001953
_cell_volume                      2915.27035976

loop_
_atom_site_label
_atom_site_type_symbol
_atom_type_description
_atom_site_fract_x
_atom_site_fract_y
_atom_site_fract_z
_atom_type_partial_charge
O1    O     O_R   0.449650 0.506500 0.414480 -0.531036
O2    O     O_R   0.550350 0.006500 0.585520 -0.531040
O3    O     O_R   0.432010 0.173150 0.560250 -0.541688
O4    O     O_R   0.567990 0.673150 0.439750 -0.541679
C1    C     C_R   0.418222 0.344040 0.583715 0.685481
C2    C     C_R   0.581774 0.844039 0.416283 0.685500
O5    O     O_R   0.442320 0.176650 0.413480 -0.538690
O6    O     O_R   0.557680 0.676650 0.586520 -0.538679
O7    O     O_R   0.560730 0.008380 0.437700 -0.535844
O8    O     O_R   0.439270 0.508380 0.562300 -0.535876
C3    C     C_R   0.426114 0.346419 0.389721 0.688245
C4    C     C_R   0.573888 0.846429 0.610277 0.688244
O9    O     O_3   0.538840 0.339860 0.508120 -0.376468
O10   O     O_3   0.461160 0.839860 0.491880 -0.376518
V1    V     V_3+5 0.492800 0.064220 0.498490 1.385627
V2    V     V_3+5 0.507200 0.564220 0.501510 1.385654
C5    C     C_R   0.884846 0.875244 0.693021 0.162075
C6    C     C_R   0.115161 0.375591 0.306997 0.162052
H1    H     H_    0.968988 0.888891 0.763238 0.108595
H2    H     H_    0.031016 0.389157 0.236784 0.108453
H3    H     H_    0.807326 0.888431 0.574750 0.135967
H4    H     H_    0.192685 0.389087 0.425254 0.135989
C7    C     C_R   0.889482 0.933358 0.820340 -0.058201
C8    C     C_R   0.110523 0.433407 0.179660 -0.058166
C9    C     C_R   0.590380 0.845505 0.739413 -0.158320
C10   C     C_R   0.409613 0.345264 0.260586 -0.158325
C11   C     C_R   0.625215 0.849739 0.804818 -0.120826
C12   C     C_R   0.374776 0.349432 0.195183 -0.120836
C13   C     C_R   0.689235 0.867303 0.808735 -0.141655
C14   C     C_R   0.310760 0.367114 0.191266 -0.141652
C15   C     C_R   0.721017 0.884045 0.746674 0.063081
C16   C     C_R   0.278985 0.384045 0.253326 0.063090
C17   C     C_R   0.685367 0.880592 0.677926 0.041043
C18   C     C_R   0.314638 0.380677 0.322074 0.041007
C19   C     C_R   0.787600 0.899535 0.751764 0.041952
C20   C     C_R   0.212404 0.399624 0.248237 0.041945
C21   C     C_R   0.818801 0.883452 0.688904 0.090314
C22   C     C_R   0.181206 0.383753 0.311105 0.090335
C23   C     C_R   0.783877 0.884390 0.622946 -0.225372
C24   C     C_R   0.216133 0.384837 0.377059 -0.225341
C25   C     C_R   0.719185 0.897217 0.616295 0.081280
C26   C     C_R   0.280828 0.397503 0.383704 0.081247
C27   C     C_R   0.824484 0.930893 0.817331 -0.213322
C28   C     C_R   0.175520 0.430868 0.182663 -0.213326
C29   C     C_R   0.918839 0.898591 0.759105 -0.207723
C30   C     C_R   0.081166 0.398811 0.240908 -0.207679
C31   C     C_R   0.618386 0.859033 0.675525 -0.083405
C32   C     C_R   0.381615 0.358988 0.324474 -0.083407
H5    H     H_    0.804286 0.955731 0.866746 0.103976
H6    H     H_    0.195717 0.455570 0.133239 0.103968
H7    H     H_    0.540494 0.829677 0.738668 0.102340
H8    H     H_    0.459496 0.329336 0.261329 0.102321
H9    H     H_    0.712882 0.861290 0.861599 0.113110
H10   H     H_    0.287109 0.361039 0.138405 0.113106
H11   H     H_    0.602283 0.836545 0.853350 0.122717
H12   H     H_    0.397702 0.336091 0.146651 0.122709
C33   C     C_R   0.634728 0.013467 0.322207 -0.190947
C34   C     C_R   0.365213 0.513600 0.677718 -0.190981
C35   C     C_R   0.630887 0.855793 0.366097 -0.079693
C36   C     C_R   0.369108 0.355794 0.633901 -0.079725
C37   C     C_R   0.675172 0.713556 0.363093 -0.237693
C38   C     C_R   0.324879 0.213415 0.636984 -0.237661
C39   C     C_R   0.723602 0.730565 0.318595 0.108664
C40   C     C_R   0.276449 0.230411 0.681485 0.108548
C41   C     C_R   0.727105 0.888949 0.274735 0.058477
C42   C     C_R   0.272893 0.388929 0.725269 0.058491
C43   C     C_R   0.682028 0.029950 0.276183 0.055689
C44   C     C_R   0.317918 0.530072 0.723744 0.055703
C45   C     C_R   0.769013 0.592471 0.317855 -0.203088
C46   C     C_R   0.231093 0.092161 0.682308 -0.203348
C47   C     C_R   0.818617 0.613328 0.276086 -0.148197
C48   C     C_R   0.181491 0.112992 0.724084 -0.147779
C49   C     C_R   0.823858 0.772174 0.232737 0.120093
C50   C     C_R   0.176188 0.271995 0.767336 0.120236
C51   C     C_R   0.776063 0.907232 0.230095 -0.055563
C52   C     C_R   0.223935 0.407207 0.769906 -0.055670
C53   C     C_R   0.777839 0.062669 0.184303 0.056234
C54   C     C_R   0.222109 0.562787 0.815626 0.056201
C55   C     C_R   0.732335 0.203266 0.185575 0.356597
C56   C     C_R   0.267564 0.703515 0.814284 0.356546
C57   C     C_R   0.685174 0.186296 0.232153 -0.287456
C58   C     C_R   0.314722 0.686548 0.767702 -0.287561
C59   C     C_R   0.875939 0.800798 0.192917 0.116912
C60   C     C_R   0.124093 0.300631 0.807128 0.116812
C61   C     C_R   0.872544 0.941067 0.138989 -0.144442
C62   C     C_R   0.127445 0.441063 0.860997 -0.144558
C63   C     C_R   0.824524 0.073146 0.137138 -0.213331
C64   C     C_R   0.175422 0.573285 0.862787 -0.213397
H13   H     H_    0.600592 0.123522 0.323551 0.125525
H14   H     H_    0.399302 0.623775 0.676313 0.125561
H15   H     H_    0.673141 0.592121 0.396990 0.128914
H16   H     H_    0.326955 0.091862 0.603153 0.128941
H17   H     H_    0.766676 0.468742 0.350438 0.127603
H18   H     H_    0.233475 0.968317 0.649791 0.127674
H19   H     H_    0.852312 0.502147 0.277719 0.131990
H20   H     H_    0.147850 0.001661 0.722542 0.132020
H21   H     H_    0.823619 0.184804 0.098366 0.182593
H22   H     H_    0.176294 0.685074 0.901508 0.182632
H23   H     H_    0.650663 0.295168 0.233742 0.124300
H24   H     H_    0.349190 0.795534 0.766054 0.124342
O11   O     O_R   0.060820 0.290050 0.937800 -0.540631
O12   O     O_R   0.939180 0.790050 0.062200 -0.540631
O13   O     O_R   0.057690 0.616620 0.086540 -0.544145
O14   O     O_R   0.942310 0.116620 0.913460 -0.544149
C65   C     C_R   0.071827 0.447762 0.111516 0.695983
C66   C     C_R   0.928174 0.947752 0.888485 0.695974
O15   O     O_R   0.068010 0.619890 0.939770 -0.540072
O16   O     O_R   0.931990 0.119890 0.060230 -0.540050
O17   O     O_R   0.949640 0.787940 0.914460 -0.532682
O18   O     O_R   0.050360 0.287940 0.085540 -0.532674
C67   C     C_R   0.081759 0.451672 0.915821 0.693413
C68   C     C_R   0.918237 0.951673 0.084175 0.693415
O19   O     O_3   0.961210 0.453080 0.991940 -0.373198
O20   O     O_3   0.038790 0.953080 0.008060 -0.373205
V3    V     V_3+5 0.007200 0.728820 0.001500 1.417145
V4    V     V_3+5 0.992800 0.228820 0.998500 1.417155
C69   C     C_3   0.936950 0.700068 0.214691 -0.348754
C70   C     C_3   0.963154 0.755922 0.290059 -0.807955
H25   H     H_    0.966523 0.909874 0.294242 0.235321
H26   H     H_    0.933884 0.703791 0.331104 0.231808
H27   H     H_    0.010385 0.697101 0.301724 0.219954
H28   H     H_    0.930640 0.547132 0.210577 0.163827
H29   H     H_    0.973931 0.735721 0.180407 0.200707
C71   C     C_3   0.063107 0.199703 0.785385 -0.348553
C72   C     C_3   0.036975 0.254861 0.709912 -0.808103
H30   H     H_    0.033860 0.408793 0.705409 0.235425
H31   H     H_    0.066132 0.201568 0.668958 0.231649
H32   H     H_    0.989640 0.196680 0.698379 0.219941
H33   H     H_    0.069431 0.046805 0.789698 0.163915
H34   H     H_    0.026083 0.235707 0.819567 0.200634
O21   O     O_3   0.735287 0.357076 0.141903 -0.650969
H35   H     H_    0.701047 0.443547 0.150473 0.291855
O22   O     O_3   0.264565 0.857452 0.857887 -0.650995
H36   H     H_    0.298737 0.944091 0.849222 0.291911
C73   C     C_3   0.921117 0.838058 0.628996 -0.378777
C74   C     C_3   0.913611 0.636502 0.603749 -0.751336
H37   H     H_    0.929316 0.539980 0.647846 0.232231
H38   H     H_    0.864610 0.604653 0.585332 0.225348
H39   H     H_    0.942330 0.612416 0.558662 0.215100
H40   H     H_    0.907419 0.936341 0.584875 0.170197
H41   H     H_    0.971524 0.862684 0.642764 0.180535
C75   C     C_3   0.078894 0.338608 0.371041 -0.378814
C76   C     C_3   0.086418 0.137151 0.396395 -0.751301
H42   H     H_    0.070744 0.040443 0.352345 0.232212
H43   H     H_    0.135418 0.105417 0.414855 0.225328
H44   H     H_    0.057685 0.113203 0.441480 0.215113
H45   H     H_    0.092586 0.437061 0.415111 0.170205
H46   H     H_    0.028484 0.363147 0.357262 0.180523
C77   C     C_3   0.691391 0.949755 0.542792 -0.360901
C78   C     C_3   0.678651 0.158822 0.538534 -0.648093
H47   H     H_    0.647081 0.202324 0.578642 0.235358
H48   H     H_    0.722868 0.236894 0.548837 0.196143
H49   H     H_    0.657898 0.196408 0.484365 0.217312
H50   H     H_    0.723226 0.916765 0.501353 0.169374
H51   H     H_    0.651062 0.864096 0.527406 0.159547
C79   C     C_3   0.308639 0.450027 0.457205 -0.360847
C80   C     C_3   0.321421 0.659072 0.461466 -0.647868
H52   H     H_    0.352969 0.702522 0.421328 0.235351
H53   H     H_    0.277217 0.737233 0.451211 0.196052
H54   H     H_    0.342217 0.696624 0.515622 0.217325
H55   H     H_    0.276801 0.417102 0.498647 0.169344
H56   H     H_    0.348946 0.364287 0.472590 0.159513

loop_
_geom_bond_atom_site_label_1
_geom_bond_atom_site_label_2
_ccdc_geom_bond_type
C76   H44   S    
C42   C44   A    
C65   O18   A    
C39   C41   A    
C80   H52   S    
C7    C29   A    
C11   C13   A    
O12   C68   A    
O1    C3    A    
C69   H28   S    
C61   C68   S    
O2    C4    A    
C2    O7    A    
O14   C66   A    
O20   V3    S    
C12   H12   S    
C73   C74   S    
C23   C25   A    
O5    C3    A    
C14   H10   S    
C33   H13   S    
C16   C20   A    
C79   C80   S    
C46   H18   S    
C5    C29   A    
C45   H17   S    
C74   H39   S    
O10   V1    S    
C54   C56   A    
C33   C35   A    
C25   C77   S    
C54   C64   A    
C76   H42   S    
C7    C27   A    
C36   C38   A    
C45   C47   A    
C70   H25   S    
C38   C40   A    
O12   V3    S    
O14   V4    S    
C39   C45   A    
C18   C26   A    
C41   C43   A    
C78   H49   S    
C38   H16   S    
C5    C73   S    
C72   H32   S    
C15   C17   A    
C60   C71   S    
C40   C46   A    
C19   C27   A    
C9    C31   A    
C10   C32   A    
O19   V4    S    
C24   C26   A    
C55   O21   S    
O6    V2    S    
C22   C24   A    
C49   C51   A    
C3    C32   S    
O15   C67   A    
C33   C43   A    
C4    C31   S    
C6    C30   A    
C53   C55   A    
C73   H40   S    
C35   C37   A    
C61   C63   A    
C75   H46   S    
C6    C75   S    
C17   C25   A    
C48   C50   A    
C50   C60   A    
C47   C49   A    
C27   H5    S    
O5    V1    S    
C57   H23   S    
C6    C22   A    
C7    C66   S    
C56   O22   S    
O16   C68   A    
C70   H27   S    
C40   C42   A    
O4    V2    S    
C26   C79   S    
C77   H50   S    
C9    H7    S    
O13   V3    S    
C10   H8    S    
C34   H14   S    
H3    C23   S    
C64   H22   S    
O6    C4    A    
H4    C24   S    
C37   C39   A    
C71   H34   S    
O13   C65   A    
O1    V2    S    
C5    C21   A    
O2    V1    S    
C51   C53   A    
O15   V3    S    
C50   C52   A    
C56   C58   A    
C59   C61   A    
C79   H55   S    
C43   C57   A    
C80   H54   S    
O22   H36   S    
C17   C31   A    
C78   H48   S    
C20   C28   A    
O4    C2    A    
C18   C32   A    
O21   H35   S    
O18   V4    S    
O3    V1    S    
C74   H38   S    
C55   C57   A    
C28   H6    S    
C76   H43   S    
C1    C36   S    
C19   C21   A    
C78   H47   S    
C58   H24   S    
C2    C35   S    
C52   C54   A    
C74   H37   S    
O3    C1    A    
C80   H53   S    
H1    C29   S    
C9    C11   A    
C11   H11   S    
C10   C12   A    
C41   C51   A    
C44   C58   A    
C59   C69   S    
C12   C14   A    
C62   C67   S    
C77   H51   S    
C8    C30   A    
C1    O8    A    
C21   C23   A    
O8    V2    S    
C69   C70   S    
C14   C16   A    
O16   V4    S    
C72   H30   S    
C13   H9    S    
C8    C28   A    
O11   C67   A    
C75   H45   S    
C62   C64   A    
C20   C22   A    
C71   H33   S    
C15   C19   A    
C69   H29   S    
C70   H26   S    
C34   C44   A    
O17   V3    S    
C79   H56   S    
C48   H20   S    
C73   H41   S    
C47   H19   S    
C53   C63   A    
C13   C15   A    
O9    V2    S    
C72   H31   S    
O11   V4    S    
C75   C76   S    
C60   C62   A    
C46   C48   A    
C8    C65   S    
C77   C78   S    
C34   C36   A    
C49   C59   A    
H2    C30   S    
C42   C52   A    
C37   H15   S    
O7    V1    S    
C16   C18   A    
C71   C72   S    
C63   H21   S    
C66   O17   A    
