data_str_m9_o16_o24_f0_sra.sym.84
_audit_creation_date              2012-12-11T15:13:50-0500
_audit_creation_method            fapswitch 2.2
_symmetry_space_group_name_H-M    P1
_symmetry_Int_Tables_number       1
_space_group_crystal_system       triclinic
_cell_length_a                    6.959836
_cell_length_b                    13.608219
_cell_length_c                    20.099855
_cell_angle_alpha                 104.132396
_cell_angle_beta                  89.793802
_cell_angle_gamma                 90.184641
_cell_volume                      1846.04300563

loop_
_atom_site_label
_atom_site_type_symbol
_atom_type_description
_atom_site_fract_x
_atom_site_fract_y
_atom_site_fract_z
_atom_type_partial_charge
O1    O     O_R   0.506780 0.600060 0.449950 -0.546698
O2    O     O_R   0.179840 0.597110 0.589410 -0.548177
O3    O     O_R   0.004570 0.399940 0.550050 -0.540977
C1    C     C_R   0.348015 0.619515 0.616614 0.725929
O4    O     O_R   0.177380 0.612160 0.452890 -0.546216
O5    O     O_R   0.002100 0.415100 0.412560 -0.532913
C2    C     C_R   0.345491 0.638124 0.435671 0.676710
O6    O     O_R   0.509250 0.584900 0.587440 -0.527190
O7    O     O_3   0.337570 0.435330 0.486930 -0.365322
V1    V     V_3+5 0.064650 0.512000 0.502430 1.456498
O8    O     O_R   0.672090 0.402890 0.410590 -0.545305
C3    C     C_R   0.842037 0.381325 0.383248 0.713315
O9    O     O_R   0.674540 0.387840 0.547110 -0.527508
C4    C     C_R   0.843084 0.361534 0.563544 0.840486
V2    V     V_3+5 0.564040 0.488000 0.497570 1.477462
O10   O     O_3   0.840990 0.564670 0.513070 -0.381800
C5    C     C_R   0.923626 0.111097 0.605060 -0.209098
H1    H     H_    0.942746 0.983885 0.683395 0.157118
H2    H     H_    0.951712 0.033201 0.577966 0.120801
C6    C     C_R   0.853055 0.283408 0.601938 -0.128084
C7    C     C_R   0.869725 0.313933 0.930478 -0.198365
C8    C     C_R   0.894022 0.389282 0.895720 -0.066055
C9    C     C_R   0.903181 0.364380 0.824570 -0.045376
C10   C     C_R   0.877067 0.263549 0.785904 0.062965
C11   C     C_R   0.874093 0.184264 0.821424 -0.020725
C12   C     C_R   0.870332 0.238988 0.712691 0.013432
C13   C     C_R   0.906763 0.137514 0.676626 -0.007400
C14   C     C_R   0.918389 0.061466 0.711664 -0.200443
C15   C     C_R   0.889581 0.081876 0.782065 0.317479
C16   C     C_R   0.825368 0.310044 0.673473 0.248573
C17   C     C_R   0.899730 0.183690 0.567531 0.230009
C18   C     C_R   0.864511 0.212031 0.894608 -0.081405
H3    H     H_    0.865653 0.334824 0.986103 0.121625
H4    H     H_    0.941693 0.424613 0.800748 0.169558
H5    H     H_    0.910807 0.467363 0.924164 0.159021
C19   C     C_3   0.724910 0.177222 0.246686 0.427939
C20   C     C_3   0.892077 0.194692 0.298658 -0.201623
H6    H     H_    0.920165 0.150147 0.336964 0.153979
C21   C     C_3   0.856062 0.310279 0.313371 -0.155909
C22   C     C_3   0.685774 0.292500 0.262271 -0.281443
C23   C     C_3   0.828466 0.299363 0.204372 0.241346
C24   C     C_3   0.995618 0.316440 0.254810 0.370543
C25   C     C_3   0.032817 0.201445 0.239640 -0.227294
C26   C     C_3   0.863646 0.184752 0.188264 -0.161818
H7    H     H_    0.543948 0.328398 0.275129 0.180685
H8    H     H_    0.174464 0.163531 0.230746 0.190290
C27   C     C_3   0.518616 0.760739 0.718383 0.347075
C28   C     C_3   0.378451 0.848441 0.745911 -0.124065
H9    H     H_    0.396877 0.928424 0.743161 0.135361
C29   C     C_3   0.359156 0.811678 0.812466 -0.058729
C30   C     C_3   0.504655 0.725421 0.785305 -0.098652
C31   C     C_3   0.335223 0.654685 0.753869 -0.153980
C32   C     C_3   0.190326 0.741686 0.781860 -0.065301
C33   C     C_3   0.210035 0.777050 0.714318 -0.170424
C34   C     C_3   0.354284 0.690289 0.686875 -0.116183
H10   H     H_    0.627814 0.704794 0.814094 0.164421
H11   H     H_    0.316835 0.574873 0.757011 0.180935
H12   H     H_    0.052949 0.734140 0.808443 0.160035
H13   H     H_    0.090782 0.798968 0.684627 0.160001
C35   C     C_R   0.252553 0.883456 0.388956 -0.149059
H14   H     H_    0.265755 0.836249 0.483025 0.096116
H15   H     H_    0.175888 0.000112 0.304464 0.140564
H16   H     H_    0.207142 0.959248 0.414750 0.104427
C36   C     C_R   0.346874 0.715615 0.396255 -0.032220
C37   C     C_R   0.404008 0.682351 0.066465 0.378795
C38   C     C_R   0.414104 0.606700 0.101824 -0.155939
C39   C     C_R   0.389771 0.629765 0.172695 -0.251612
C40   C     C_R   0.345836 0.728752 0.210396 0.088706
C41   C     C_R   0.316877 0.804189 0.173269 0.003288
C42   C     C_R   0.329423 0.755225 0.283606 0.084925
C43   C     C_R   0.269926 0.854794 0.317268 0.123620
C44   C     C_R   0.225633 0.924791 0.279174 -0.121888
C45   C     C_R   0.250068 0.900286 0.208406 -0.094893
C46   C     C_R   0.369807 0.686679 0.324816 -0.221805
C47   C     C_R   0.288496 0.814037 0.428019 -0.172647
C48   C     C_R   0.357257 0.781811 0.101783 -0.161057
H17   H     H_    0.413466 0.609541 0.303125 0.099117
H18   H     H_    0.403584 0.568460 0.196684 0.128805
H19   H     H_    0.445309 0.529493 0.074387 0.152627
H20   H     H_    0.217519 0.958111 0.181596 0.143056
O11   O     O_R   0.203580 0.914920 0.912610 -0.518405
O12   O     O_R   0.535710 0.887810 0.047120 -0.522814
O13   O     O_R   0.710730 0.084950 0.087430 -0.533953
C49   C     C_R   0.366659 0.862268 0.064632 0.779407
O14   O     O_R   0.533010 0.902850 0.910600 -0.519663
O15   O     O_R   0.708010 0.100090 0.949930 -0.534964
C50   C     C_R   0.364951 0.881067 0.883169 0.783392
O16   O     O_R   0.206300 0.899780 0.050100 -0.553107
O17   O     O_3   0.375170 0.064580 0.013100 -0.390145
V3    V     V_3+5 0.648200 0.988020 0.997570 1.574533
O18   O     O_R   0.038030 0.112330 0.952840 -0.537809
C51   C     C_R   0.869638 0.138149 0.936085 0.787725
O19   O     O_R   0.040730 0.097300 0.089360 -0.555881
C52   C     C_R   0.872110 0.116513 0.117399 0.724221
V4    V     V_3+5 0.148780 0.012220 0.002360 1.509209
O20   O     O_3   0.871930 0.935430 0.986900 -0.352865
N1    N     N_2   0.908730 0.154500 0.494581 -0.543071
H21   H     H_    0.002864 0.096025 0.475353 0.250289
C53   C     C_3   0.723372 0.140872 0.460584 -0.519944
H22   H     H_    0.719590 0.067717 0.421087 0.203408
H23   H     H_    0.699416 0.203279 0.434987 0.207976
H24   H     H_    0.602964 0.140706 0.497171 0.199404
Cl1   Cl    Cl    0.548637 0.082523 0.242662 -0.750356
N2    N     N_2   0.792863 0.354159 0.152276 -0.531319
H25   H     H_    0.678532 0.324729 0.121209 0.248200
C54   C     C_3   0.787324 0.463472 0.176091 -0.557386
H26   H     H_    0.731354 0.496401 0.134786 0.205607
H27   H     H_    0.933087 0.494884 0.188398 0.217531
H28   H     H_    0.695668 0.487292 0.222483 0.180444
N3    N     N_2   0.151571 0.387321 0.256836 -0.516232
H29   H     H_    0.115000 0.462085 0.276599 0.242462
C55   C     C_3   0.265258 0.368632 0.194459 -0.567155
H30   H     H_    0.398368 0.413314 0.204239 0.186525
H31   H     H_    0.185737 0.389683 0.152350 0.218378
H32   H     H_    0.308127 0.287847 0.177533 0.216309
N4    N     N_2   0.698237 0.770153 0.683978 -0.488134
H33   H     H_    0.776552 0.703945 0.672663 0.269676
C56   C     C_3   0.684820 0.817814 0.627190 -0.522608
H34   H     H_    0.829589 0.821897 0.604657 0.174925
H35   H     H_    0.628317 0.896042 0.645110 0.201058
H36   H     H_    0.589346 0.773706 0.586545 0.177271
Cl2   Cl    Cl    0.447611 0.649539 0.977269 -0.692381
Cl3   Cl    Cl    0.696982 0.423857 0.708267 -0.716565
Cl4   Cl    Cl    0.879005 0.972435 0.814369 -0.685233

loop_
_geom_bond_atom_site_label_1
_geom_bond_atom_site_label_2
_ccdc_geom_bond_type
C20   C25   S    
O19   C52   A    
C23   C24   S    
V4    O20   S    
C1    O6    A    
C48   C49   S    
N2    C54   S    
N1    H21   S    
C6    C16   A    
C32   C33   S    
H14   C47   S    
C28   C33   S    
C8    H5    S    
C14   C15   A    
C12   C13   A    
C37   C48   A    
C19   Cl1   S    
C19   C20   S    
C10   C12   A    
O5    C3    A    
O11   V4    S    
C7    H3    S    
C54   H26   S    
V2    O10   S    
C15   Cl4   S    
N4    H33   S    
C41   C48   A    
C30   H10   S    
C56   H34   S    
C55   H30   S    
N3    H29   S    
O8    V2    S    
C45   H20   S    
C27   C28   S    
C40   C41   A    
C46   H17   S    
C42   C46   A    
C9    C10   A    
C41   C45   A    
C42   C43   A    
O1    V2    S    
O7    V1    S    
C31   C34   S    
C11   C18   A    
C28   C29   S    
C38   C39   A    
O16   V4    S    
O19   V4    S    
O9    C4    A    
C27   N4    S    
C39   H18   S    
C55   H31   S    
N2    H25   S    
N1    C53   S    
C21   C24   S    
C56   H35   S    
C33   H13   S    
O14   C50   A    
C11   C15   A    
C22   H7    S    
C7    C18   A    
C29   C32   S    
C30   C31   S    
C5    C13   A    
C4    C6    S    
C19   C22   S    
H1    C14   S    
C10   C11   A    
O15   V3    S    
O18   C51   A    
O4    C2    A    
C27   C30   S    
C35   C43   A    
O13   C52   A    
C39   C40   A    
C56   H36   S    
O17   V4    S    
O2    C1    A    
C25   C26   S    
C20   H6    S    
C38   H19   S    
C53   H22   S    
O14   V3    S    
C9    H4    S    
C29   C30   S    
H15   C44   S    
C37   Cl2   S    
O11   C50   A    
O3    C4    A    
C29   C50   S    
C22   C23   S    
C53   H23   S    
C12   C16   A    
O6    V2    S    
O12   C49   A    
O9    V2    S    
C1    C34   S    
C5    C17   A    
C23   C26   S    
C35   H16   S    
C19   C26   S    
C24   C25   S    
O2    V1    S    
C21   C22   S    
C31   C32   S    
C27   C34   S    
O13   V3    S    
C33   C34   S    
C28   H9    S    
O1    C2    A    
C49   O16   A    
C44   C45   A    
O5    V1    S    
C32   H12   S    
V3    O20   S    
C35   C47   A    
O12   V3    S    
C23   N2    S    
C3    C21   S    
O7    V2    S    
O4    V1    S    
C20   C21   S    
O3    V1    S    
V1    O10   S    
C18   C51   S    
C54   H27   S    
C5    H2    S    
C36   C47   A    
N4    C56   S    
C17   N1    S    
C24   N3    S    
C25   H8    S    
N3    C55   S    
C2    C36   S    
C26   C52   S    
C31   H11   S    
O18   V4    S    
C43   C44   A    
C53   H24   S    
C16   Cl3   S    
C40   C42   A    
C37   C38   A    
C13   C14   A    
C36   C46   A    
C8    C9    A    
O15   C51   A    
O17   V3    S    
C7    C8    A    
C6    C17   A    
C55   H32   S    
O8    C3    A    
C54   H28   S    
