data_str_m3_o5_o29_f0_pcu.sym.123
_audit_creation_date              2013-03-05T16:48:40-0500
_audit_creation_method            fapswitch 2.2
_symmetry_space_group_name_H-M    P1
_symmetry_Int_Tables_number       1
_space_group_crystal_system       monoclinic
_cell_length_a                    27.772074
_cell_length_b                    8.916386
_cell_length_c                    8.097988
_cell_angle_alpha                 90.035578
_cell_angle_beta                  90.0
_cell_angle_gamma                 90.0
_cell_volume                      2005.27629643

loop_
_atom_site_label
_atom_site_type_symbol
_atom_site_description
_atom_site_fract_x
_atom_site_fract_y
_atom_site_fract_z
_atom_type_partial_charge
O1    O     O_R   0.500000 0.285350 0.636850 -0.614032
O2    O     O_R   0.500000 0.714650 0.363150 -0.614032
O3    O     O_R   0.500000 0.714650 0.636850 -0.613613
O4    O     O_R   0.500000 0.285350 0.363150 -0.613613
C1    C     C_R   0.500000 0.217994 0.499968 0.946715
C2    C     C_R   0.500000 0.782005 0.500032 0.946715
O5    O     O_R   0.428760 0.500000 0.636860 -0.623818
O6    O     O_R   0.571240 0.500000 0.363140 -0.623819
O7    O     O_R   0.571240 0.500000 0.636860 -0.623819
O8    O     O_R   0.428760 0.500000 0.363140 -0.623818
C3    C     C_R   0.405759 0.500000 0.500000 0.872004
C4    C     C_R   0.594241 0.500000 0.500000 0.872004
Zn1   Zn    Zn3+2 0.500000 0.500000 0.682780 0.996722
Zn2   Zn    Zn3+2 0.500000 0.500000 0.317220 0.996722
C5    C     C_R   0.177779 0.368865 0.529054 0.506356
C6    C     C_R   0.822221 0.631134 0.470941 0.506358
C7    C     C_R   0.177779 0.631134 0.470946 0.506356
C8    C     C_R   0.822221 0.368866 0.529059 0.506358
O9    O     O_2   0.202800 0.241435 0.556339 -0.534204
O10   O     O_2   0.797199 0.758562 0.443651 -0.534201
O11   O     O_2   0.202800 0.758564 0.443661 -0.534204
O12   O     O_2   0.797199 0.241438 0.556350 -0.534201
N1    N     N_R   0.201645 0.500000 0.500000 -0.360856
N2    N     N_R   0.798354 0.500000 0.500000 -0.360858
C9    C     C_R   0.277826 0.491608 0.649589 -0.096194
C10   C     C_R   0.722174 0.508344 0.350408 -0.096201
C11   C     C_R   0.277826 0.508392 0.350411 -0.096195
C12   C     C_R   0.722174 0.491656 0.649592 -0.096200
C13   C     C_R   0.327844 0.491805 0.649831 -0.205701
C14   C     C_R   0.672156 0.508147 0.350166 -0.205695
C15   C     C_R   0.327844 0.508195 0.350169 -0.205700
C16   C     C_R   0.672156 0.491853 0.649834 -0.205695
C17   C     C_R   0.252897 0.500000 0.500000 0.319450
C18   C     C_R   0.747103 0.500000 0.500000 0.319466
C19   C     C_R   0.101798 0.500000 0.500000 -0.050191
C20   C     C_R   0.898202 0.500000 0.500000 -0.050190
C21   C     C_R   0.127423 0.366376 0.529659 -0.021217
C22   C     C_R   0.872577 0.633624 0.470337 -0.021218
C23   C     C_R   0.127423 0.633624 0.470341 -0.021216
C24   C     C_R   0.872577 0.366377 0.529663 -0.021218
C25   C     C_R   0.102478 0.233493 0.559016 -0.137807
C26   C     C_R   0.897521 0.766506 0.440977 -0.137808
C27   C     C_R   0.102478 0.766507 0.440984 -0.137807
C28   C     C_R   0.897521 0.233494 0.559023 -0.137808
C29   C     C_R   0.353171 0.500000 0.500000 -0.040850
C30   C     C_R   0.646829 0.500000 0.500000 -0.040851
H1    H     H_    0.346597 0.514704 0.233122 0.164333
H2    H     H_    0.653403 0.485382 0.766884 0.164332
H3    H     H_    0.346597 0.485296 0.766878 0.164333
H4    H     H_    0.653403 0.514618 0.233116 0.164332
C31   C     C_R   0.974461 0.363877 0.530128 0.048466
C32   C     C_R   0.025538 0.636123 0.469873 0.048467
C33   C     C_R   0.974461 0.636123 0.469872 0.048466
C34   C     C_R   0.025538 0.363876 0.530127 0.048467
C35   C     C_R   0.949279 0.500000 0.500000 0.070390
C36   C     C_R   0.050721 0.500000 0.500000 0.070390
C37   C     C_R   0.947382 0.231878 0.559387 -0.220268
C38   C     C_R   0.052617 0.768123 0.440619 -0.220268
C39   C     C_R   0.947382 0.768122 0.440613 -0.220268
C40   C     C_R   0.052617 0.231877 0.559381 -0.220268
H5    H     H_    0.963277 0.124202 0.583508 0.136543
H6    H     H_    0.036723 0.875800 0.416501 0.136541
H7    H     H_    0.963277 0.875798 0.416491 0.136543
H8    H     H_    0.036723 0.124200 0.583499 0.136541
C41   C     C_1   0.500000 0.065221 0.499953 -0.182740
C42   C     C_1   0.500000 0.934779 0.500047 -0.182740
N3    N     N_1   0.500000 0.500000 0.073640 -0.035334
N4    N     N_1   0.500000 0.500000 0.926360 -0.035334
H9    H     H_    0.258365 0.514694 0.234724 0.138350
H10   H     H_    0.741635 0.485391 0.765281 0.138341
H11   H     H_    0.258365 0.485306 0.765275 0.138350
H12   H     H_    0.741635 0.514609 0.234719 0.138341
H13   H     H_    0.121437 0.129389 0.582220 0.191330
H14   H     H_    0.878563 0.870609 0.417769 0.191331
H15   H     H_    0.121437 0.870610 0.417779 0.191330
H16   H     H_    0.878563 0.129391 0.582231 0.191331

loop_
_geom_bond_atom_site_label_1
_geom_bond_atom_site_label_2
_geom_bond_distance
_ccdc_geom_bond_type
C38   H6    1.074706 S    
C10   H12   1.083041 S    
O3    C2    1.260578 A    
C33   C39   1.416783 A    
C13   H3    1.083103 S    
C11   C17   1.397302 A    
O5    C3    1.279200 A    
C7    N1    1.364612 A    
C2    C42   1.362189 S    
O1    C1    1.260383 A    
C19   C21   1.408562 A    
C22   C26   1.393065 A    
C9    C13   1.389095 A    
C7    C23   1.398673 A    
C28   H16   1.083683 S    
C8    C24   1.398670 A    
C5    C21   1.398673 A    
C20   C24   1.408563 A    
O7    Zn1   2.013123 S    
C27   C38   1.384816 A    
C5    O9    1.350183 S    
C10   C18   1.397301 A    
N1    C17   1.423369 S    
Zn2   N3    1.972508 S    
C31   C37   1.416784 A    
C11   H9    1.083040 S    
C6    O10   1.350184 S    
C5    N1    1.364612 A    
C14   H4    1.083103 S    
C12   C18   1.397300 A    
C6    N2    1.364611 A    
C15   H1    1.083103 S    
C21   C25   1.393065 A    
C16   H2    1.083103 S    
O2    C2    1.260383 A    
C33   C35   1.422026 A    
C27   H15   1.083683 S    
C34   C36   1.422027 A    
C26   H14   1.083681 S    
C11   C15   1.389095 A    
N3    N4    1.192671 T    
C12   C16   1.389095 A    
C4    C30   1.460475 S    
O8    Zn2   2.013125 S    
C34   C40   1.416782 A    
N2    C18   1.423363 S    
C13   C29   1.404417 A    
C19   C23   1.408561 A    
O5    Zn1   2.013125 S    
C28   C37   1.384816 A    
O6    C4    1.279201 A    
C32   C38   1.416782 A    
C9    H11   1.083040 S    
C1    C41   1.362189 S    
C10   C14   1.389095 A    
C8    N2    1.364611 A    
C3    C29   1.460472 S    
O1    Zn1   1.949482 S    
C32   C33   1.418503 A    
O6    Zn2   2.013123 S    
C19   C36   1.418506 A    
C8    O12   1.350183 S    
C16   C30   1.404418 A    
C14   C30   1.404419 A    
C12   H10   1.083041 S    
C25   C40   1.384816 A    
O4    C1    1.260578 A    
O3    Zn1   1.949934 S    
C26   C39   1.384819 A    
C23   C27   1.393064 A    
C37   H5    1.074706 S    
C39   H7    1.074707 S    
C40   H8    1.074706 S    
C31   C34   1.418503 A    
C20   C22   1.408564 A    
C20   C35   1.418506 A    
C31   C35   1.422027 A    
O4    Zn2   1.949935 S    
O2    Zn2   1.949481 S    
O7    C4    1.279200 A    
C7    O11   1.350183 S    
O8    C3    1.279201 A    
C25   H13   1.083683 S    
C24   C28   1.393065 A    
C41   C42   1.163067 T    
C15   C29   1.404418 A    
C9    C17   1.397302 A    
C32   C36   1.422027 A    
C6    C22   1.398670 A    
Zn1   N4    1.972508 S    
