data_str_m2_o16_o19_f0_pcu.sym.94
_audit_creation_date              2013-03-05T15:55:02-0500
_audit_creation_method            fapswitch 2.2
_symmetry_space_group_name_H-M    P1
_symmetry_Int_Tables_number       1
_space_group_crystal_system       triclinic
_cell_length_a                    11.602434
_cell_length_b                    12.465286
_cell_length_c                    13.088799
_cell_angle_alpha                 116.792952
_cell_angle_beta                  76.164485
_cell_angle_gamma                 100.255358
_cell_volume                      1635.34868667

loop_
_atom_site_label
_atom_site_type_symbol
_atom_site_description
_atom_site_fract_x
_atom_site_fract_y
_atom_site_fract_z
_atom_type_partial_charge
O1    O     O_R   0.533340 0.972510 0.318140 -0.579826
O2    O     O_R   0.488570 0.806530 0.359650 -0.536062
C1    C     C_R   0.505475 0.855676 0.286840 0.906601
O3    O     O_R   0.685190 0.083000 0.479260 -0.548919
O4    O     O_R   0.640410 0.917020 0.520770 -0.526786
C2    C     C_R   0.715235 0.000285 0.500773 0.859347
Cu1   Cu    Cu3+1 0.526510 0.098270 0.475420 1.024465
Cu2   Cu    Cu3+1 0.473490 0.901730 0.524580 1.069850
O5    O     O_R   0.511430 0.193470 0.640350 -0.566527
O6    O     O_R   0.466660 0.027490 0.681860 -0.556574
O7    O     O_R   0.359590 0.082980 0.479230 -0.593525
O8    O     O_R   0.314810 0.917000 0.520740 -0.514739
C3    C     C_R   0.485310 0.144978 0.714151 0.819944
C4    C     C_R   0.284690 0.000184 0.499866 0.830763
C5    C     C_1   0.837072 0.000185 0.500849 -0.040925
C6    C     C_1   0.940035 0.999989 0.500170 0.049772
C7    C     C_1   0.060142 0.999771 0.499288 0.005928
C8    C     C_1   0.163011 0.999880 0.499128 -0.162877
C9    C     C_R   0.394068 0.276082 0.041487 0.359445
H1    H     H_    0.409227 0.096439 0.905089 0.214998
H2    H     H_    0.306713 0.454327 0.239857 0.191582
C10   C     C_R   0.470268 0.229679 0.838200 -0.129124
C11   C     C_R   0.555933 0.815021 0.078710 -0.245808
C12   C     C_R   0.576529 0.736083 0.960888 0.369079
C13   C     C_R   0.548116 0.612478 0.928173 -0.245589
C14   C     C_R   0.490899 0.566678 0.010927 -0.014342
C15   C     C_R   0.454696 0.650453 0.127662 0.015846
C16   C     C_R   0.467055 0.440745 0.981408 0.050335
C17   C     C_R   0.409533 0.401163 0.068545 -0.029002
C18   C     C_R   0.359394 0.485933 0.177644 -0.297534
C19   C     C_R   0.370030 0.609489 0.203368 0.441012
C20   C     C_R   0.498309 0.352714 0.867544 -0.225671
C21   C     C_R   0.423419 0.191645 0.925986 -0.219250
C22   C     C_R   0.500927 0.773460 0.163221 -0.134691
H3    H     H_    0.542355 0.377345 0.798365 0.174348
H4    H     H_    0.584115 0.909530 0.104720 0.226543
H5    H     H_    0.570472 0.555232 0.836970 0.172713
C23   C     C_R   0.665019 0.321296 0.298311 0.302072
H6    H     H_    0.681791 0.500197 0.241354 0.198579
N1    N     N_R   0.566700 0.246290 0.438210 -0.307365
C24   C     C_R   0.346889 0.763399 0.655575 0.412951
C25   C     C_R   0.337227 0.682936 0.705894 0.284727
C26   C     C_R   0.403622 0.583096 0.648397 -0.208257
C27   C     C_R   0.472289 0.556166 0.536885 -0.053742
C28   C     C_R   0.497294 0.650242 0.498637 0.101436
C29   C     C_R   0.521364 0.441150 0.465446 -0.095015
C30   C     C_R   0.599141 0.423616 0.359686 -0.068017
C31   C     C_R   0.617628 0.511973 0.320175 -0.211273
C32   C     C_R   0.583789 0.627534 0.393149 0.372027
C33   C     C_R   0.491370 0.338418 0.489811 0.531869
C34   C     C_R   0.656211 0.240817 0.347417 0.371195
N2    N     N_R   0.434010 0.754320 0.561170 -0.278670
H7    H     H_    0.395500 0.524777 0.690955 0.220643
O9    O     O_3   0.751348 0.309006 0.201013 -0.596588
C35   C     C_3   0.697938 0.250273 0.100889 0.095726
H8    H     H_    0.637854 0.310055 0.100020 0.148359
H9    H     H_    0.645318 0.164807 0.096995 0.189782
C36   C     C_3   0.796067 0.219945 0.992950 -0.272896
H10   H     H_    0.858048 0.301470 0.001805 0.221090
H11   H     H_    0.847412 0.148818 0.985779 0.270603
C37   C     C_3   0.745200 0.176046 0.882181 -0.866712
H12   H     H_    0.676912 0.099375 0.874359 0.290919
H13   H     H_    0.817789 0.145930 0.805076 0.261686
H14   H     H_    0.704486 0.250704 0.883211 0.243938
O10   O     O_3   0.382201 0.326186 0.557267 -0.606142
C38   C     C_3   0.290150 0.284888 0.489458 0.121522
H15   H     H_    0.220761 0.233142 0.527660 0.173302
H16   H     H_    0.320877 0.221813 0.397067 0.190482
C39   C     C_3   0.227061 0.386205 0.494946 -0.433554
H17   H     H_    0.198871 0.449798 0.587120 0.258025
H18   H     H_    0.287008 0.435133 0.447475 0.237274
C40   C     C_3   0.116617 0.335802 0.438338 -0.768101
H19   H     H_    0.141576 0.272226 0.345502 0.300050
H20   H     H_    0.073502 0.410870 0.442764 0.253833
H21   H     H_    0.051522 0.288157 0.484536 0.261757
N3    N     N_R   0.255426 0.843314 0.693597 0.146305
O11   O     O_R   0.154126 0.800653 0.658428 -0.343559
O12   O     O_R   0.263212 0.949967 0.778643 -0.386659
O13   O     O_3   0.251256 0.689737 0.802053 -0.591322
C41   C     C_3   0.280754 0.788561 0.904103 0.130501
H22   H     H_    0.231843 0.865985 0.922695 0.233378
H23   H     H_    0.378123 0.817224 0.897815 0.137773
C42   C     C_3   0.240410 0.754336 0.006498 -0.371451
H24   H     H_    0.146470 0.715096 0.008260 0.251060
H25   H     H_    0.296556 0.684900 0.995001 0.218700
C43   C     C_3   0.249281 0.863718 0.122556 -0.825597
H26   H     H_    0.339333 0.911934 0.120210 0.266589
H27   H     H_    0.231921 0.834140 0.193514 0.249700
H28   H     H_    0.182184 0.926869 0.142027 0.295834
N4    N     N_R   0.677711 0.713541 0.381028 0.134899
O14   O     O_R   0.704969 0.725177 0.283859 -0.398870
O15   O     O_R   0.762993 0.735200 0.438582 -0.366761
N5    N     N_R   0.348484 0.233272 0.129701 0.095051
O16   O     O_R   0.393851 0.279602 0.223830 -0.467164
O17   O     O_R   0.277973 0.134891 0.107481 -0.382441
N6    N     N_R   0.630652 0.780947 0.874842 0.128676
O18   O     O_R   0.659601 0.895672 0.905859 -0.370740
O19   O     O_R   0.649492 0.708049 0.764557 -0.354552
O20   O     O_3   0.298581 0.693353 0.297860 -0.619034
C44   C     C_3   0.184511 0.646169 0.335443 0.081484
H29   H     H_    0.141429 0.721691 0.413257 0.211733
H30   H     H_    0.189631 0.579405 0.368098 0.138590
C45   C     C_3   0.103648 0.599849 0.243938 -0.448921
H31   H     H_    0.084047 0.677112 0.231978 0.239883
H32   H     H_    0.147902 0.534360 0.158539 0.228757
C46   C     C_3   0.986810 0.538049 0.281888 -0.718741
H33   H     H_    0.003916 0.454644 0.284774 0.259922
H34   H     H_    0.926671 0.513336 0.218794 0.274070
H35   H     H_    0.942068 0.599208 0.369363 0.288668
N7    N     N_R   0.741634 0.153362 0.301539 0.178345
O21   O     O_R   0.741852 0.065838 0.198219 -0.354641
O22   O     O_R   0.838025 0.181873 0.345607 -0.351782

loop_
_geom_bond_atom_site_label_1
_geom_bond_atom_site_label_2
_geom_bond_distance
_ccdc_geom_bond_type
C38   H16   1.115389 S    
C35   H8    1.112584 S    
N5    O16   1.299594 A    
C37   H14   1.109761 S    
C24   C25   1.404467 A    
C4    C8    1.413438 S    
C32   N4    1.420108 S    
Cu1   Cu2   2.736753 S    
Cu1   O7    1.902755 S    
C14   C15   1.418544 A    
C10   C20   1.398773 A    
C16   C17   1.419738 A    
N3    O12   1.298412 A    
C40   H21   1.111043 S    
C18   C19   1.409034 A    
O7    C4    1.308824 A    
C43   H27   1.109912 S    
C38   C39   1.535643 S    
C46   H33   1.110948 S    
C36   H11   1.111797 S    
C5    C6    1.192958 T    
C39   H18   1.107121 S    
C37   H13   1.110529 S    
O5    C3    1.308237 A    
N7    O21   1.299359 A    
C13   H5    1.073016 S    
C2    C5    1.414062 S    
O9    C35   1.413973 S    
C26   H7    1.078516 S    
C42   H24   1.111780 S    
C6    C7    1.391292 S    
N6    O19   1.301715 A    
Cu1   N1    2.062584 S    
C19   O20   1.400817 S    
Cu2   N2    2.050455 S    
C24   N2    1.370652 A    
C9    N5    1.435462 S    
C36   C37   1.526033 S    
C38   H15   1.107963 S    
C25   O13   1.385538 S    
N5    O17   1.301083 A    
C37   H12   1.110223 S    
C41   C42   1.530251 S    
C27   C29   1.442743 A    
C15   C22   1.427788 A    
C15   C19   1.421130 A    
C20   H3    1.071798 S    
C16   C20   1.402004 A    
C12   C13   1.399244 A    
C40   H20   1.110470 S    
C9    C21   1.398623 A    
C43   H26   1.109735 S    
C41   H22   1.109021 S    
C23   C34   1.394035 A    
C1    C22   1.482476 S    
O3    Cu1   1.898941 S    
C36   H10   1.112096 S    
O6    C3    1.320278 A    
C44   C45   1.539204 S    
O1    C1    1.323311 A    
C39   C40   1.527592 S    
C26   C27   1.405379 A    
C17   C18   1.398329 A    
N4    O15   1.302868 A    
C30   C31   1.379446 A    
C23   O9    1.384642 S    
C28   C32   1.442127 A    
Cu2   O8    1.898940 S    
C11   C22   1.400196 A    
N6    O18   1.301361 A    
C44   H30   1.108724 S    
C7    C8    1.192792 T    
C45   H32   1.109771 S    
N3    O11   1.300615 A    
C23   C30   1.409281 A    
H1    C21   1.081515 S    
C41   H23   1.117594 S    
C31   C32   1.386751 A    
C42   H25   1.110240 S    
O8    C4    1.304633 A    
O10   C38   1.427956 S    
C34   N7    1.428714 S    
C35   H9    1.115647 S    
O3    C2    1.304061 A    
C25   C26   1.388672 A    
C9    C17   1.421830 A    
C27   C28   1.431301 A    
Cu1   O5    1.919053 S    
C10   C21   1.393231 A    
C29   C30   1.406546 A    
O1    Cu1   1.938672 S    
O2    Cu2   1.919053 S    
C40   H19   1.110704 S    
C43   H28   1.110461 S    
O4    Cu2   1.902755 S    
N1    C34   1.362835 A    
H2    C18   1.075794 S    
C29   C33   1.420948 A    
C14   C16   1.428200 A    
C28   N2    1.409480 A    
O20   C44   1.418391 S    
C12   N6    1.442222 S    
O2    C1    1.310010 A    
C13   C14   1.420732 A    
C24   N3    1.429343 S    
N4    O14   1.302388 A    
O4    C2    1.309529 A    
C46   H34   1.110603 S    
N1    C33   1.383729 A    
C44   H29   1.110448 S    
C3    C10   1.471758 S    
C45   C46   1.526074 S    
C39   H17   1.110077 S    
C33   O10   1.387396 S    
N7    O22   1.300750 A    
C11   C12   1.393903 A    
O13   C41   1.415580 S    
C42   C43   1.527982 S    
Cu2   O6    1.938670 S    
C11   H4    1.079442 S    
C35   C36   1.528921 S    
C45   H31   1.111185 S    
H6    C31   1.084043 S    
C46   H35   1.109639 S    
