data_str_m9_o16_o23_f0_sra.sym.17
_audit_creation_date              2012-12-11T15:12:40-0500
_audit_creation_method            fapswitch 2.2
_symmetry_space_group_name_H-M    P1
_symmetry_Int_Tables_number       1
_space_group_crystal_system       triclinic
_cell_length_a                    22.251491
_cell_length_b                    7.180439
_cell_length_c                    19.469119
_cell_angle_alpha                 89.999818
_cell_angle_beta                  99.36224
_cell_angle_gamma                 90.000889
_cell_volume                      3069.25206105

loop_
_atom_site_label
_atom_site_type_symbol
_atom_type_description
_atom_site_fract_x
_atom_site_fract_y
_atom_site_fract_z
_atom_type_partial_charge
O1    O     O_R   0.448420 0.506120 0.415750 -0.538892
O2    O     O_R   0.551580 0.006120 0.584250 -0.538820
O3    O     O_R   0.436490 0.174470 0.555610 -0.530115
O4    O     O_R   0.563510 0.674470 0.444390 -0.530158
C1    C     C_R   0.423137 0.345223 0.577048 0.762638
C2    C     C_R   0.576859 0.845225 0.422947 0.762811
O5    O     O_R   0.441310 0.176330 0.414520 -0.531456
O6    O     O_R   0.558690 0.676330 0.585480 -0.531563
O7    O     O_R   0.556430 0.007110 0.442150 -0.534236
O8    O     O_R   0.443570 0.507110 0.557850 -0.534273
C3    C     C_R   0.427160 0.344357 0.388936 0.861178
C4    C     C_R   0.572831 0.844356 0.611070 0.861286
O9    O     O_3   0.537770 0.339560 0.509230 -0.382574
O10   O     O_3   0.462230 0.839560 0.490770 -0.382579
V1    V     V_3+5 0.492990 0.064280 0.498290 1.495334
V2    V     V_3+5 0.507010 0.564280 0.501710 1.495195
C5    C     C_R   0.863991 0.001572 0.695684 0.302007
C6    C     C_R   0.136009 0.501280 0.304321 0.301917
C7    C     C_R   0.884748 0.948087 0.820925 -0.114808
C8    C     C_R   0.115263 0.448058 0.179065 -0.114733
C9    C     C_R   0.590640 0.845588 0.739265 0.315061
C10   C     C_R   0.409370 0.345947 0.260741 0.315104
C11   C     C_R   0.628711 0.841356 0.804049 -0.199328
C12   C     C_R   0.371310 0.341864 0.195948 -0.199342
C13   C     C_R   0.691722 0.843800 0.808847 -0.169266
C14   C     C_R   0.308298 0.344152 0.191137 -0.169279
C15   C     C_R   0.719595 0.849364 0.748819 0.047114
C16   C     C_R   0.280413 0.349382 0.251161 0.047121
C17   C     C_R   0.681380 0.848070 0.681782 -0.062653
C18   C     C_R   0.318615 0.347871 0.318203 -0.062577
C19   C     C_R   0.784048 0.873279 0.753716 0.006366
C20   C     C_R   0.215957 0.373187 0.246261 0.006304
C21   C     C_R   0.808049 0.905574 0.692136 -0.009126
C22   C     C_R   0.191945 0.405273 0.307846 -0.008957
C23   C     C_R   0.773870 0.851206 0.627949 0.085085
C24   C     C_R   0.226107 0.350643 0.372011 0.085313
C25   C     C_R   0.709544 0.843880 0.621253 0.289711
C26   C     C_R   0.290436 0.343249 0.378719 0.289504
C27   C     C_R   0.825881 0.872284 0.817298 -0.242274
C28   C     C_R   0.174132 0.372297 0.182675 -0.242300
C29   C     C_R   0.899167 0.041099 0.761419 0.062027
C30   C     C_R   0.100846 0.540970 0.238591 0.061902
C31   C     C_R   0.616238 0.848888 0.677807 -0.109674
C32   C     C_R   0.383759 0.348896 0.322194 -0.109662
H1    H     H_    0.813196 0.819453 0.864852 0.116071
H2    H     H_    0.186826 0.319570 0.135110 0.116070
H3    H     H_    0.717674 0.847742 0.860671 0.119909
H4    H     H_    0.282351 0.348262 0.139312 0.119925
H5    H     H_    0.609383 0.838814 0.851638 0.112545
H6    H     H_    0.390647 0.339587 0.148365 0.112550
C33   C     C_3   0.805635 0.726751 0.265067 0.402113
C34   C     C_3   0.194333 0.226699 0.734889 0.402089
C35   C     C_3   0.793083 0.086461 0.253891 0.405388
C36   C     C_3   0.206889 0.586418 0.746068 0.405480
C37   C     C_3   0.746760 0.055305 0.309121 -0.124351
C38   C     C_3   0.253211 0.555276 0.690839 -0.124451
H7    H     H_    0.759165 0.692102 0.356905 0.138356
H8    H     H_    0.240799 0.192114 0.643042 0.138331
H9    H     H_    0.714355 0.166237 0.300659 0.239138
H10   H     H_    0.285617 0.666208 0.699305 0.239124
C39   C     C_1   0.619711 0.861246 0.374438 -0.200570
C40   C     C_1   0.380274 0.361236 0.625542 -0.200608
C41   C     C_3   0.794874 0.898063 0.211815 0.026631
C42   C     C_3   0.205095 0.398019 0.788143 0.026603
C43   C     C_3   0.745306 0.705385 0.299825 -0.161735
C44   C     C_3   0.254659 0.205357 0.700122 -0.161565
C45   C     C_3   0.703612 0.883178 0.287662 0.079918
C46   C     C_3   0.296356 0.383143 0.712295 0.079900
C47   C     C_3   0.675655 0.910094 0.207135 0.472718
C48   C     C_3   0.324310 0.410030 0.792823 0.472672
C49   C     C_3   0.729698 0.873981 0.165434 -0.428455
C50   C     C_3   0.270267 0.373905 0.834520 -0.428416
C51   C     C_1   0.655950 0.876656 0.334143 0.009220
C52   C     C_1   0.344024 0.376635 0.665824 0.009285
C53   C     C_1   0.839831 0.909044 0.161747 -0.032089
C54   C     C_1   0.160144 0.409028 0.838220 -0.032385
C55   C     C_1   0.875554 0.929493 0.120788 -0.213789
C56   C     C_1   0.124433 0.429499 0.879193 -0.213827
H11   H     H_    0.724918 0.732806 0.142251 0.121935
H12   H     H_    0.275035 0.232700 0.857682 0.122031
H13   H     H_    0.725447 0.966972 0.119200 0.158105
H14   H     H_    0.274524 0.466865 0.880763 0.158109
O11   O     O_R   0.056480 0.288780 0.942210 -0.528386
O12   O     O_R   0.943520 0.788780 0.057790 -0.528389
O13   O     O_R   0.058700 0.616820 0.085490 -0.538810
O14   O     O_R   0.941300 0.116820 0.914510 -0.538810
C57   C     C_R   0.072739 0.449875 0.111497 0.717619
C58   C     C_R   0.927264 0.949877 0.888500 0.717646
O15   O     O_R   0.063520 0.618570 0.944410 -0.537258
O16   O     O_R   0.936480 0.118570 0.055590 -0.537260
O17   O     O_R   0.948420 0.787670 0.915740 -0.536031
O18   O     O_R   0.051580 0.287670 0.084260 -0.536017
C59   C     C_R   0.079159 0.448452 0.925238 0.717187
C60   C     C_R   0.920838 0.948449 0.074757 0.717221
O19   O     O_3   0.962260 0.453430 0.990800 -0.373228
O20   O     O_3   0.037740 0.953430 0.009200 -0.373203
V3    V     V_3+5 0.007000 0.728750 0.001710 1.396483
V4    V     V_3+5 0.993000 0.228750 0.998290 1.396496
C61   C     C_3   0.945170 0.199457 0.768180 -0.375179
C62   C     C_3   0.010011 0.128985 0.773990 -0.730563
H15   H     H_    0.041748 0.246505 0.787247 0.220977
H16   H     H_    0.020276 0.020254 0.814684 0.231202
H17   H     H_    0.016646 0.073601 0.722893 0.210233
H18   H     H_    0.935990 0.296177 0.723166 0.188647
H19   H     H_    0.940384 0.290453 0.812858 0.202693
C63   C     C_3   0.054913 0.699512 0.231851 -0.375265
C64   C     C_3   0.990033 0.629340 0.225989 -0.730365
H20   H     H_    0.958371 0.747106 0.212878 0.220785
H21   H     H_    0.979689 0.521001 0.185166 0.231312
H22   H     H_    0.983379 0.573573 0.277022 0.210225
H23   H     H_    0.064124 0.796122 0.276895 0.188652
H24   H     H_    0.059762 0.790529 0.187197 0.202694
C65   C     C_3   0.862004 0.756803 0.323924 -0.283029
C66   C     C_3   0.883997 0.594758 0.372357 -0.769031
H25   H     H_    0.845584 0.518871 0.389293 0.211098
H26   H     H_    0.913849 0.501718 0.348243 0.234205
H27   H     H_    0.912790 0.649370 0.420161 0.206152
H28   H     H_    0.901394 0.808786 0.301355 0.182184
H29   H     H_    0.849974 0.856326 0.361240 0.143757
C67   C     C_3   0.137961 0.256734 0.676035 -0.283108
C68   C     C_3   0.115983 0.094701 0.627586 -0.769071
H30   H     H_    0.154401 0.018850 0.610646 0.211126
H31   H     H_    0.086132 0.001617 0.651683 0.234168
H32   H     H_    0.087191 0.149328 0.579783 0.206170
H33   H     H_    0.098568 0.308676 0.698608 0.182193
H34   H     H_    0.149986 0.356295 0.638727 0.143759
O21   O     O_3   0.766371 0.223045 0.206302 -0.644327
H35   H     H_    0.788085 0.228884 0.165783 0.302828
O22   O     O_3   0.233601 0.723002 0.793658 -0.644268
H36   H     H_    0.211879 0.728865 0.834170 0.302894
C69   C     C_3   0.856296 0.171673 0.288303 -0.341744
C70   C     C_3   0.905363 0.208900 0.243210 -0.696043
H37   H     H_    0.929924 0.079210 0.234720 0.199207
H38   H     H_    0.887614 0.279818 0.193529 0.247319
H39   H     H_    0.941101 0.296959 0.272603 0.200429
H40   H     H_    0.843696 0.304671 0.308238 0.245879
H41   H     H_    0.881243 0.104716 0.334707 0.126696
C71   C     C_3   0.143674 0.671620 0.711654 -0.341757
C72   C     C_3   0.094599 0.708798 0.756739 -0.696236
H42   H     H_    0.070047 0.579086 0.765229 0.199297
H43   H     H_    0.112341 0.779729 0.806421 0.247308
H44   H     H_    0.058859 0.796835 0.727337 0.200473
H45   H     H_    0.156272 0.804635 0.691729 0.245896
H46   H     H_    0.118732 0.604679 0.665245 0.126712
C73   C     C_3   0.771124 0.072726 0.390086 -0.450487
C74   C     C_3   0.734686 0.203199 0.429997 -0.786695
H47   H     H_    0.746231 0.349594 0.420254 0.227370
H48   H     H_    0.684984 0.181072 0.415916 0.249415
H49   H     H_    0.747594 0.178906 0.486818 0.233874
H50   H     H_    0.770465 0.936233 0.415377 0.198146
H51   H     H_    0.818183 0.123694 0.403017 0.194164
C75   C     C_3   0.228842 0.572722 0.609875 -0.450313
C76   C     C_3   0.265326 0.702995 0.569939 -0.786499
H52   H     H_    0.253789 0.849448 0.579602 0.227289
H53   H     H_    0.315022 0.680879 0.584070 0.249390
H54   H     H_    0.252454 0.678485 0.513126 0.234016
H55   H     H_    0.229431 0.436216 0.584587 0.197962
H56   H     H_    0.181804 0.623875 0.596954 0.194148
C77   C     C_3   0.619124 0.785579 0.179029 -0.319578
C78   C     C_3   0.588469 0.833942 0.104792 -0.794792
H57   H     H_    0.565599 0.971630 0.103299 0.238744
H58   H     H_    0.622048 0.833778 0.068422 0.217349
H59   H     H_    0.552960 0.728398 0.086475 0.219883
H60   H     H_    0.630476 0.637268 0.177121 0.171068
H61   H     H_    0.583944 0.802357 0.212985 0.192885
C79   C     C_3   0.380836 0.285494 0.820924 -0.319563
C80   C     C_3   0.411489 0.333820 0.895165 -0.794770
H62   H     H_    0.434358 0.471513 0.896670 0.238727
H63   H     H_    0.377907 0.333627 0.931534 0.217345
H64   H     H_    0.446997 0.228272 0.913476 0.219900
H65   H     H_    0.369477 0.137184 0.822820 0.171074
H66   H     H_    0.416020 0.302281 0.786973 0.192891
O23   O     O_3   0.818936 0.562900 0.230488 -0.629986
H67   H     H_    0.802600 0.568261 0.180228 0.293283
O24   O     O_3   0.181051 0.062820 0.769466 -0.630009
H68   H     H_    0.197253 0.068356 0.819758 0.293273
C81   C     C_3   0.712938 0.519329 0.281447 -0.297286
C82   C     C_3   0.654153 0.479175 0.311743 -0.746632
H69   H     H_    0.661283 0.504220 0.368634 0.228090
H70   H     H_    0.615127 0.562271 0.286723 0.225465
H71   H     H_    0.638145 0.334575 0.301971 0.247873
H72   H     H_    0.705889 0.491581 0.225084 0.235466
H73   H     H_    0.748108 0.423134 0.305608 0.231251
C83   C     C_3   0.287022 0.019279 0.718472 -0.297174
C84   C     C_3   0.345809 0.979151 0.688178 -0.746733
H74   H     H_    0.338682 0.004236 0.631289 0.228143
H75   H     H_    0.384835 0.062225 0.713214 0.225465
H76   H     H_    0.361815 0.834546 0.697936 0.247829
H77   H     H_    0.294069 0.991484 0.774833 0.235593
H78   H     H_    0.251851 0.923100 0.694290 0.231194
C85   C     C_3   0.806618 0.780559 0.570050 -0.317781
C86   C     C_3   0.787562 0.582564 0.546952 -0.778494
H79   H     H_    0.791803 0.488218 0.592729 0.250856
H80   H     H_    0.740137 0.578172 0.518714 0.247155
H81   H     H_    0.817883 0.530244 0.511239 0.217681
H82   H     H_    0.799318 0.877438 0.525604 0.180497
H83   H     H_    0.856526 0.772447 0.587781 0.212384
C87   C     C_3   0.193338 0.279577 0.429831 -0.318127
C88   C     C_3   0.212234 0.081186 0.452537 -0.778696
H84   H     H_    0.207685 0.987399 0.406604 0.250914
H85   H     H_    0.259726 0.076105 0.480505 0.247441
H86   H     H_    0.182023 0.028789 0.488358 0.217867
H87   H     H_    0.200768 0.375832 0.474458 0.180233
H88   H     H_    0.143415 0.272004 0.412160 0.212528
O25   O     O_3   0.654321 0.095812 0.197910 -0.639966
H89   H     H_    0.652357 0.134120 0.148662 0.310831
O26   O     O_3   0.345650 0.595744 0.802055 -0.639951
H90   H     H_    0.347611 0.634044 0.851303 0.310834
O27   O     O_3   0.879121 0.075429 0.635177 -0.665844
H91   H     H_    0.924063 0.081176 0.639940 0.286453
O28   O     O_3   0.120878 0.574997 0.364849 -0.665843
H92   H     H_    0.075937 0.580928 0.360061 0.286467
O29   O     O_3   0.527934 0.845036 0.734570 -0.660710
H93   H     H_    0.517288 0.842598 0.782094 0.287962
O30   O     O_3   0.472078 0.345592 0.265449 -0.660713
H94   H     H_    0.482733 0.343400 0.217929 0.287937
O31   O     O_3   0.673922 0.831043 0.556420 -0.667142
H95   H     H_    0.696702 0.880674 0.520812 0.282811
O32   O     O_3   0.326047 0.329827 0.443544 -0.667161
H96   H     H_    0.303267 0.378959 0.479220 0.282778

loop_
_geom_bond_atom_site_label_1
_geom_bond_atom_site_label_2
_ccdc_geom_bond_type
C44   C46   S    
C79   H66   S    
C37   H9    S    
C15   C17   A    
C35   C41   S    
O1    C3    A    
C25   O31   S    
O2    C4    A    
C2    O7    A    
C49   H11   S    
C82   H69   S    
O19   V4    S    
O18   V4    S    
C80   H63   S    
C63   H24   S    
O29   H93   S    
O5    C3    A    
C7    C29   A    
C33   C65   S    
C41   C53   S    
O12   V3    S    
C54   C56   T    
C2    C39   S    
C23   C25   A    
C24   C87   S    
C65   C66   S    
C4    C31   S    
C5    O27   S    
C71   H45   S    
C48   C79   S    
C8    C28   A    
C72   H44   S    
O14   C58   A    
C84   H75   S    
C63   C64   S    
C56   C59   S    
C46   C52   S    
C81   H72   S    
O11   C59   A    
C8    C57   S    
C55   C60   S    
C83   C84   S    
C18   C26   A    
C47   C49   S    
C33   C43   S    
C33   O23   S    
C85   H82   S    
C68   H32   S    
C44   C83   S    
C35   O21   S    
C47   C77   S    
C65   H29   S    
H8    C44   S    
C10   C32   A    
O24   H68   S    
C70   H37   S    
C43   C45   S    
O11   V4    S    
O20   V4    S    
C88   H86   S    
C64   H20   S    
C29   C61   S    
O16   C60   A    
C87   C88   S    
C35   C69   S    
C38   C75   S    
C13   H3    S    
C22   C24   A    
C73   H50   S    
C14   H4    S    
C27   H1    S    
C10   C12   A    
O5    V1    S    
C61   H18   S    
C34   C44   S    
C88   H84   S    
O6    V2    S    
C9    C31   A    
C10   O30   S    
C17   C31   A    
C64   H21   S    
C18   C32   A    
C5    C21   A    
C62   H16   S    
C73   C74   S    
C80   H64   S    
C74   H48   S    
C63   H23   S    
C35   C37   S    
C12   H6    S    
C61   H19   S    
C75   H56   S    
C48   C50   S    
O13   C57   A    
C15   C19   A    
O26   H90   S    
C66   H27   S    
C78   H59   S    
C16   C20   A    
O13   V3    S    
O4    C2    A    
C69   H40   S    
C34   C42   S    
H7    C43   S    
C80   H62   S    
C67   H33   S    
C84   H76   S    
C39   C51   T    
C48   O26   S    
C81   H73   S    
C62   H17   S    
C85   C86   S    
O15   V3    S    
C66   H26   S    
C45   C47   S    
C20   C22   A    
O4    V2    S    
C28   H2    S    
O30   H94   S    
C86   H81   S    
O28   H92   S    
C69   H41   S    
C74   H49   S    
C6    C22   A    
C8    C30   A    
C77   C78   S    
C77   H60   S    
C58   O17   A    
O6    C4    A    
O20   V3    S    
C19   C21   A    
O27   H91   S    
C42   C54   S    
C33   C41   S    
C3    C32   S    
O1    V2    S    
O12   C60   A    
O17   V3    S    
C76   H54   S    
O2    V1    S    
C53   C55   T    
C34   O24   S    
C68   H30   S    
C73   H51   S    
C67   H34   S    
C7    C27   A    
C45   C51   S    
C34   C67   S    
C46   C48   S    
C41   C49   S    
C7    C58   S    
C9    C11   A    
O9    V1    S    
C87   H88   S    
C79   C80   S    
C64   H22   S    
O10   V2    S    
C77   H61   S    
C76   H53   S    
C69   C70   S    
O32   H96   S    
C20   C28   A    
O3    V1    S    
C67   C68   S    
C74   H47   S    
C36   O22   S    
O25   H89   S    
C75   H55   S    
C83   H78   S    
C23   C85   S    
C83   H77   S    
C47   O25   S    
C26   O32   S    
C85   H83   S    
C12   C14   A    
O3    C1    A    
C82   H70   S    
C72   H42   S    
O19   V3    S    
C36   C38   S    
C66   H25   S    
C43   C81   S    
C13   C15   A    
C11   H5    S    
C14   C16   A    
C61   C62   S    
C37   C45   S    
C86   H79   S    
C6    C30   A    
C6    O28   S    
O31   H95   S    
C1    O8    A    
C50   H12   S    
C38   C46   S    
C78   H57   S    
C24   C26   A    
C72   H43   S    
C84   H74   S    
C36   C71   S    
C36   C42   S    
O22   H36   S    
C71   H46   S    
C70   H39   S    
C16   C18   A    
C62   H15   S    
C21   C23   A    
C19   C27   A    
C1    C40   S    
C9    O29   S    
C42   C50   S    
O15   C59   A    
O14   V4    S    
C5    C29   A    
C68   H31   S    
C82   H71   S    
C37   C73   S    
C71   C72   S    
O23   H67   S    
C65   H28   S    
C30   C63   S    
C38   H10   S    
C79   H65   S    
C11   C13   A    
C75   C76   S    
C70   H38   S    
C81   C82   S    
O9    V2    S    
C17   C25   A    
C87   H87   S    
C88   H85   S    
O10   V1    S    
C40   C52   T    
O8    V2    S    
C76   H52   S    
C57   O18   A    
O16   V4    S    
C50   H14   S    
O21   H35   S    
O7    V1    S    
C78   H58   S    
C49   H13   S    
C86   H80   S    
