data_str_m9_o13_o16_f0_sra.sym.15
_audit_creation_date              2013-03-05T15:44:18-0500
_audit_creation_method            fapswitch 2.2
_symmetry_space_group_name_H-M    P1
_symmetry_Int_Tables_number       1
_space_group_crystal_system       triclinic
_cell_length_a                    20.846315
_cell_length_b                    7.097904
_cell_length_c                    16.38429
_cell_angle_alpha                 88.771831
_cell_angle_beta                  92.432882
_cell_angle_gamma                 88.299344
_cell_volume                      2420.42654112

loop_
_atom_site_label
_atom_site_type_symbol
_atom_site_description
_atom_site_fract_x
_atom_site_fract_y
_atom_site_fract_z
_atom_type_partial_charge
O1    O     O_R   0.564840 0.505290 0.579830 -0.555648
O2    O     O_R   0.435160 0.005290 0.420170 -0.559307
O3    O     O_R   0.556720 0.179930 0.409350 -0.558687
O4    O     O_R   0.443280 0.679930 0.590650 -0.558929
C1    C     C_R   0.570463 0.344595 0.380928 0.823142
C2    C     C_R   0.429706 0.845182 0.619058 0.823150
O5    O     O_R   0.572280 0.175810 0.578530 -0.563610
O6    O     O_R   0.427720 0.675810 0.421470 -0.558398
O7    O     O_R   0.450830 0.001920 0.590540 -0.554119
O8    O     O_R   0.549170 0.501920 0.409460 -0.555905
C3    C     C_R   0.590739 0.340215 0.604493 0.811598
C4    C     C_R   0.410132 0.848615 0.394982 0.812018
O9    O     O_3   0.460130 0.338030 0.503750 -0.275514
O10   O     O_3   0.539870 0.838030 0.496250 -0.278699
V1    V     V_3+5 0.507400 0.064560 0.499310 1.129240
V2    V     V_3+5 0.492600 0.564560 0.500690 1.127423
C5    C     C_R   0.143730 0.888507 0.166982 -0.098505
C6    C     C_R   0.853715 0.433117 0.834788 -0.097469
C7    C     C_R   0.356491 0.877488 0.332622 -0.101696
C8    C     C_R   0.646570 0.332633 0.664978 -0.104339
C9    C     C_R   0.301054 0.086962 0.230105 -0.090706
C10   C     C_R   0.716483 0.146051 0.761957 -0.087653
C11   C     C_R   0.353949 0.042861 0.282989 -0.092603
C12   C     C_R   0.661962 0.163317 0.709232 -0.098820
C13   C     C_R   0.305141 0.754157 0.326662 -0.132241
C14   C     C_R   0.687121 0.486089 0.675740 -0.130144
C15   C     C_R   0.251311 0.798835 0.273881 0.069181
C16   C     C_R   0.742672 0.468690 0.728229 0.074689
C17   C     C_R   0.249023 0.967150 0.225477 0.083173
C18   C     C_R   0.757632 0.297071 0.771549 0.083536
C19   C     C_R   0.195109 0.011868 0.172776 -0.113278
C20   C     C_R   0.813158 0.279691 0.824065 -0.100742
C21   C     C_R   0.146470 0.723001 0.216422 -0.053810
C22   C     C_R   0.838376 0.602371 0.790481 -0.062562
C23   C     C_R   0.199350 0.678877 0.269222 -0.077087
C24   C     C_R   0.783853 0.619669 0.737776 -0.085348
H1    H     H_    0.194144 0.138611 0.134553 0.079257
H2    H     H_    0.823813 0.148821 0.857942 0.088622
H3    H     H_    0.107683 0.625168 0.213479 0.170625
H4    H     H_    0.868568 0.723224 0.796796 0.151583
H5    H     H_    0.300626 0.215973 0.193445 0.062526
H6    H     H_    0.726631 0.013803 0.794911 0.058666
H7    H     H_    0.199811 0.549718 0.305789 0.099438
H8    H     H_    0.773732 0.751900 0.704800 0.084996
H9    H     H_    0.392899 0.140562 0.285758 0.086510
H10   H     H_    0.631787 0.042406 0.702897 0.088292
H11   H     H_    0.306042 0.627417 0.364884 0.083344
H12   H     H_    0.676446 0.616996 0.641903 0.085568
C25   C     C_R   0.379660 0.907152 0.834888 -0.076425
C26   C     C_R   0.622023 0.327543 0.163817 -0.075946
H13   H     H_    0.469247 0.890629 0.775506 0.054719
H14   H     H_    0.532747 0.306642 0.223234 0.052819
H15   H     H_    0.299163 0.950626 0.954298 0.063439
H16   H     H_    0.703069 0.329648 0.043574 0.063372
H17   H     H_    0.403123 0.928409 0.894142 0.061461
H18   H     H_    0.599394 0.308042 0.103932 0.061454
C27   C     C_R   0.388951 0.857016 0.690266 -0.079685
C28   C     C_R   0.611351 0.351981 0.309677 -0.080128
C29   C     C_R   0.075980 0.879757 0.730515 0.325827
C30   C     C_R   0.922309 0.432133 0.270371 0.329226
C31   C     C_R   0.112094 0.851479 0.661647 -0.078046
C32   C     C_R   0.885587 0.440889 0.339644 -0.075537
C33   C     C_R   0.178874 0.850986 0.666667 -0.138414
C34   C     C_R   0.819274 0.423601 0.334179 -0.138988
C35   C     C_R   0.212860 0.878430 0.741593 0.051721
C36   C     C_R   0.786440 0.396881 0.258404 0.051025
C37   C     C_R   0.176477 0.906459 0.812746 -0.031353
C38   C     C_R   0.823384 0.391426 0.186709 -0.030740
C39   C     C_R   0.281772 0.877574 0.748257 0.060202
C40   C     C_R   0.718132 0.375902 0.251521 0.060425
C41   C     C_R   0.312403 0.904600 0.826109 0.062603
C42   C     C_R   0.688585 0.350962 0.172884 0.062087
C43   C     C_R   0.275900 0.930300 0.894827 -0.097427
C44   C     C_R   0.725525 0.348275 0.103644 -0.097897
C45   C     C_R   0.209231 0.931227 0.888433 -0.070581
C46   C     C_R   0.791651 0.368069 0.110270 -0.068493
C47   C     C_R   0.321670 0.852527 0.680584 -0.111984
C48   C     C_R   0.677881 0.376835 0.319703 -0.111431
C49   C     C_R   0.417480 0.884999 0.767493 -0.098542
C50   C     C_R   0.583893 0.327028 0.231626 -0.099026
C51   C     C_R   0.108001 0.906647 0.807054 -0.181306
C52   C     C_R   0.891377 0.410096 0.192837 -0.181291
H19   H     H_    0.302239 0.833140 0.619461 0.047536
H20   H     H_    0.696557 0.393601 0.381357 0.047683
H21   H     H_    0.202437 0.828180 0.610351 0.089263
H22   H     H_    0.795172 0.431293 0.390889 0.090291
H23   H     H_    0.088153 0.830884 0.602686 0.140070
H24   H     H_    0.908783 0.458520 0.399288 0.140152
H25   H     H_    0.183547 0.952120 0.943741 0.038712
H26   H     H_    0.817780 0.363898 0.054589 0.035784
O11   O     O_R   0.950790 0.256670 0.090520 -0.537815
O12   O     O_R   0.049210 0.756670 0.909480 -0.550054
O13   O     O_R   0.927720 0.590370 0.921470 -0.566013
O14   O     O_R   0.072280 0.090370 0.078530 -0.536843
C53   C     C_R   0.909491 0.425541 0.895295 0.827066
C54   C     C_R   0.089826 0.917208 0.104988 0.825812
O15   O     O_R   0.943270 0.586180 0.090640 -0.560777
O16   O     O_R   0.056730 0.086180 0.909360 -0.547196
O17   O     O_R   0.064850 0.759970 0.079840 -0.565932
O18   O     O_R   0.935150 0.259970 0.920160 -0.534928
C55   C     C_R   0.930297 0.417790 0.119155 0.880840
C56   C     C_R   0.069505 0.917429 0.880886 0.885405
O19   O     O_3   0.039850 0.428050 0.996240 -0.279676
O20   O     O_3   0.960150 0.928050 0.003760 -0.281139
V3    V     V_3+5 0.992610 0.701540 0.000700 1.178569
V4    V     V_3+5 0.007390 0.201540 0.999300 1.197294
N1    N     N_R   0.006872 0.879176 0.721569 0.076511
O21   O     O_R   0.971447 0.992867 0.763234 -0.376090
O22   O     O_R   0.979214 0.779536 0.665149 -0.355152
N2    N     N_R   0.991013 0.445140 0.280037 0.069389
O23   O     O_R   0.028759 0.338201 0.238384 -0.382943
O24   O     O_R   0.016095 0.544580 0.338394 -0.363721

loop_
_geom_bond_atom_site_label_1
_geom_bond_atom_site_label_2
_geom_bond_distance
_ccdc_geom_bond_type
C36   C38   1.432295 A    
C33   C35   1.411209 A    
C11   H9    1.083472 S    
C40   C48   1.425347 A    
N1    O22   1.301580 A    
C27   C49   1.395724 A    
C39   C47   1.425032 A    
O1    C3    1.323350 A    
O2    C4    1.309597 A    
C2    O7    1.293899 A    
O20   V4    2.203839 S    
C10   H6    1.083602 S    
O5    C3    1.313313 A    
C21   H3    1.081554 S    
C44   C46   1.389661 A    
C1    C28   1.475331 S    
C22   H4    1.083037 S    
C15   C17   1.418197 A    
C47   H19   1.077352 S    
C54   O17   1.312419 A    
C30   C32   1.397161 A    
C39   C41   1.421318 A    
C26   C42   1.404390 A    
N2    O23   1.301293 A    
C32   C34   1.390714 A    
C31   H23   1.083100 S    
O13   V3    2.023807 S    
H16   C44   1.084171 S    
C30   C52   1.413856 A    
C8    C12   1.411735 A    
C8    C14   1.407954 A    
C35   C37   1.431764 A    
N1    O21   1.301381 A    
C20   H2    1.084179 S    
C23   H7    1.083942 S    
C13   H11   1.084270 S    
O12   C56   1.312648 A    
O15   V3    2.006696 S    
O5    V1    2.023811 S    
O13   C53   1.315727 A    
C33   H21   1.076573 S    
C6    C53   1.494574 S    
C43   C45   1.389112 A    
O11   V4    1.981520 S    
C5    C21   1.410938 A    
O11   C55   1.312056 A    
C34   H22   1.076533 S    
O20   V3    1.728297 S    
N2    O24   1.301598 A    
C51   C56   1.481873 S    
O17   V3    2.003873 S    
C3    C8    1.495203 S    
C29   C31   1.397540 A    
C27   C47   1.406182 A    
C42   C44   1.398056 A    
C5    C54   1.488814 S    
C28   C48   1.406422 A    
C53   O18   1.325463 A    
C15   C23   1.398062 A    
C25   H17   1.083911 S    
C9    C17   1.398552 A    
C26   H18   1.083895 S    
C25   C49   1.392713 A    
C34   C36   1.411195 A    
O4    V2    2.007621 S    
C7    C11   1.411962 A    
C48   H20   1.077342 S    
O6    C4    1.328224 A    
C31   C33   1.390965 A    
O19   V3    2.154561 S    
O1    V2    1.974684 S    
O14   C54   1.330176 A    
O2    V1    2.005329 S    
C6    C22   1.411591 A    
C9    H5    1.083907 S    
O4    C2    1.298991 A    
C37   C51   1.426527 A    
C9    C11   1.396924 A    
C13   C15   1.411517 A    
C5    C19   1.404797 A    
C10   C12   1.398882 A    
C24   H8    1.083586 S    
C37   C45   1.406938 A    
O3    V1    2.006738 S    
C41   C43   1.397591 A    
C29   N1    1.442016 S    
O14   V4    1.970093 S    
C2    C27   1.474509 S    
C10   C18   1.399963 A    
C14   C16   1.413617 A    
H15   C43   1.084205 S    
C29   C51   1.414697 A    
O3    C1    1.293387 A    
C26   C50   1.393235 A    
C40   C42   1.421123 A    
C14   H12   1.084153 S    
C38   C46   1.406652 A    
O18   V4    1.973641 S    
O16   V4    2.007561 S    
C38   C52   1.426982 A    
C28   C50   1.395690 A    
C16   C18   1.416495 A    
O7    V1    1.993716 S    
C12   H10   1.083198 S    
C1    O8    1.293485 A    
C17   C19   1.412162 A    
O16   C56   1.318642 A    
C18   C20   1.413460 A    
C36   C40   1.436053 A    
C32   H24   1.083133 S    
C35   C39   1.435905 A    
C4    C7    1.488878 S    
C21   C23   1.395931 A    
C52   C55   1.483792 S    
O19   V4    1.763306 S    
C22   C24   1.398753 A    
C7    C13   1.404340 A    
H13   C49   1.083590 S    
C30   N2    1.440175 S    
C45   H25   1.082615 S    
C19   H1    1.084258 S    
O12   V3    1.982698 S    
C6    C20   1.407786 A    
C16   C24   1.400075 A    
O6    V2    1.970064 S    
C25   C41   1.404024 A    
O9    V2    1.763523 S    
O10   V1    1.728503 S    
O8    V2    1.992392 S    
H14   C50   1.083606 S    
O15   C55   1.313744 A    
C46   H26   1.082701 S    
