data_str_m3_o14_o17_f0_pcu.sym.176
_audit_creation_date              2012-12-10T17:43:34-0500
_audit_creation_method            fapswitch 2.2
_symmetry_space_group_name_H-M    P1
_symmetry_Int_Tables_number       1
_space_group_crystal_system       triclinic
_cell_length_a                    14.874558
_cell_length_b                    10.663215
_cell_length_c                    9.91738
_cell_angle_alpha                 90.144922
_cell_angle_beta                  90.563858
_cell_angle_gamma                 91.523384
_cell_volume                      1572.36345353

loop_
_atom_site_label
_atom_site_type_symbol
_atom_type_description
_atom_site_fract_x
_atom_site_fract_y
_atom_site_fract_z
_atom_type_partial_charge
C1    C     C_R   0.505963 0.260900 0.500392 0.870550
C2    C     C_R   0.907976 0.604655 0.455990 0.132627
C3    C     C_R   0.951148 0.269341 0.546844 0.473126
C4    C     C_R   0.044970 0.273961 0.551281 -0.254621
C5    C     C_R   0.092436 0.385509 0.524362 0.049985
C6    C     C_R   0.046708 0.494717 0.488412 0.064453
C7    C     C_R   0.094978 0.606074 0.454286 0.120706
C8    C     C_R   0.049539 0.714516 0.419016 -0.152989
C9    C     C_R   0.956192 0.713832 0.420058 -0.136709
C10   C     C_R   0.185518 0.389451 0.531330 -0.157774
C11   C     C_R   0.231977 0.499402 0.497200 -0.036252
C12   C     C_R   0.327229 0.500510 0.499353 0.891967
C13   C     C_R   0.188141 0.606863 0.457000 -0.227518
C14   C     C_R   0.620808 0.134019 0.700364 -0.265149
C15   C     C_R   0.666488 0.069996 0.801420 0.549901
C16   C     C_R   0.671530 0.939955 0.794151 -0.198379
C17   C     C_R   0.627405 0.874264 0.690300 -0.280247
C18   C     C_R   0.571523 0.936717 0.597075 0.101974
C19   C     C_R   0.569803 0.068304 0.599778 0.024879
C20   C     C_R   0.516955 0.128950 0.500794 -0.076981
C21   C     C_R   0.470827 0.062491 0.399664 -0.138528
C22   C     C_R   0.470424 0.934947 0.399795 -0.182943
C23   C     C_R   0.506248 0.739459 0.500225 0.862325
C24   C     C_R   0.517615 0.872160 0.499608 -0.099547
C25   C     C_R   0.382309 0.335818 0.137975 -0.253302
C26   C     C_R   0.324319 0.253885 0.067068 0.478160
C27   C     C_R   0.324942 0.253763 0.927178 -0.260040
C28   C     C_R   0.382698 0.334989 0.858116 -0.226764
C29   C     C_R   0.442127 0.418792 0.926716 0.194141
C30   C     C_R   0.442032 0.418994 0.071197 0.124106
C31   C     C_R   0.555728 0.577096 0.072558 -0.065271
C32   C     C_R   0.555755 0.576969 0.929524 -0.069424
C33   C     C_R   0.672853 0.499105 0.500468 0.861259
C34   C     C_R   0.815183 0.605168 0.460511 -0.235341
C35   C     C_R   0.768239 0.497570 0.500304 -0.069559
C36   C     C_R   0.811170 0.386711 0.531519 -0.103680
C37   C     C_R   0.904504 0.381444 0.522379 -0.026916
C38   C     C_R   0.953046 0.493310 0.488564 0.002566
H1    H     H_    0.779214 0.689336 0.435089 0.138773
H2    H     H_    0.626529 0.234836 0.703269 0.208110
H3    H     H_    0.709882 0.889123 0.868426 0.184318
H4    H     H_    0.637969 0.774670 0.684495 0.179228
H5    H     H_    0.430015 0.885087 0.324294 0.194111
H6    H     H_    0.601268 0.640178 0.127071 0.147487
H7    H     H_    0.379048 0.332048 0.244753 0.238482
H8    H     H_    0.280353 0.190440 0.870962 0.196314
H9    H     H_    0.378626 0.329119 0.751178 0.223465
H10   H     H_    0.770787 0.306248 0.562497 0.197690
H11   H     H_    0.601477 0.639725 0.876875 0.136949
H12   H     H_    0.081472 0.190028 0.574820 0.194317
H13   H     H_    0.222122 0.307021 0.560878 0.141672
H14   H     H_    0.226675 0.690893 0.430285 0.146246
H15   H     H_    0.086157 0.799947 0.392192 0.182348
H16   H     H_    0.921656 0.798755 0.393846 0.199378
H17   H     H_    0.431285 0.109191 0.323451 0.207690
N1    N     N_R   0.499150 0.498800 0.142780 -0.108902
N2    N     N_R   0.499120 0.498720 0.857170 -0.114165
O1    O     O_R   0.500000 0.316780 0.614690 -0.654287
O2    O     O_R   0.499990 0.316750 0.385360 -0.619436
O3    O     O_R   0.367850 0.499980 0.614680 -0.632518
O4    O     O_R   0.367840 0.499960 0.385350 -0.621142
O5    O     O_R   0.500010 0.683250 0.614640 -0.615989
O6    O     O_R   0.500000 0.683220 0.385310 -0.622080
O7    O     O_R   0.632160 0.500040 0.614650 -0.621901
O8    O     O_R   0.632150 0.500020 0.385320 -0.598924
Zn1   Zn    Zn3+2 0.500010 0.500020 0.653130 0.956212
Zn2   Zn    Zn3+2 0.499990 0.499980 0.346870 0.981238
S1    S     S_3+6 0.715149 0.153813 0.938380 0.060862
O9    O     O_2   0.644078 0.172720 0.042654 -0.307477
O10   O     O_2   0.790770 0.081707 0.999596 -0.229286
O11   O     O_3   0.754204 0.294647 0.885605 -0.547938
H18   H     H_    0.773436 0.339746 0.968878 0.390582
S2    S     S_3+6 0.250986 0.149867 0.152958 0.010353
O12   O     O_2   0.157427 0.161474 0.096554 -0.244365
O13   O     O_2   0.281371 0.018056 0.131660 -0.309207
O14   O     O_3   0.251043 0.182318 0.318956 -0.618850
H19   H     H_    0.208339 0.120024 0.358377 0.385284
S3    S     S_3+6 0.896311 0.121447 0.570314 0.023715
O15   O     O_2   0.961215 0.017535 0.549975 -0.310396
O16   O     O_2   0.861797 0.115403 0.711773 -0.253588
O17   O     O_3   0.810071 0.102102 0.460491 -0.554677
H20   H     H_    0.776646 0.026224 0.491854 0.375515

loop_
_geom_bond_atom_site_label_1
_geom_bond_atom_site_label_2
_ccdc_geom_bond_type
C8    C9    A    
C28   H9    S    
S2    O12   D    
C35   C36   A    
N2    Zn1   S    
O17   H20   S    
C33   O8    A    
C7    C8    A    
C26   C27   A    
C29   C30   A    
C18   C24   A    
C36   C37   A    
C34   C35   A    
C33   O7    A    
C5    C6    A    
S3    O16   D    
C15   C16   A    
C26   S2    S    
C18   C19   A    
C2    C38   A    
C17   H4    S    
O2    Zn2   S    
O1    Zn1   S    
C23   O5    A    
C31   C32   A    
C16   C17   A    
O8    Zn2   S    
C23   C24   S    
C6    C38   A    
C31   N1    A    
C2    C34   A    
C23   O6    A    
O3    Zn1   S    
C21   C22   A    
S2    O13   D    
C32   N2    A    
C10   H13   S    
C3    S3    S    
O6    Zn2   S    
C31   H6    S    
O5    Zn1   S    
C34   H1    S    
O14   H19   S    
C21   H17   S    
S3    O15   D    
S1    O9    D    
C25   C26   A    
C30   N1    A    
C4    H12   S    
O7    Zn1   S    
C37   C38   A    
C13   H14   S    
O4    Zn2   S    
C22   H5    S    
C17   C18   A    
C27   H8    S    
C29   N2    A    
S2    O14   S    
C22   C24   A    
C3    C4    A    
C25   H7    S    
C25   C30   A    
C28   C29   A    
C1    C20   S    
C14   C19   A    
C4    C5    A    
C8    H15   S    
C11   C12   S    
C6    C7    A    
N1    Zn2   S    
C19   C20   A    
C1    O2    A    
C5    C10   A    
C1    O1    A    
C12   O4    A    
C11   C13   A    
S3    O17   S    
S1    O11   S    
C15   S1    S    
C33   C35   S    
C36   H10   S    
C32   H11   S    
C10   C11   A    
C14   H2    S    
C12   O3    A    
C7    C13   A    
O11   H18   S    
C20   C21   A    
C3    C37   A    
S1    O10   D    
C27   C28   A    
C14   C15   A    
C9    H16   S    
C2    C9    A    
C16   H3    S    
