data_str_m9_o10_o29_f0_sra.sym.81
_audit_creation_date              2012-12-11T14:08:45-0500
_audit_creation_method            fapswitch 2.2
_symmetry_space_group_name_H-M    P1
_symmetry_Int_Tables_number       1
_space_group_crystal_system       triclinic
_cell_length_a                    28.215359
_cell_length_b                    7.193662
_cell_length_c                    17.198528
_cell_angle_alpha                 89.920671
_cell_angle_beta                  101.911935
_cell_angle_gamma                 90.012268
_cell_volume                      3415.64096051

loop_
_atom_site_label
_atom_site_type_symbol
_atom_type_description
_atom_site_fract_x
_atom_site_fract_y
_atom_site_fract_z
_atom_type_partial_charge
O1    O     O_R   0.000700 0.436510 0.857920 -0.533025
O2    O     O_R   0.999300 0.563490 0.142080 -0.533033
O3    O     O_R   0.999300 0.936510 0.642080 -0.533020
O4    O     O_R   0.000700 0.063490 0.357920 -0.533028
O5    O     O_R   0.930080 0.766380 0.721890 -0.542493
O6    O     O_R   0.069920 0.233620 0.278110 -0.542498
O7    O     O_R   0.069920 0.266380 0.778110 -0.542412
O8    O     O_R   0.930080 0.733620 0.221890 -0.542390
C1    C     C_R   0.910567 0.597628 0.708991 0.696260
C2    C     C_R   0.089434 0.402373 0.291000 0.696260
C3    C     C_R   0.089431 0.097592 0.791022 0.696321
C4    C     C_R   0.910569 0.902409 0.208994 0.696327
O9    O     O_R   0.996180 0.766230 0.862310 -0.543043
O10   O     O_R   0.003820 0.233770 0.137690 -0.543034
O11   O     O_R   0.003820 0.266230 0.637690 -0.543331
O12   O     O_R   0.996180 0.733770 0.362310 -0.543335
O13   O     O_R   0.065870 0.936460 0.783500 -0.539556
O14   O     O_R   0.934130 0.063540 0.216500 -0.539554
O15   O     O_R   0.934130 0.436460 0.716500 -0.539417
O16   O     O_R   0.065870 0.563540 0.283500 -0.539407
C5    C     C_R   0.998484 0.596389 0.894470 0.761716
C6    C     C_R   0.001516 0.403611 0.105529 0.761743
C7    C     C_R   0.001514 0.096502 0.605498 0.760361
C8    C     C_R   0.998486 0.903498 0.394502 0.760324
O17   O     O_3   0.022790 0.603020 0.723980 -0.378384
O18   O     O_3   0.977210 0.396980 0.276020 -0.378397
O19   O     O_3   0.977210 0.103020 0.776020 -0.377872
O20   O     O_3   0.022790 0.896980 0.223980 -0.377859
V1    V     V_3+5 0.995770 0.877900 0.754830 1.411600
V2    V     V_3+5 0.004230 0.122100 0.245170 1.411641
V3    V     V_3+5 0.004230 0.377900 0.745170 1.411217
V4    V     V_3+5 0.995770 0.622100 0.254830 1.411268
C9    C     C_2   0.001699 0.082678 0.519535 -0.330459
C10   C     C_2   0.998301 0.917322 0.480465 -0.330453
C11   C     C_2   0.998291 0.582611 0.980391 -0.330116
C12   C     C_2   0.001709 0.417389 0.019609 -0.330094
H1    H     H_    0.004477 0.211537 0.487788 0.153549
H2    H     H_    0.995523 0.788463 0.512212 0.153551
H3    H     H_    0.995493 0.711457 0.011992 0.153824
H4    H     H_    0.004507 0.288543 0.988008 0.153824
C13   C     C_R   0.684190 0.024097 0.032923 0.578352
C14   C     C_R   0.315808 0.978777 0.967754 0.578377
C15   C     C_R   0.318775 0.366464 0.464388 0.580121
C16   C     C_R   0.681322 0.631680 0.534988 0.580054
O21   O     O_2   0.714273 0.087138 0.987128 -0.515447
O22   O     O_2   0.285733 0.918296 0.014054 -0.515202
O23   O     O_2   0.291359 0.281146 0.509432 -0.513640
O24   O     O_2   0.708809 0.715282 0.489595 -0.513487
N1    N     N_R   0.702958 0.944487 0.105178 -0.558577
N2    N     N_R   0.297030 0.055721 0.894956 -0.558790
N3    N     N_R   0.297219 0.442934 0.392765 -0.558354
N4    N     N_R   0.702803 0.557016 0.607016 -0.558480
C17   C     C_R   0.672978 0.877193 0.152010 0.577344
C18   C     C_R   0.326995 0.120400 0.847575 0.577343
C19   C     C_R   0.324418 0.531816 0.346566 0.576457
C20   C     C_R   0.675539 0.469891 0.653592 0.576433
C21   C     C_R   0.782751 0.095877 0.146840 -0.084564
C22   C     C_R   0.217201 0.904207 0.854157 -0.084759
C23   C     C_R   0.222073 0.259590 0.350571 -0.079795
C24   C     C_R   0.777964 0.740480 0.648717 -0.079950
C25   C     C_R   0.833101 0.085824 0.172001 -0.193232
C26   C     C_R   0.166854 0.914208 0.828943 -0.193139
C27   C     C_R   0.171626 0.249489 0.325873 -0.193323
C28   C     C_R   0.828407 0.750592 0.673491 -0.193281
C29   C     C_R   0.828590 0.749552 0.169552 -0.193697
C30   C     C_R   0.171451 0.250474 0.829688 -0.193684
C31   C     C_R   0.166754 0.585166 0.331908 -0.193458
C32   C     C_R   0.833223 0.414757 0.668577 -0.193394
C33   C     C_R   0.778180 0.760037 0.144251 -0.079520
C34   C     C_R   0.221860 0.240039 0.855009 -0.079646
C35   C     C_R   0.217142 0.594831 0.356633 -0.084467
C36   C     C_R   0.782838 0.405080 0.643800 -0.084521
C37   C     C_R   0.754888 0.933263 0.132466 0.375196
C38   C     C_R   0.245104 0.066852 0.867672 0.375522
C39   C     C_R   0.245219 0.432291 0.366289 0.374148
C40   C     C_R   0.754795 0.567692 0.633541 0.374451
C41   C     C_R   0.602228 0.971329 0.052887 -0.043620
C42   C     C_R   0.397757 0.028957 0.947246 -0.043692
C43   C     C_R   0.397903 0.470117 0.445652 -0.044124
C44   C     C_R   0.602128 0.529750 0.554083 -0.044059
C45   C     C_R   0.633683 0.039363 0.005688 -0.033134
C46   C     C_R   0.366316 0.963562 0.994998 -0.033258
C47   C     C_R   0.369334 0.378267 0.491925 -0.032266
C48   C     C_R   0.630766 0.619820 0.507419 -0.032419
C49   C     C_R   0.614194 0.121188 0.932376 -0.126054
C50   C     C_R   0.385820 0.884738 0.068932 -0.125815
C51   C     C_R   0.391674 0.301022 0.564835 -0.125436
C52   C     C_R   0.608506 0.695009 0.434049 -0.125380
C53   C     C_R   0.622242 0.889009 0.126708 -0.029883
C54   C     C_R   0.377731 0.108614 0.872871 -0.030102
C55   C     C_R   0.375052 0.547349 0.372181 -0.030166
C56   C     C_R   0.624908 0.454329 0.627960 -0.030301
C57   C     C_R   0.856820 0.912461 0.183527 -0.052173
C58   C     C_R   0.143179 0.087550 0.816538 -0.052156
C59   C     C_R   0.143199 0.412265 0.316310 -0.052658
C60   C     C_R   0.856803 0.587740 0.683644 -0.052613
H5    H     H_    0.845381 0.613623 0.177559 0.133291
H6    H     H_    0.154698 0.386391 0.820978 0.133316
H7    H     H_    0.146324 0.713652 0.325419 0.135482
H8    H     H_    0.853628 0.286209 0.675541 0.135463
H9    H     H_    0.757230 0.633149 0.133122 0.127057
H10   H     H_    0.242850 0.366947 0.865460 0.126495
H11   H     H_    0.234386 0.729167 0.368875 0.126343
H12   H     H_    0.765569 0.270674 0.631991 0.125855
H13   H     H_    0.637523 0.175047 0.894858 0.175965
H14   H     H_    0.362505 0.833794 0.107057 0.175872
H15   H     H_    0.370623 0.229222 0.601634 0.177177
H16   H     H_    0.629633 0.764828 0.396815 0.177503
C61   C     C_R   0.480199 0.082216 0.924736 0.038919
C62   C     C_R   0.519780 0.916928 0.075156 0.038989
C63   C     C_R   0.522644 0.422593 0.574829 0.038509
C64   C     C_R   0.477358 0.578026 0.425063 0.038563
C65   C     C_R   0.468527 0.932696 0.048943 0.037119
C66   C     C_R   0.531465 0.068780 0.951435 0.037140
C67   C     C_R   0.528581 0.592397 0.452120 0.037790
C68   C     C_R   0.471483 0.406638 0.547421 0.037833
C69   C     C_R   0.449055 0.014588 0.973763 0.062437
C70   C     C_R   0.550931 0.985714 0.026371 0.062467
C71   C     C_R   0.550889 0.514901 0.526902 0.062140
C72   C     C_R   0.449144 0.484939 0.472820 0.062130
C73   C     C_R   0.458658 0.161115 0.850228 -0.173083
C74   C     C_R   0.541300 0.834109 0.148845 -0.173617
C75   C     C_R   0.546881 0.349459 0.649002 -0.173321
C76   C     C_R   0.453019 0.653825 0.351481 -0.173709
C77   C     C_R   0.408639 0.173773 0.825080 -0.133429
C78   C     C_R   0.591318 0.820894 0.173881 -0.133840
C79   C     C_R   0.596795 0.365143 0.674760 -0.132950
C80   C     C_R   0.403089 0.638531 0.325817 -0.133024
O25   O     O_2   0.307830 0.194085 0.775771 -0.515561
O26   O     O_2   0.692124 0.800906 0.223298 -0.515855
O27   O     O_2   0.697256 0.399481 0.724819 -0.518036
O28   O     O_2   0.302636 0.603981 0.275718 -0.518174
C81   C     C_R   0.564329 0.135875 0.905756 -0.174667
C82   C     C_R   0.435683 0.869532 0.095441 -0.174489
C83   C     C_R   0.441517 0.314484 0.592051 -0.177163
C84   C     C_R   0.558650 0.681881 0.406900 -0.177072
H17   H     H_    0.146559 0.785585 0.819392 0.135331
H18   H     H_    0.853364 0.214430 0.182232 0.135457
H19   H     H_    0.845065 0.886245 0.684448 0.134433
H20   H     H_    0.154990 0.113900 0.314483 0.134636
H21   H     H_    0.394271 0.235323 0.767498 0.160928
H22   H     H_    0.605672 0.756426 0.230856 0.160875
H23   H     H_    0.613305 0.306276 0.731979 0.160338
H24   H     H_    0.386502 0.699383 0.269039 0.160262
H25   H     H_    0.479279 0.214606 0.809087 0.109633
H26   H     H_    0.520658 0.776771 0.189178 0.110253
H27   H     H_    0.528505 0.278848 0.689370 0.109399
H28   H     H_    0.471294 0.727044 0.311684 0.109704
H29   H     H_    0.552977 0.201728 0.848775 0.113674
H30   H     H_    0.447059 0.807558 0.153224 0.113328
H31   H     H_    0.455208 0.250026 0.648685 0.114135
H32   H     H_    0.545062 0.743696 0.349676 0.114030
H33   H     H_    0.234588 0.769451 0.863272 0.123954
H34   H     H_    0.765334 0.230659 0.138427 0.124440
H35   H     H_    0.756837 0.867332 0.641352 0.128551
H36   H     H_    0.243221 0.132791 0.357456 0.129114

loop_
_geom_bond_atom_site_label_1
_geom_bond_atom_site_label_2
_ccdc_geom_bond_type
O17   V3    S    
C47   C51   A    
N1    C17   A    
C22   C26   A    
O1    C5    A    
O19   V1    S    
O13   V1    S    
C27   H20   S    
O3    C7    A    
C11   C12   D    
C14   C46   A    
C44   C48   A    
O4    V2    S    
O15   V3    S    
C62   C70   A    
C61   C69   A    
C68   C83   A    
C42   C54   A    
O7    C3    A    
C76   H28   S    
C41   C53   A    
C32   C60   A    
C63   C71   A    
N3    C39   S    
C18   C54   A    
N2    C38   S    
C52   H16   S    
C25   C57   A    
C25   H18   S    
C31   C35   A    
C67   C84   A    
C82   H30   S    
C27   C59   A    
O1    V3    S    
C15   C47   A    
O2    V4    S    
C14   O22   S    
C21   C37   A    
O3    V1    S    
C34   C38   A    
C19   C55   A    
C73   C77   A    
C1    O15   A    
C77   H21   S    
C7    C9    S    
O2    C6    A    
C33   C37   A    
C63   C68   A    
O14   V2    S    
C43   C55   A    
C31   H7    S    
C76   C80   A    
C16   N4    A    
O11   C7    A    
C44   C71   A    
O12   C8    A    
C31   C59   A    
C50   H14   S    
O10   V2    S    
C49   H13   S    
C13   N1    A    
C84   H32   S    
C50   C82   A    
O5    V1    S    
C53   C78   A    
O7    V3    S    
C55   C80   A    
C63   C75   A    
O8    V4    S    
C51   C83   A    
C12   H4    S    
C42   C69   A    
C81   H29   S    
C28   C60   A    
C41   C70   A    
C2    O16   A    
C64   C72   A    
O18   V4    S    
C36   H12   S    
N4    C40   S    
C46   C50   A    
O11   V3    S    
C24   C40   A    
C8    C10   S    
C68   C72   A    
C32   C36   A    
C74   C78   A    
C11   H3    S    
C32   H8    S    
O5    C1    A    
C22   H33   S    
C54   C77   A    
C42   C46   A    
C75   C79   A    
C1    C60   S    
C41   C45   A    
O8    C4    A    
C13   C45   A    
C43   C72   A    
C9    C10   D    
O9    C5    A    
C36   C40   A    
C79   H23   S    
C21   C25   A    
C44   C56   A    
C80   H24   S    
C62   C65   A    
C52   C84   A    
C66   C70   A    
C61   C66   A    
C14   N2    A    
C65   C69   A    
C3    C58   S    
O6    V2    S    
C75   H27   S    
C67   C71   A    
C65   C82   A    
C26   C58   A    
C17   C53   A    
O10   C6    A    
C73   H25   S    
N1    C37   S    
C4    C57   S    
C56   C79   A    
C23   C39   A    
C22   C38   A    
O16   V4    S    
O9    V1    S    
C83   H31   S    
C18   O25   S    
C35   H11   S    
C3    O13   A    
C10   H2    S    
C48   C52   A    
C17   O26   S    
C16   C48   A    
O6    C2    A    
C23   H36   S    
C34   H10   S    
C64   C76   A    
C5    C11   S    
C33   H9    S    
O12   V4    S    
C6    C12   S    
C21   H34   S    
C23   C27   A    
C30   C58   A    
C24   C28   A    
C30   H6    S    
O20   V2    S    
C24   H35   S    
C29   H5    S    
N2    C18   A    
C62   C74   A    
C35   C39   A    
C15   N3    A    
C30   C34   A    
C2    C59   S    
O4    C8    A    
C29   C33   A    
C29   C57   A    
C66   C81   A    
C78   H22   S    
N3    C19   A    
C74   H26   S    
C26   H17   S    
C9    H1    S    
C20   O27   S    
C43   C47   A    
N4    C20   A    
C20   C56   A    
C51   H15   S    
C19   O28   S    
C4    O14   A    
C13   O21   S    
C61   C73   A    
C15   O23   S    
C64   C67   A    
C45   C49   A    
C16   O24   S    
C49   C81   A    
C28   H19   S    
