data_str_m9_o10_o29_f0_sra.sym.33
_audit_creation_date              2013-03-05T15:41:01-0500
_audit_creation_method            fapswitch 2.2
_symmetry_space_group_name_H-M    P1
_symmetry_Int_Tables_number       1
_space_group_crystal_system       triclinic
_cell_length_a                    28.196251
_cell_length_b                    7.19433
_cell_length_c                    17.355575
_cell_angle_alpha                 89.924037
_cell_angle_beta                  101.86901
_cell_angle_gamma                 90.00998
_cell_volume                      3445.35992833

loop_
_atom_site_label
_atom_site_type_symbol
_atom_site_description
_atom_site_fract_x
_atom_site_fract_y
_atom_site_fract_z
_atom_type_partial_charge
O1    O     O_R   0.000700 0.436510 0.857920 -0.534485
O2    O     O_R   0.999300 0.563490 0.142080 -0.534479
O3    O     O_R   0.999300 0.936510 0.642080 -0.534747
O4    O     O_R   0.000700 0.063490 0.357920 -0.534738
O5    O     O_R   0.930080 0.766380 0.721890 -0.562873
O6    O     O_R   0.069920 0.233620 0.278110 -0.562886
O7    O     O_R   0.069920 0.266380 0.778110 -0.562746
O8    O     O_R   0.930080 0.733620 0.221890 -0.562749
C1    C     C_R   0.910574 0.597654 0.708964 0.854509
C2    C     C_R   0.089425 0.402344 0.291043 0.854510
C3    C     C_R   0.089424 0.097616 0.791066 0.854309
C4    C     C_R   0.910577 0.902382 0.208920 0.854297
O9    O     O_R   0.996180 0.766230 0.862310 -0.501713
O10   O     O_R   0.003820 0.233770 0.137690 -0.501728
O11   O     O_R   0.003820 0.266230 0.637690 -0.501587
O12   O     O_R   0.996180 0.733770 0.362310 -0.501581
O13   O     O_R   0.065870 0.936460 0.783500 -0.562964
O14   O     O_R   0.934130 0.063540 0.216500 -0.563005
O15   O     O_R   0.934130 0.436460 0.716500 -0.562689
O16   O     O_R   0.065870 0.563540 0.283500 -0.562678
C5    C     C_R   0.998467 0.595999 0.894217 0.794160
C6    C     C_R   0.001533 0.404001 0.105783 0.794126
C7    C     C_R   0.001525 0.096105 0.605751 0.793516
C8    C     C_R   0.998475 0.903895 0.394249 0.793547
O17   O     O_3   0.022790 0.603020 0.723980 -0.258086
O18   O     O_3   0.977210 0.396980 0.276020 -0.258077
O19   O     O_3   0.977210 0.103020 0.776020 -0.257833
O20   O     O_3   0.022790 0.896980 0.223980 -0.257845
V1    V     V_3+5 0.995770 0.877900 0.754830 1.266226
V2    V     V_3+5 0.004230 0.122100 0.245170 1.266179
V3    V     V_3+5 0.004230 0.377900 0.745170 1.266600
V4    V     V_3+5 0.995770 0.622100 0.254830 1.266574
C9    C     C_2   0.002339 0.083015 0.520454 0.080091
C10   C     C_2   0.997663 0.916985 0.479546 0.080089
C11   C     C_2   0.997619 0.582935 0.979466 0.080220
C12   C     C_2   0.002381 0.417064 0.020534 0.080205
C13   C     C_R   0.684311 0.014882 0.031465 0.557640
C14   C     C_R   0.315686 0.982054 0.967919 0.557739
C15   C     C_R   0.318435 0.371169 0.465309 0.558475
C16   C     C_R   0.681439 0.631260 0.535402 0.558628
O21   O     O_2   0.714490 0.069689 0.984704 -0.537180
O22   O     O_2   0.285492 0.924460 0.014183 -0.537481
O23   O     O_2   0.290727 0.290412 0.510725 -0.535854
O24   O     O_2   0.709054 0.714316 0.490426 -0.536218
N1    N     N_R   0.702992 0.943758 0.104720 -0.448734
N2    N     N_R   0.297019 0.056062 0.895192 -0.448571
N3    N     N_R   0.297173 0.442857 0.393274 -0.448301
N4    N     N_R   0.702800 0.557164 0.606926 -0.448157
C17   C     C_R   0.672939 0.884924 0.152652 0.554597
C18   C     C_R   0.327093 0.117746 0.847801 0.554729
C19   C     C_R   0.324651 0.527023 0.346631 0.555100
C20   C     C_R   0.675408 0.470624 0.653085 0.555205
C21   C     C_R   0.778060 0.759798 0.146381 -0.001266
C22   C     C_R   0.217146 0.904448 0.855350 -0.004333
C23   C     C_R   0.221971 0.259295 0.352498 -0.002491
C24   C     C_R   0.782837 0.405192 0.643882 -0.003542
C25   C     C_R   0.828475 0.749483 0.171740 -0.103860
C26   C     C_R   0.166798 0.914367 0.830066 -0.105690
C27   C     C_R   0.171527 0.249208 0.327631 -0.103426
C28   C     C_R   0.833227 0.414841 0.668672 -0.105520
C29   C     C_R   0.833255 0.085548 0.168959 -0.105230
C30   C     C_R   0.171478 0.250551 0.829081 -0.103442
C31   C     C_R   0.166805 0.585222 0.330758 -0.105693
C32   C     C_R   0.828431 0.750711 0.673066 -0.103792
C33   C     C_R   0.782908 0.095419 0.143634 -0.004515
C34   C     C_R   0.221892 0.240194 0.854433 -0.001215
C35   C     C_R   0.217192 0.594876 0.355590 -0.003487
C36   C     C_R   0.777983 0.740628 0.648275 -0.002407
C37   C     C_R   0.754919 0.932803 0.131921 0.275177
C38   C     C_R   0.245089 0.067096 0.867975 0.274914
C39   C     C_R   0.245182 0.432167 0.366775 0.274076
C40   C     C_R   0.754802 0.567832 0.633376 0.273687
C41   C     C_R   0.602256 0.970704 0.052605 -0.069914
C42   C     C_R   0.397757 0.029069 0.947319 -0.069841
C43   C     C_R   0.397856 0.470161 0.446069 -0.069912
C44   C     C_R   0.602107 0.529909 0.554173 -0.069949
C45   C     C_R   0.633796 0.030029 0.004271 -0.038274
C46   C     C_R   0.366200 0.966874 0.995110 -0.038167
C47   C     C_R   0.368993 0.383136 0.492826 -0.037323
C48   C     C_R   0.630877 0.619355 0.507919 -0.037146
C49   C     C_R   0.614379 0.102866 0.929840 -0.056002
C50   C     C_R   0.385595 0.890799 0.068938 -0.056196
C51   C     C_R   0.391034 0.311088 0.566224 -0.056160
C52   C     C_R   0.608731 0.694180 0.435107 -0.056136
C53   C     C_R   0.622193 0.896961 0.127474 -0.034958
C54   C     C_R   0.377839 0.105694 0.872990 -0.034799
C55   C     C_R   0.375293 0.542516 0.372178 -0.035165
C56   C     C_R   0.624764 0.455119 0.627547 -0.035030
C57   C     C_R   0.856836 0.912359 0.183214 -0.090182
C58   C     C_R   0.143166 0.087632 0.816730 -0.090201
C59   C     C_R   0.143181 0.412170 0.316519 -0.090662
C60   C     C_R   0.856816 0.587822 0.683519 -0.090711
H1    H     H_    0.853625 0.214136 0.177101 0.100319
H2    H     H_    0.154756 0.386413 0.819651 0.097517
H3    H     H_    0.146434 0.713851 0.323045 0.100704
H4    H     H_    0.845103 0.886363 0.683817 0.098718
H5    H     H_    0.765587 0.230038 0.133064 0.079206
H6    H     H_    0.242922 0.367101 0.864188 0.082470
H7    H     H_    0.234506 0.729345 0.366695 0.082111
H8    H     H_    0.756860 0.867504 0.640699 0.085430
H9    H     H_    0.637769 0.148987 0.891261 0.138076
H10   H     H_    0.362185 0.841515 0.106925 0.138209
H11   H     H_    0.369725 0.243780 0.603549 0.139749
H12   H     H_    0.629937 0.764186 0.398343 0.139304
C61   C     C_R   0.480314 0.077193 0.924351 0.021780
C62   C     C_R   0.519708 0.923838 0.075815 0.021745
C63   C     C_R   0.522432 0.424644 0.574862 0.021507
C64   C     C_R   0.477570 0.574367 0.425168 0.021489
C65   C     C_R   0.468433 0.937379 0.049211 0.020947
C66   C     C_R   0.531572 0.061124 0.950479 0.020928
C67   C     C_R   0.528727 0.590640 0.452542 0.021505
C68   C     C_R   0.471194 0.410528 0.547939 0.021465
C69   C     C_R   0.449062 0.014518 0.973749 0.047114
C70   C     C_R   0.550951 0.985251 0.026178 0.047106
C71   C     C_R   0.550860 0.515051 0.527084 0.046848
C72   C     C_R   0.449102 0.485033 0.473168 0.046859
C73   C     C_R   0.458888 0.154420 0.850151 -0.097604
C74   C     C_R   0.541162 0.850867 0.150814 -0.097331
C75   C     C_R   0.546584 0.351134 0.648319 -0.098078
C76   C     C_R   0.453557 0.644246 0.350952 -0.097813
C77   C     C_R   0.408862 0.167959 0.825220 -0.060597
C78   C     C_R   0.591191 0.837918 0.175852 -0.060339
C79   C     C_R   0.596527 0.366323 0.673886 -0.061152
C80   C     C_R   0.403634 0.628568 0.325273 -0.061036
O25   O     O_2   0.308024 0.188657 0.776100 -0.542628
O26   O     O_2   0.692032 0.816829 0.224855 -0.542235
O27   O     O_2   0.697010 0.400763 0.723810 -0.545814
O28   O     O_2   0.303130 0.594566 0.275435 -0.545542
C81   C     C_R   0.564509 0.118138 0.903398 -0.098227
C82   C     C_R   0.435468 0.876105 0.095493 -0.098309
C83   C     C_R   0.440896 0.324250 0.593293 -0.099617
C84   C     C_R   0.558886 0.680554 0.407948 -0.099757
H13   H     H_    0.146468 0.785745 0.821201 0.100434
H14   H     H_    0.845154 0.613677 0.181907 0.097587
H15   H     H_    0.853629 0.286268 0.675856 0.100733
H16   H     H_    0.154827 0.113501 0.317372 0.098462
H17   H     H_    0.234505 0.769759 0.865187 0.079743
H18   H     H_    0.756985 0.632919 0.137346 0.081814
H19   H     H_    0.765558 0.270780 0.632283 0.082904
H20   H     H_    0.243067 0.132376 0.360616 0.084517
H21   H     H_    0.394582 0.227978 0.767840 0.118086
H22   H     H_    0.605491 0.781069 0.233825 0.118298
H23   H     H_    0.612966 0.307290 0.730572 0.119451
H24   H     H_    0.387297 0.684902 0.268020 0.119447
H25   H     H_    0.479615 0.207026 0.809319 0.059832
H26   H     H_    0.520466 0.802450 0.192440 0.059504
H27   H     H_    0.528150 0.279721 0.688070 0.059898
H28   H     H_    0.472129 0.712071 0.310462 0.059688
H29   H     H_    0.553201 0.175154 0.845197 0.062082
H30   H     H_    0.446744 0.814894 0.152913 0.062242
H31   H     H_    0.454302 0.265196 0.650587 0.061695
H32   H     H_    0.545341 0.743204 0.351411 0.061850
N5    N     N_R   0.008343 0.254861 0.481866 0.111644
O29   O     O_R   0.051468 0.311025 0.476872 -0.334053
O30   O     O_R   0.970475 0.350464 0.448701 -0.282395
N6    N     N_R   0.991660 0.745137 0.518135 0.111644
O31   O     O_R   0.948536 0.688965 0.523129 -0.334065
O32   O     O_R   0.029530 0.649540 0.551300 -0.282384
N7    N     N_R   0.991491 0.754703 0.017841 0.111606
O33   O     O_R   0.948319 0.810537 0.022675 -0.334055
O34   O     O_R   0.029298 0.850314 0.051138 -0.280637
N8    N     N_R   0.008509 0.245297 0.982158 0.111606
O35   O     O_R   0.051681 0.189465 0.977323 -0.334054
O36   O     O_R   0.970702 0.149685 0.948862 -0.280650

loop_
_geom_bond_atom_site_label_1
_geom_bond_atom_site_label_2
_geom_bond_distance
_ccdc_geom_bond_type
O17   V3    1.763370 S    
C61   C66   1.427653 A    
O1    C5    1.317432 A    
C34   H6    1.082956 S    
C23   C27   1.400730 A    
O19   V1    1.764433 S    
O13   V1    1.981811 S    
C63   C68   1.427694 A    
C64   C76   1.417725 A    
O3    C7    1.316856 A    
C11   C12   1.381494 D    
C48   C52   1.396551 A    
C21   C37   1.403565 A    
C75   C79   1.390999 A    
O4    V2    2.023573 S    
C49   H9    1.083677 S    
C33   C37   1.402564 A    
O7    C3    1.332577 A    
C17   O26   1.349485 S    
C79   H23   1.083751 S    
O5    C1    1.332675 A    
C25   C57   1.409617 A    
C62   C70   1.422827 A    
C19   O28   1.349519 S    
C32   C36   1.400727 A    
C73   H25   1.075431 S    
N6    O31   1.300947 A    
O10   V2    2.027896 S    
C14   O22   1.349579 S    
N4    C20   1.370769 A    
O16   V4    1.981677 S    
C55   C80   1.396639 A    
O4    C8    1.316857 A    
C29   H1    1.082801 S    
C22   H17   1.083056 S    
C75   H27   1.075443 S    
C31   H3    1.082790 S    
C27   H16   1.082796 S    
O1    V3    2.024662 S    
C44   C71   1.428652 A    
C66   C81   1.417578 A    
O2    V4    2.024661 S    
C74   C78   1.391100 A    
O3    V1    2.023573 S    
C73   C77   1.391116 A    
C83   H31   1.075403 S    
C1    O15   1.329374 A    
C82   H30   1.075496 S    
C2    O16   1.329374 A    
C24   C40   1.402751 A    
O2    C6    1.317432 A    
C16   C48   1.409849 A    
O14   V2    1.981811 S    
N1    C17   1.370444 A    
C50   C82   1.390815 A    
C66   C70   1.423199 A    
O5    V1    1.991567 S    
C65   C69   1.423213 A    
O11   C7    1.340330 A    
O15   V3    1.981677 S    
O12   C8    1.340329 A    
C62   C74   1.417832 A    
C12   N8    1.431825 S    
C61   C73   1.417826 A    
N4    C40   1.445571 S    
C56   C79   1.396659 A    
C1    C60   1.490759 S    
C63   C75   1.417735 A    
C20   O27   1.349527 S    
C29   C57   1.409809 A    
N8    O36   1.300339 A    
C28   C60   1.409807 A    
C26   H13   1.082798 S    
C31   C35   1.399006 A    
O7    V3    1.991219 S    
C30   C34   1.400874 A    
N1    C37   1.445141 S    
C21   H18   1.082957 S    
O8    V4    1.991216 S    
C17   C53   1.410140 A    
C4    C57   1.490685 S    
C20   C56   1.409862 A    
C32   H4    1.082801 S    
C19   C55   1.409847 A    
C24   H19   1.083052 S    
C21   C25   1.400871 A    
O18   V4    1.763371 S    
C74   H26   1.075391 S    
N3    C19   1.370690 A    
C14   C46   1.409503 A    
C7    C9    1.488377 S    
C42   C69   1.428630 A    
C13   C45   1.409511 A    
C52   C84   1.390919 A    
C8    C10   1.488375 S    
C23   H20   1.082965 S    
C24   C28   1.398992 A    
O9    V1    2.027896 S    
C36   C40   1.403772 A    
C15   C47   1.409852 A    
C18   C54   1.410159 A    
C36   H8    1.082980 S    
C51   C83   1.390936 A    
C77   H21   1.083645 S    
C46   C50   1.396588 A    
C49   C81   1.390828 A    
N7    O33   1.300937 A    
C22   C38   1.402632 A    
C45   C49   1.396593 A    
O8    C4    1.332585 A    
N3    C39   1.445401 S    
C54   C77   1.396579 A    
N7    O34   1.300339 A    
C9    C10   1.382723 D    
C50   H10   1.083677 S    
O9    C5    1.339496 A    
C53   C78   1.396561 A    
C18   O25   1.349485 S    
C27   C59   1.409551 A    
C42   C54   1.408426 A    
C26   C58   1.409779 A    
C28   H15   1.082805 S    
C41   C53   1.408442 A    
C51   H11   1.083635 S    
C43   C55   1.408201 A    
O6    V2    1.991566 S    
C2    C59   1.490744 S    
C76   H28   1.075420 S    
C10   N6    1.431793 S    
C30   H2    1.082808 S    
C52   H12   1.083647 S    
C25   H14   1.082810 S    
N5    O30   1.300333 A    
C78   H22   1.083651 S    
C13   N1    1.370620 A    
C68   C72   1.423057 A    
N2    C38   1.445277 S    
C15   N3    1.370579 A    
N8    O35   1.300940 A    
C22   C26   1.398825 A    
C61   C69   1.422820 A    
C16   N4    1.370643 A    
C44   C56   1.408166 A    
C3    O13   1.329211 A    
C44   C48   1.408157 A    
O6    C2    1.332669 A    
C15   O23   1.349512 S    
O11   V3    2.029852 S    
C5    C11   1.487491 S    
C35   H7    1.083041 S    
O12   V4    2.029852 S    
C6    C12   1.487491 S    
N2    C18   1.370506 A    
C64   C67   1.427656 A    
C64   C72   1.422975 A    
O20   V2    1.764434 S    
N5    O29   1.300944 A    
C9    N5    1.431793 S    
C33   H5    1.083060 S    
C47   C51   1.396545 A    
C3    C58   1.490673 S    
O10   C6    1.339496 A    
C34   C38   1.403625 A    
C84   H32   1.075434 S    
C30   C58   1.409597 A    
N6    O32   1.300332 A    
C63   C71   1.422995 A    
C35   C39   1.402669 A    
C68   C83   1.417672 A    
C13   O21   1.349569 S    
C11   N7    1.431826 S    
C14   N2    1.370674 A    
C41   C70   1.428626 A    
C29   C33   1.398833 A    
C67   C84   1.417665 A    
C16   O24   1.349524 S    
C31   C59   1.409819 A    
C42   C46   1.407984 A    
C4    O14   1.329216 A    
C65   C82   1.417582 A    
C41   C45   1.408013 A    
C80   H24   1.083747 S    
C67   C71   1.423044 A    
C43   C72   1.428652 A    
C32   C60   1.409537 A    
C81   H29   1.075509 S    
C43   C47   1.408169 A    
C23   C39   1.403685 A    
C76   C80   1.390991 A    
C62   C65   1.427668 A    
