data_str_m4_o4_o22_f0_acs.sym.1
_audit_creation_date              2012-12-11T15:48:46-0500
_audit_creation_method            fapswitch 2.2
_symmetry_space_group_name_H-M    P1
_symmetry_Int_Tables_number       1
_space_group_crystal_system       triclinic
_cell_length_a                    10.949482
_cell_length_b                    10.971568
_cell_length_c                    18.794407
_cell_angle_alpha                 90.546079
_cell_angle_beta                  90.10876
_cell_angle_gamma                 60.164469
_cell_volume                      1958.46965127

loop_
_atom_site_label
_atom_site_type_symbol
_atom_type_description
_atom_site_fract_x
_atom_site_fract_y
_atom_site_fract_z
_atom_type_partial_charge
C1    C     C_R   0.239921 0.645525 0.610479 0.540792
C2    C     C_R   0.578899 0.140313 0.709595 -0.181195
C3    C     C_R   0.575446 0.146447 0.782767 -0.170890
C4    C     C_R   0.653790 0.622376 0.600880 0.540320
C5    C     C_3   0.935498 0.092486 0.785716 -0.271691
C6    C     C_3   0.930473 0.100345 0.705164 -0.280804
C7    C     C_R   0.674682 0.163853 0.671984 0.015250
C8    C     C_R   0.181665 0.666739 0.835237 0.013399
C9    C     C_R   0.154485 0.576043 0.794125 0.019570
C10   C     C_R   0.162987 0.573982 0.720328 -0.004867
C11   C     C_R   0.215753 0.761985 0.726275 -0.171774
C12   C     C_3   0.669945 0.551607 0.799849 -0.253354
C13   C     C_R   0.215257 0.758357 0.800165 -0.179342
C14   C     C_3   0.228228 0.419760 0.797264 -0.283464
C15   C     C_3   0.235156 0.418064 0.716769 -0.270865
C16   C     C_R   0.630281 0.225642 0.601824 0.538216
C17   C     C_R   0.195881 0.665309 0.684999 0.012037
C18   C     C_R   0.651716 0.658512 0.165153 0.016804
C19   C     C_R   0.747722 0.536580 0.201632 0.030449
C20   C     C_R   0.743627 0.530434 0.274301 0.037787
C21   C     C_R   0.531015 0.753684 0.278011 -0.162310
C22   C     C_R   0.534290 0.760789 0.203216 -0.171931
C23   C     C_3   0.698404 0.673688 0.812282 0.051580
C24   C     C_3   0.906121 0.455193 0.202230 -0.266189
C25   C     C_3   0.899504 0.451416 0.282294 -0.280513
C26   C     C_R   0.643435 0.642371 0.314494 0.019136
C27   C     C_R   0.633914 0.190824 0.168427 0.019251
C28   C     C_R   0.220524 0.649097 0.402073 0.555152
C29   C     C_R   0.516416 0.208243 0.206500 0.019446
C30   C     C_R   0.513468 0.219569 0.279289 0.033309
C31   C     C_R   0.729572 0.225955 0.277536 -0.153949
C32   C     C_R   0.731174 0.218022 0.203323 -0.155495
C33   C     C_3   0.448039 0.119284 0.208787 -0.270467
C34   C     C_3   0.669724 0.648139 0.676285 0.057866
C35   C     C_3   0.444361 0.133266 0.288896 -0.279975
C36   C     C_R   0.626512 0.213822 0.316305 0.021708
C37   C     C_R   0.117808 0.690665 0.188641 0.024952
C38   C     C_R   0.069816 0.810713 0.231582 0.047201
C39   C     C_R   0.082519 0.802162 0.303964 0.014594
C40   C     C_R   0.639340 0.619803 0.390542 0.546489
C41   C     C_R   0.173623 0.551551 0.294471 -0.164738
C42   C     C_R   0.160875 0.561277 0.220688 -0.179839
C43   C     C_3   0.102010 0.927679 0.227672 -0.264215
C44   C     C_3   0.111787 0.922006 0.307794 -0.274063
C45   C     C_3   0.815724 0.631880 0.690298 -0.247808
C46   C     C_R   0.147439 0.670583 0.335736 0.017419
C47   C     C_R   0.702193 0.099754 0.895247 0.540775
C48   C     C_R   0.723044 0.687820 0.888317 0.542745
C49   C     C_R   0.119339 0.705368 0.906100 0.538305
C50   C     C_R   0.672465 0.111849 0.102311 0.548401
C51   C     C_R   0.694928 0.688523 0.096872 0.544720
C52   C     C_R   0.612101 0.238078 0.392250 0.547490
C53   C     C_R   0.089168 0.712118 0.113859 0.546366
C54   C     C_3   0.571892 0.810214 0.782625 -0.232572
C55   C     C_3   0.556343 0.796085 0.702207 -0.239578
C56   C     C_3   0.654581 0.535725 0.719629 -0.212868
C57   C     C_3   0.832950 0.644994 0.770520 -0.216676
C58   C     C_R   0.682724 0.151569 0.822210 0.016935
C59   C     C_R   0.779610 0.174028 0.784743 -0.007079
C60   C     C_R   0.773670 0.183225 0.710647 0.012225
Cr1   Cr    Cr6+3 0.392960 0.397920 0.502240 1.003723
Cr2   Cr    Cr6+3 0.398340 0.708480 0.501250 1.000204
Cr3   Cr    Cr6+3 0.708670 0.393570 0.496460 1.005443
Cr4   Cr    Cr6+3 0.937650 0.938540 0.007610 1.005643
Cr5   Cr    Cr6+3 0.625330 0.937370 0.994520 1.000282
Cr6   Cr    Cr6+3 0.937940 0.625230 0.001190 1.003684
H1    H     H_    0.590128 0.899317 0.792234 0.144885
H2    H     H_    0.967709 0.997140 0.678226 0.146173
H3    H     H_    0.236655 0.838332 0.701720 0.133295
H4    H     H_    0.472770 0.833610 0.810419 0.115879
H5    H     H_    0.231089 0.834724 0.829626 0.129149
H6    H     H_    0.160045 0.379982 0.818381 0.131724
H7    H     H_    0.331995 0.377022 0.823742 0.143103
H8    H     H_    0.343062 0.373810 0.695526 0.179876
H9    H     H_    0.169367 0.379338 0.690915 0.123487
H10   H     H_    0.444730 0.837436 0.307153 0.120531
H11   H     H_    0.451808 0.850821 0.176214 0.115199
H12   H     H_    0.738614 0.430065 0.702706 0.148798
H13   H     H_    0.953805 0.517689 0.184051 0.178361
H14   H     H_    0.949461 0.349854 0.176715 0.122156
H15   H     H_    0.940913 0.343869 0.303294 0.130260
H16   H     H_    0.449424 0.813859 0.691304 0.136254
H17   H     H_    0.939402 0.514756 0.309734 0.145317
H18   H     H_    0.811072 0.236179 0.304477 0.129075
H19   H     H_    0.815869 0.218562 0.174118 0.118627
H20   H     H_    0.520664 0.010634 0.190374 0.169817
H21   H     H_    0.341822 0.171537 0.184103 0.127985
H22   H     H_    0.335929 0.195145 0.310756 0.132446
H23   H     H_    0.923631 0.544984 0.788884 0.142996
H24   H     H_    0.513232 0.032555 0.316377 0.139664
H25   H     H_    0.218542 0.448472 0.317862 0.142841
H26   H     H_    0.190476 0.467692 0.188934 0.122125
H27   H     H_    0.012774 0.025996 0.207742 0.142169
H28   H     H_    0.567565 0.877889 0.673233 0.113039
H29   H     H_    0.204408 0.895363 0.201055 0.137171
H30   H     H_    0.218526 0.893617 0.326328 0.162115
H31   H     H_    0.025190 0.015986 0.334527 0.128758
H32   H     H_    0.856714 0.731209 0.780753 0.126607
H33   H     H_    0.826807 0.714038 0.661462 0.115803
H34   H     H_    0.900794 0.527790 0.670962 0.132579
H35   H     H_    0.758028 0.452171 0.821077 0.130749
H36   H     H_    0.571944 0.572434 0.827997 0.119058
H37   H     H_    0.551178 0.542815 0.708788 0.128009
H38   H     H_    0.497747 0.128578 0.682607 0.128606
H39   H     H_    0.492931 0.134902 0.807851 0.137399
H40   H     H_    0.973172 0.985628 0.806365 0.174600
H41   H     H_    0.982006 0.152114 0.810857 0.127300
H42   H     H_    0.975186 0.163887 0.683594 0.132331
O1    O     O_R   0.507380 0.255700 0.581440 -0.535254
O2    O     O_R   0.837170 0.593410 0.915250 -0.527767
O3    O     O_R   0.065200 0.635530 0.931570 -0.499188
O4    O     O_R   0.280320 0.527350 0.578930 -0.503712
O5    O     O_R   0.068260 0.828890 0.091840 -0.520369
O6    O     O_R   0.798870 0.057410 0.079340 -0.506627
O7    O     O_R   0.584930 0.080350 0.076780 -0.523531
O8    O     O_R   0.626960 0.809650 0.067060 -0.506514
O9    O     O_R   0.816040 0.596610 0.076510 -0.525559
O10   O     O_R   0.045610 0.638500 0.081060 -0.513944
O11   O     O_3   0.833640 0.833710 0.001100 -0.246781
O12   O     O_R   0.524480 0.695810 0.424040 -0.508380
O13   O     O_R   0.260510 0.739590 0.584590 -0.533367
O14   O     O_R   0.532300 0.695080 0.573820 -0.509693
O15   O     O_R   0.744840 0.503500 0.576370 -0.529459
O16   O     O_R   0.699120 0.276560 0.571960 -0.500147
O17   O     O_R   0.498940 0.256500 0.419860 -0.519815
O18   O     O_R   0.272500 0.528080 0.429150 -0.510585
O19   O     O_R   0.252060 0.740380 0.423010 -0.525075
O20   O     O_R   0.736390 0.504290 0.414790 -0.520102
O21   O     O_R   0.691300 0.277290 0.422170 -0.511716
O22   O     O_3   0.499990 0.499990 0.499980 -0.249067
O23   O     O_R   0.089400 0.825690 0.930570 -0.531362
O24   O     O_R   0.818460 0.054440 0.929850 -0.501424
O25   O     O_R   0.606060 0.077150 0.915510 -0.536760
O26   O     O_R   0.646550 0.806680 0.917570 -0.511277

loop_
_geom_bond_atom_site_label_1
_geom_bond_atom_site_label_2
_ccdc_geom_bond_type
C15   H9    S    
C21   C26   A    
C34   C56   S    
C8    C13   A    
C27   C29   A    
C41   C42   A    
Cr2   O22   S    
C48   O2    A    
C2    C7    A    
C43   C44   S    
Cr1   O1    S    
Cr3   O16   S    
C3    H39   S    
C49   O23   A    
C21   H10   S    
C45   C57   S    
C29   C30   A    
Cr4   O11   S    
C57   H23   S    
C30   C35   S    
C52   O21   A    
C48   O26   A    
C18   C19   A    
C10   C15   S    
C31   C36   A    
C1    O4    A    
C5    C6    S    
C20   C25   S    
C57   H32   S    
C10   C17   A    
C40   O20   A    
C29   C33   S    
C56   H12   S    
C50   O7    A    
C35   H22   S    
Cr3   O22   S    
C37   C42   A    
C51   O9    A    
C24   H14   S    
Cr4   O24   S    
C28   O18   A    
C8    C9    A    
Cr6   O9    S    
C54   H4    S    
C18   C51   S    
C43   H29   S    
C41   C46   A    
Cr1   O18   S    
C23   C48   S    
Cr6   O3    S    
C9    C10   A    
Cr2   O12   S    
Cr5   O26   S    
C36   C52   S    
C27   C50   S    
C49   O3    A    
C37   C53   S    
C6    H2    S    
C34   C55   S    
C21   C22   A    
C47   O25   A    
C33   H20   S    
C25   H15   S    
Cr5   O7    S    
C55   H28   S    
C53   O5    A    
C16   O1    A    
C5    H40   S    
C38   C39   A    
C4    C34   S    
Cr4   O6    S    
C5    C59   S    
C14   H7    S    
C6    C60   S    
C24   C25   S    
C56   H37   S    
C45   H33   S    
C53   O10   A    
C54   H1    S    
C13   H5    S    
C58   C59   A    
C31   H18   S    
C4    O15   A    
C50   O6    A    
C9    C14   S    
C3    C58   A    
C59   C60   A    
C12   H36   S    
C37   C38   A    
C44   H30   S    
C44   H31   S    
C24   H13   S    
C31   C32   A    
C12   C23   S    
Cr4   O23   S    
C2    H38   S    
C28   C46   S    
C11   H3    S    
Cr5   O11   S    
C4    O14   A    
C34   C45   S    
Cr6   O2    S    
C55   H16   S    
C12   C56   S    
Cr1   O22   S    
C39   C46   A    
C7    C16   S    
C40   O12   A    
Cr6   O11   S    
Cr5   O8    S    
C7    C60   A    
Cr2   O14   S    
C23   C54   S    
C5    H41   S    
C23   C57   S    
C54   C55   S    
C11   C17   A    
Cr4   O5    S    
C41   H25   S    
C27   C32   A    
C18   C22   A    
C14   H6    S    
Cr3   O20   S    
C22   H11   S    
C45   H34   S    
Cr3   O15   S    
C52   O17   A    
C28   O19   A    
C39   C44   S    
C1    C17   S    
C51   O8    A    
C30   C36   A    
C47   O24   A    
C43   H27   S    
C19   C20   A    
C2    C3    A    
C16   O16   A    
C12   H35   S    
C47   C58   S    
C11   C13   A    
C26   C40   S    
Cr2   O19   S    
C20   C26   A    
C32   H19   S    
C33   C35   S    
C19   C24   S    
C42   H26   S    
Cr3   O21   S    
C33   H21   S    
C1    O13   A    
C35   H24   S    
C38   C43   S    
C15   H8    S    
Cr6   O10   S    
C25   H17   S    
C6    H42   S    
C14   C15   S    
Cr1   O17   S    
Cr1   O4    S    
C8    C49   S    
Cr2   O13   S    
Cr5   O25   S    
