data_str_m2_o10_o27_f0_pcu.sym.228
_audit_creation_date              2012-12-10T16:49:29-0500
_audit_creation_method            fapswitch 2.2
_symmetry_space_group_name_H-M    P1
_symmetry_Int_Tables_number       1
_space_group_crystal_system       triclinic
_cell_length_a                    19.250635
_cell_length_b                    8.752553
_cell_length_c                    7.464444
_cell_angle_alpha                 102.995916
_cell_angle_beta                  94.675352
_cell_angle_gamma                 93.083606
_cell_volume                      1218.03526666

loop_
_atom_site_label
_atom_site_type_symbol
_atom_type_description
_atom_site_fract_x
_atom_site_fract_y
_atom_site_fract_z
_atom_type_partial_charge
C1    C     C_R   0.496099 0.200376 0.454469 0.853101
C2    C     C_R   0.503831 0.799620 0.545614 0.853352
C3    C     C_2   0.484873 0.034039 0.434526 -0.018128
C4    C     C_2   0.514854 0.966021 0.566013 -0.019668
C5    C     C_R   0.367799 0.500076 0.501831 0.826850
C6    C     C_R   0.632220 0.500965 0.498219 0.831740
C7    C     C_R   0.262859 0.639168 0.600355 0.116129
C8    C     C_R   0.737240 0.360835 0.404325 0.122015
C9    C     C_R   0.189509 0.639532 0.605377 0.133825
C10   C     C_R   0.810445 0.360835 0.396039 0.104522
C11   C     C_R   0.146328 0.505962 0.506169 -0.116380
C12   C     C_R   0.853080 0.499726 0.479087 -0.071275
C13   C     C_R   0.175966 0.370109 0.409981 0.400752
C14   C     C_R   0.823459 0.639541 0.557980 0.391068
C15   C     C_R   0.248853 0.366673 0.415662 0.101633
C16   C     C_R   0.750780 0.639496 0.570617 0.042871
C17   C     C_R   0.291874 0.502017 0.506388 -0.143058
C18   C     C_R   0.708121 0.500153 0.492353 -0.111188
C19   C     C_R   0.929488 0.501784 0.486474 0.482892
C20   C     C_R   0.070173 0.506837 0.502892 0.385772
Cu1   Cu    Cu3+1 0.507710 0.517380 0.684380 1.016078
Cu2   Cu    Cu3+1 0.492290 0.482620 0.315620 1.016229
N1    N     N_R   0.033599 0.405122 0.579152 -0.203038
N2    N     N_R   0.966151 0.604013 0.411024 -0.177567
N3    N     N_R   0.964297 0.402987 0.571560 -0.222419
N4    N     N_R   0.035455 0.606199 0.418640 -0.208244
N5    N     N_2   0.480680 0.456420 0.038530 0.138030
N6    N     N_2   0.519320 0.543580 0.961470 0.138146
O1    O     O_R   0.505010 0.286130 0.619770 -0.548295
O2    O     O_R   0.494990 0.713870 0.380230 -0.548172
O3    O     O_R   0.491990 0.256780 0.308370 -0.608359
O4    O     O_R   0.508010 0.743220 0.691630 -0.608493
O5    O     O_R   0.406650 0.514660 0.655750 -0.534275
O6    O     O_R   0.593350 0.485340 0.344250 -0.535861
O7    O     O_R   0.393640 0.485310 0.344340 -0.601928
O8    O     O_R   0.606360 0.514690 0.655660 -0.602802
C21   C     C_3   0.311299 0.783157 0.693520 -0.806779
H1    H     H_    0.347042 0.811906 0.594522 0.203586
H2    H     H_    0.284139 0.890731 0.742527 0.233854
H3    H     H_    0.342740 0.759175 0.814239 0.248142
C22   C     C_3   0.689064 0.213921 0.321921 -0.816016
H4    H     H_    0.654438 0.190246 0.425663 0.202240
H5    H     H_    0.656396 0.231339 0.199559 0.246993
H6    H     H_    0.716454 0.105772 0.278324 0.233982
C23   C     C_3   0.158299 0.780097 0.721290 -0.740395
H7    H     H_    0.102005 0.760173 0.736230 0.248138
H8    H     H_    0.184743 0.808667 0.863940 0.230136
H9    H     H_    0.164805 0.882963 0.658542 0.241796
C24   C     C_3   0.841923 0.215810 0.290899 -0.774071
H10   H     H_    0.897811 0.235516 0.271417 0.237119
H11   H     H_    0.836846 0.119661 0.365017 0.235793
H12   H     H_    0.814670 0.177319 0.149497 0.234165
O9    O     O_3   0.135445 0.238854 0.308209 -0.714322
H13   H     H_    0.087767 0.266970 0.275586 0.338567
O10   O     O_3   0.867333 0.773641 0.626200 -0.702351
H14   H     H_    0.845977 0.860892 0.582626 0.330460
C25   C     C_3   0.281204 0.218132 0.324364 -0.764650
H15   H     H_    0.308365 0.238407 0.205345 0.217296
H16   H     H_    0.319365 0.184232 0.425717 0.205147
H17   H     H_    0.242407 0.116239 0.272330 0.275656
C26   C     C_3   0.718237 0.785284 0.669700 -0.846903
H18   H     H_    0.682172 0.826955 0.570043 0.224145
H19   H     H_    0.688620 0.757594 0.781194 0.236932
H20   H     H_    0.756692 0.883727 0.738547 0.244905
C27   C     C_3   0.433731 0.947594 0.271952 -0.829761
H21   H     H_    0.405131 0.029844 0.204792 0.220039
H22   H     H_    0.462082 0.874408 0.164234 0.278585
H23   H     H_    0.393299 0.874142 0.318694 0.226619
C28   C     C_3   0.565374 0.052597 0.729990 -0.827943
H24   H     H_    0.593904 0.970509 0.797569 0.221152
H25   H     H_    0.605938 0.126783 0.685036 0.225992
H26   H     H_    0.536471 0.125094 0.836953 0.278741
O11   O     O_3   0.432941 0.355953 0.924524 -0.610963
H27   H     H_    0.408544 0.300206 0.005608 0.324918
O12   O     O_3   0.567037 0.644103 0.075487 -0.611319
H28   H     H_    0.591450 0.699818 0.994398 0.324518

loop_
_geom_bond_atom_site_label_1
_geom_bond_atom_site_label_2
_ccdc_geom_bond_type
C16   C26   S    
C28   H26   S    
C2    C4    S    
O12   H28   S    
C8    C10   A    
C9    C23   S    
C21   H1    S    
C26   H20   S    
C22   H5    S    
C22   H4    S    
C26   H18   S    
C27   H22   S    
C20   N1    A    
C12   C14   A    
C2    O2    A    
C27   H23   S    
C24   H12   S    
O10   H14   S    
C1    O1    A    
C14   O10   S    
C7    C21   S    
C23   H7    S    
C21   H2    S    
Cu1   O8    S    
Cu2   O2    S    
Cu1   Cu2   S    
C27   H21   S    
Cu2   O7    S    
C15   C25   S    
C9    C11   A    
C25   H15   S    
C3    C27   S    
C10   C12   A    
C19   N3    A    
C15   C17   A    
C5    O7    A    
C12   C19   S    
C2    O4    A    
C4    C28   S    
C22   H6    S    
Cu1   N6    S    
C6    O8    A    
N6    O12   S    
C19   N2    A    
C21   H3    S    
C13   O9    S    
Cu2   N5    S    
C13   C15   A    
C28   H24   S    
Cu2   O6    S    
Cu1   O4    S    
C14   C16   A    
C6    C18   S    
C25   H16   S    
C11   C13   A    
C5    C17   S    
Cu2   O3    S    
C3    C4    D    
C7    C9    A    
C20   N4    A    
C1    O3    A    
N1    N3    A    
Cu1   O5    S    
C8    C22   S    
C26   H19   S    
C24   H10   S    
O11   H27   S    
C23   H8    S    
N5    N6    D    
C28   H25   S    
C25   H17   S    
C23   H9    S    
C24   H11   S    
N5    O11   S    
C10   C24   S    
Cu1   O1    S    
C11   C20   S    
C16   C18   A    
C8    C18   A    
C6    O6    A    
O9    H13   S    
N2    N4    A    
C1    C3    S    
C7    C17   A    
C5    O5    A    
