data_str_m2_o16_o16_f0_pcu.sym.211
_audit_creation_date              2012-12-10T17:31:24-0500
_audit_creation_method            fapswitch 2.2
_symmetry_space_group_name_H-M    P1
_symmetry_Int_Tables_number       1
_space_group_crystal_system       triclinic
_cell_length_a                    19.434501
_cell_length_b                    18.591548
_cell_length_c                    12.30995
_cell_angle_alpha                 89.923283
_cell_angle_beta                  127.961156
_cell_angle_gamma                 89.885982
_cell_volume                      3506.74430092

loop_
_atom_site_label
_atom_site_type_symbol
_atom_type_description
_atom_site_fract_x
_atom_site_fract_y
_atom_site_fract_z
_atom_type_partial_charge
C1    C     C_R   0.609135 0.896638 0.649437 0.857613
C2    C     C_R   0.608997 0.103529 0.649444 0.844847
C3    C     C_R   0.109135 0.396638 0.649437 0.857597
C4    C     C_R   0.108997 0.603529 0.649444 0.844829
C5    C     C_R   0.246533 0.772330 0.043145 0.039312
C6    C     C_R   0.242172 0.222761 0.035455 0.030225
C7    C     C_R   0.746533 0.272330 0.043145 0.039311
C8    C     C_R   0.742169 0.722758 0.035450 0.030278
C9    C     C_R   0.686406 0.248138 0.064466 -0.120665
C10   C     C_R   0.674700 0.739206 0.044950 -0.121096
C11   C     C_R   0.186404 0.748140 0.064464 -0.120660
C12   C     C_R   0.174703 0.239209 0.044955 -0.121116
C13   C     C_R   0.610484 0.211240 0.959800 0.339518
C14   C     C_R   0.598510 0.775009 0.936235 0.357612
C15   C     C_R   0.110482 0.711242 0.959797 0.339523
C16   C     C_R   0.098513 0.275011 0.936239 0.357554
C17   C     C_R   0.598359 0.194808 0.839170 0.541107
C18   C     C_R   0.591461 0.795992 0.821165 0.515467
C19   C     C_R   0.098358 0.694809 0.839168 0.541091
C20   C     C_R   0.091464 0.295993 0.821168 0.515483
C21   C     C_R   0.314270 0.818553 0.142496 -0.219171
C22   C     C_R   0.312160 0.179311 0.139605 -0.227317
C23   C     C_R   0.814270 0.318553 0.142495 -0.219164
C24   C     C_R   0.812158 0.679309 0.139602 -0.227332
C25   C     C_R   0.256046 0.820773 0.270018 0.335023
C26   C     C_R   0.256773 0.182112 0.270939 0.403967
C27   C     C_R   0.756049 0.320770 0.270022 0.335041
C28   C     C_R   0.756771 0.682111 0.270936 0.403673
C29   C     C_R   0.664029 0.167594 0.724575 -0.059825
C30   C     C_R   0.666857 0.834362 0.726775 -0.076120
C31   C     C_R   0.164029 0.667594 0.724576 -0.059837
C32   C     C_R   0.166859 0.334364 0.726778 -0.076126
C33   C     C_R   0.679782 0.979567 0.282574 0.277226
C34   C     C_R   0.179790 0.479592 0.282581 0.277333
C35   C     C_R   0.348007 0.005024 0.634781 0.315826
C36   C     C_R   0.848007 0.505022 0.634782 0.315841
C37   C     C_R   0.316155 0.001745 0.709781 -0.220453
C38   C     C_R   0.816156 0.501742 0.709783 -0.220465
C39   C     C_R   0.386737 0.101043 0.345820 0.835290
C40   C     C_R   0.384777 0.900959 0.342869 0.834133
C41   C     C_R   0.886737 0.601043 0.345820 0.835332
C42   C     C_R   0.884778 0.400959 0.342869 0.834143
C43   C     C_R   0.373665 0.995995 0.853035 -0.208753
C44   C     C_R   0.873667 0.495992 0.853037 -0.208766
C45   C     C_R   0.464576 0.995168 0.923922 0.104330
C46   C     C_R   0.964577 0.495168 0.923923 0.104314
C47   C     C_R   0.493559 0.996317 0.841314 0.303588
C48   C     C_R   0.993560 0.496318 0.841314 0.303596
C49   C     C_R   0.527489 0.993674 0.072900 -0.057841
C50   C     C_R   0.027492 0.493678 0.072902 -0.057883
C51   C     C_R   0.618127 0.987260 0.136642 -0.102690
C52   C     C_R   0.118131 0.487273 0.136645 -0.102637
C53   C     C_R   0.644333 0.990818 0.052845 0.630532
C54   C     C_R   0.144335 0.490828 0.052843 0.630406
C55   C     C_R   0.583791 0.995528 0.910794 -0.267776
C56   C     C_R   0.083791 0.495531 0.910792 -0.267713
C57   C     C_R   0.504336 0.999736 0.161954 -0.047671
C58   C     C_R   0.004337 0.499734 0.161954 -0.047716
C59   C     C_R   0.651867 0.990399 0.362581 0.704941
C60   C     C_R   0.151869 0.490413 0.362584 0.704931
C61   C     C_R   0.697961 0.267829 0.183903 -0.096410
C62   C     C_R   0.683581 0.717926 0.161835 -0.054533
C63   C     C_R   0.197957 0.767833 0.183898 -0.096394
C64   C     C_R   0.183584 0.217929 0.161840 -0.054321
C65   C     C_R   0.317675 0.846022 0.252421 -0.147780
C66   C     C_R   0.319114 0.156131 0.255008 -0.178579
C67   C     C_R   0.817675 0.346021 0.252422 -0.147784
C68   C     C_R   0.819113 0.656130 0.255006 -0.178664
C69   C     C_R   0.718002 0.193275 0.693953 -0.143652
C70   C     C_R   0.730632 0.818240 0.711191 -0.116632
C71   C     C_R   0.218003 0.693274 0.693954 -0.143648
C72   C     C_R   0.230636 0.318244 0.711197 -0.116647
C73   C     C_R   0.275981 0.748702 0.770171 -0.009639
C74   C     C_R   0.294990 0.268387 0.795988 -0.049430
C75   C     C_R   0.775980 0.248703 0.770170 -0.009654
C76   C     C_R   0.794984 0.768382 0.795978 -0.049422
C77   C     C_R   0.288299 0.774586 0.887228 -0.075704
C78   C     C_R   0.301099 0.236889 0.904394 -0.112497
C79   C     C_R   0.788297 0.274587 0.887226 -0.075685
C80   C     C_R   0.801094 0.736884 0.904384 -0.112454
C81   C     C_R   0.735937 0.249487 0.923018 0.018993
C82   C     C_R   0.737056 0.750609 0.922586 0.032468
C83   C     C_R   0.235938 0.749486 0.923018 0.018989
C84   C     C_R   0.237060 0.250613 0.922592 0.032403
C85   C     C_R   0.666439 0.202185 0.829920 -0.114739
C86   C     C_R   0.664575 0.794442 0.823128 -0.100954
C87   C     C_R   0.166439 0.702185 0.829920 -0.114731
C88   C     C_R   0.164578 0.294444 0.823132 -0.100973
Cu1   Cu    Cu3+1 0.526340 1.000000 0.421010 1.030327
Cu2   Cu    Cu3+1 0.026340 0.500000 0.421010 1.030328
Cu3   Cu    Cu3+1 0.473640 0.000000 0.578990 1.115708
Cu4   Cu    Cu3+1 0.973640 0.500000 0.578990 1.115702
H1    H     H_    0.437314 0.005202 0.121872 0.147323
H2    H     H_    0.937315 0.505192 0.121872 0.147330
H3    H     H_    0.303945 0.011579 0.525618 0.204265
H4    H     H_    0.803944 0.511577 0.525618 0.204267
H5    H     H_    0.345320 0.993054 0.905527 0.138584
H6    H     H_    0.845322 0.493052 0.905528 0.138580
H7    H     H_    0.246525 0.004195 0.656569 0.173772
H8    H     H_    0.746526 0.504190 0.656572 0.173751
H9    H     H_    0.611969 0.999905 0.859811 0.209464
H10   H     H_    0.111968 0.499905 0.859808 0.209464
H11   H     H_    0.656182 0.246927 0.205661 0.246659
H12   H     H_    0.633135 0.728704 0.171267 0.249445
H13   H     H_    0.156176 0.746933 0.205653 0.246659
H14   H     H_    0.133138 0.228707 0.171271 0.249405
H15   H     H_    0.363598 0.835691 0.133815 0.158293
H16   H     H_    0.361860 0.161753 0.132208 0.177567
H17   H     H_    0.863597 0.335693 0.133812 0.158296
H18   H     H_    0.861859 0.661753 0.132207 0.177582
H19   H     H_    0.715030 0.171056 0.609859 0.191991
H20   H     H_    0.732407 0.845436 0.635059 0.230866
H21   H     H_    0.215031 0.671056 0.609860 0.191997
H22   H     H_    0.232410 0.345440 0.635065 0.230850
H23   H     H_    0.336775 0.815857 0.944176 0.132602
H24   H     H_    0.356173 0.201935 0.970905 0.160708
H25   H     H_    0.836773 0.315859 0.944173 0.132588
H26   H     H_    0.856165 0.701927 0.970893 0.160694
H27   H     H_    0.313076 0.770091 0.739428 0.224103
H28   H     H_    0.342193 0.257084 0.779408 0.244991
H29   H     H_    0.813075 0.270092 0.739428 0.224101
H30   H     H_    0.842185 0.757076 0.779395 0.244986
N1    N     N_R   0.566260 0.000000 0.302220 -0.257154
N2    N     N_R   0.066260 0.500000 0.302220 -0.257148
N3    N     N_R   0.434410 1.000000 0.697680 -0.181794
N4    N     N_R   0.934410 0.500000 0.697680 -0.181797
O1    O     O_R   0.608610 0.924520 0.551740 -0.546108
O2    O     O_R   0.608610 0.075480 0.551740 -0.547930
O3    O     O_R   0.108610 0.424520 0.551740 -0.546107
O4    O     O_R   0.108610 0.575480 0.551740 -0.547922
O5    O     O_R   0.564110 0.924510 0.685150 -0.566038
O6    O     O_R   0.564110 0.075490 0.685150 -0.568373
O7    O     O_R   0.064110 0.424510 0.685150 -0.566048
O8    O     O_R   0.064110 0.575490 0.685150 -0.568373
O9    O     O_R   0.435880 0.075470 0.314850 -0.609304
O10   O     O_R   0.435880 0.924530 0.314850 -0.620417
O11   O     O_R   0.935880 0.575470 0.314850 -0.609304
O12   O     O_R   0.935880 0.424530 0.314850 -0.620416
O13   O     O_R   0.391380 0.075460 0.448260 -0.522588
O14   O     O_R   0.391380 0.924540 0.448260 -0.497880
O15   O     O_R   0.891380 0.575460 0.448260 -0.522568
O16   O     O_R   0.891380 0.424540 0.448260 -0.497878
S1    S     S_3+6 0.235073 0.860425 0.377837 0.023654
O17   O     O_2   0.212438 0.937949 0.336480 -0.256683
O18   O     O_2   0.159226 0.825629 0.361027 -0.266218
O19   O     O_3   0.322855 0.852639 0.543441 -0.466479
H31   H     H_    0.335464 0.800355 0.557294 0.379832
S2    S     S_3+6 0.260046 0.174957 0.418108 0.025810
O20   O     O_2   0.350300 0.165569 0.549701 -0.174893
O21   O     O_2   0.222520 0.242719 0.429707 -0.286278
O22   O     O_3   0.196347 0.105904 0.393817 -0.534193
H32   H     H_    0.186633 0.112645 0.463287 0.366209
S3    S     S_3+6 0.735076 0.360420 0.377842 0.023623
O23   O     O_2   0.712438 0.437944 0.336482 -0.256698
O24   O     O_2   0.659230 0.325623 0.361034 -0.266280
O25   O     O_3   0.822859 0.352637 0.543446 -0.466476
H33   H     H_    0.835469 0.300352 0.557300 0.379834
S4    S     S_3+6 0.760046 0.674958 0.418107 0.025661
O26   O     O_2   0.850301 0.665573 0.549699 -0.174930
O27   O     O_2   0.722520 0.742721 0.429704 -0.286397
O28   O     O_3   0.696349 0.605905 0.393822 -0.534141
H34   H     H_    0.686636 0.612648 0.463292 0.366205
F1    F     F_    0.729379 0.996026 0.106292 -0.594807
F2    F     F_    0.229379 0.496035 0.106280 -0.595080
S5    S     S_3+6 0.788525 0.948216 0.367329 0.136096
O29   O     O_2   0.844427 0.009686 0.384032 -0.196753
O30   O     O_2   0.826245 0.917845 0.507116 -0.199862
O31   O     O_3   0.788650 0.882948 0.272796 -0.473981
H35   H     H_    0.850076 0.866396 0.328035 0.385660
S6    S     S_3+6 0.288552 0.448289 0.367354 0.136031
O32   O     O_2   0.344397 0.509785 0.383962 -0.197251
O33   O     O_2   0.326317 0.417956 0.507183 -0.199421
O34   O     O_3   0.288713 0.383001 0.272891 -0.474042
H36   H     H_    0.350313 0.366958 0.327549 0.385821
S7    S     S_3+6 0.524591 0.194710 0.970021 -0.008357
O35   O     O_2   0.557716 0.147912 0.092836 -0.369351
O36   O     O_2   0.495814 0.265579 0.988702 -0.276682
O37   O     O_3   0.439715 0.153808 0.828333 -0.469748
H37   H     H_    0.400861 0.140035 0.851204 0.337994
S8    S     S_3+6 0.510064 0.792275 0.940067 -0.021119
O38   O     O_2   0.442943 0.839727 0.822518 -0.270132
O39   O     O_2   0.469866 0.721458 0.931526 -0.301397
O40   O     O_3   0.545950 0.833419 0.087918 -0.572115
H38   H     H_    0.496537 0.831259 0.091652 0.359514
S9    S     S_3+6 0.024587 0.694712 0.970015 -0.008346
O41   O     O_2   0.057712 0.647918 0.092833 -0.369340
O42   O     O_2   0.995807 0.765582 0.988686 -0.276650
O43   O     O_3   0.939715 0.653806 0.828328 -0.469749
H39   H     H_    0.900862 0.640033 0.851200 0.337993
S10   S     S_3+6 0.010067 0.292277 0.940071 -0.021117
O44   O     O_2   0.942946 0.339729 0.822522 -0.270160
O45   O     O_2   0.969869 0.221461 0.931530 -0.301368
O46   O     O_3   0.045954 0.333422 0.087924 -0.572093
H40   H     H_    0.996523 0.331308 0.091609 0.359516
F3    F     F_    0.516116 0.184457 0.723133 -0.564871
F4    F     F_    0.511022 0.810237 0.701945 -0.616706
F5    F     F_    0.016116 0.684458 0.723130 -0.564912
F6    F     F_    0.011023 0.310236 0.701947 -0.616700
F7    F     F_    0.709930 0.989518 0.502026 -0.604866
F8    F     F_    0.209930 0.489536 0.502030 -0.604882

loop_
_geom_bond_atom_site_label_1
_geom_bond_atom_site_label_2
_ccdc_geom_bond_type
C27   S3    S    
S1    O19   S    
C83   C87   A    
S10   O44   D    
C73   H27   S    
C42   O12   A    
C3    O3    A    
C14   C18   A    
C53   C55   A    
Cu4   O8    S    
Cu4   O7    S    
S2    O22   S    
C48   C56   A    
Cu2   N2    S    
O28   H34   S    
C2    O2    A    
C32   C72   A    
C25   S1    S    
O34   H36   S    
C15   C19   A    
C15   S9    S    
S5    O29   D    
C2    C29   S    
C9    C61   A    
C47   C55   A    
O25   H33   S    
C61   H11   S    
S2    O21   D    
C5    C11   A    
C19   C87   A    
C6    C12   A    
C12   C64   A    
C7    C23   A    
S9    O42   D    
Cu3   O5    S    
S6    O32   D    
C77   C83   A    
S1    O17   D    
C32   C88   A    
C72   H22   S    
C49   C57   A    
C71   H21   S    
C35   N3    A    
C25   C63   A    
C23   C67   A    
C60   N2    A    
C26   C64   A    
C22   C66   A    
C9    C13   A    
C27   C61   A    
S10   O46   S    
C30   C70   A    
Cu2   O3    S    
C11   C15   A    
S4    O27   D    
C54   F2    S    
C12   C16   A    
S8    O39   D    
C49   C51   A    
C42   O16   A    
C50   C52   A    
O22   H32   S    
C69   C75   A    
C30   C86   A    
Cu4   O16   S    
C29   C85   A    
C34   S6    S    
S8    O40   S    
C21   C65   A    
C31   C71   A    
C33   C59   A    
Cu1   O10   S    
C57   H1    S    
C34   C60   A    
C10   C62   A    
C44   H6    S    
C24   H18   S    
Cu2   O12   S    
C52   C54   A    
C47   N3    A    
C41   C68   S    
C29   C69   A    
C45   C47   A    
C59   N1    A    
Cu2   Cu4   S    
C23   H17   S    
C46   C48   A    
C19   F5    S    
C6    C84   A    
C18   F4    S    
C26   C66   A    
C1    O1    A    
C31   C87   A    
S2    O20   D    
C72   C74   A    
C10   C14   A    
C80   H26   S    
C59   F7    S    
C71   C73   A    
C24   C68   A    
S7    O37   S    
C53   F1    S    
S9    O43   S    
C39   O9    A    
Cu3   O6    S    
C44   C46   A    
C82   C86   A    
C62   H12   S    
C33   C51   A    
O43   H39   S    
C3    O7    A    
C50   C58   A    
C37   C43   A    
C36   N4    A    
O40   H38   S    
C5    C83   A    
C38   C44   A    
C78   C84   A    
C57   N1    A    
C40   O10   A    
C36   H4    S    
C2    O6    A    
S7    O35   D    
C45   C49   A    
C16   C20   A    
C28   S4    S    
C20   C88   A    
C25   C65   A    
C18   C86   A    
S3    O25   S    
C26   S2    S    
Cu4   O15   S    
C43   C45   A    
C20   F6    S    
C21   H15   S    
C70   H20   S    
Cu1   O9    S    
C33   S5    S    
Cu3   O13   S    
C38   H8    S    
O31   H35   S    
C7    C81   A    
O46   H40   S    
S7    O36   D    
C40   C65   S    
C70   C76   A    
S4    O26   D    
C39   C66   S    
C17   C85   A    
C17   F3    S    
S3    O24   D    
C37   H7    S    
Cu2   O11   S    
C74   H28   S    
S8    O38   D    
C35   C37   A    
C4    O8    A    
O19   H31   S    
Cu1   O1    S    
S1    O18   D    
C55   H9    S    
C16   S10   S    
S10   O45   D    
Cu3   N3    S    
C28   C68   A    
C75   H29   S    
C41   O11   A    
C8    C10   A    
C78   H24   S    
C76   C80   A    
C58   N2    A    
C1    O5    A    
Cu4   N4    S    
C4    O4    A    
C79   C81   A    
C54   C56   A    
C64   H14   S    
C35   H3    S    
S5    O31   S    
Cu1   N1    S    
C41   O15   A    
C46   C50   A    
C34   C52   A    
C13   C17   A    
C76   H30   S    
C36   C38   A    
C58   H2    S    
C56   H10   S    
S4    O28   S    
C69   H19   S    
S9    O41   D    
C42   C67   S    
C84   C88   A    
S6    O33   D    
C22   H16   S    
C79   H25   S    
Cu1   Cu3   S    
C1    C30   S    
C8    C24   A    
C80   C82   A    
C40   O14   A    
C3    C32   S    
C81   C85   A    
C4    C31   S    
C27   C67   A    
C63   H13   S    
C60   F8    S    
C48   N4    A    
Cu3   O14   S    
Cu2   O4    S    
C7    C9    A    
C8    C82   A    
C5    C21   A    
C73   C77   A    
S5    O30   D    
C43   H5    S    
C74   C78   A    
C13   S7    S    
C51   C53   A    
S3    O23   D    
C77   H23   S    
C11   C63   A    
C75   C79   A    
S6    O34   S    
C39   O13   A    
C14   S8    S    
C28   C62   A    
O37   H37   S    
Cu1   O2    S    
C6    C22   A    
