data_str_m4_o22_o24_f0_acs.sym.45
_audit_creation_date              2012-12-11T15:08:50-0500
_audit_creation_method            fapswitch 2.2
_symmetry_space_group_name_H-M    P1
_symmetry_Int_Tables_number       1
_space_group_crystal_system       triclinic
_cell_length_a                    19.545301
_cell_length_b                    11.274652
_cell_length_c                    18.705574
_cell_angle_alpha                 90.018339
_cell_angle_beta                  90.129705
_cell_angle_gamma                 89.993691
_cell_volume                      4122.07045776

loop_
_atom_site_label
_atom_site_type_symbol
_atom_type_description
_atom_site_fract_x
_atom_site_fract_y
_atom_site_fract_z
_atom_type_partial_charge
C1    C     C_R   0.273790 0.041393 0.854978 0.537006
C2    C     C_3   0.693061 0.523145 0.957433 -0.243598
C3    C     C_R   0.227301 0.545486 0.353305 0.538293
C4    C     C_R   0.468201 0.822929 0.645033 0.547744
C5    C     C_R   0.529774 0.822901 0.353668 0.545269
C6    C     C_R   0.968201 0.322929 0.645033 0.547762
C7    C     C_R   0.029774 0.322901 0.353668 0.545262
C8    C     C_R   0.261306 0.641413 0.643180 0.542529
C9    C     C_R   0.739648 0.638628 0.355668 0.539896
C10   C     C_R   0.761306 0.141413 0.643180 0.542525
C11   C     C_R   0.239648 0.138628 0.355668 0.539902
C12   C     C_3   0.479994 0.911907 0.035824 -0.155220
C13   C     C_3   0.806940 0.023115 0.042535 -0.243537
C14   C     C_3   0.520023 0.911883 0.964215 -0.155126
C15   C     C_3   0.980002 0.411899 0.035829 -0.155213
C16   C     C_3   0.020029 0.411885 0.964219 -0.155134
C17   C     C_3   0.432126 0.813558 0.007195 -0.170386
C18   C     C_3   0.567868 0.813487 0.992814 -0.170136
C19   C     C_3   0.932134 0.313554 0.007196 -0.170323
C20   C     C_3   0.067876 0.313486 0.992812 -0.170215
C21   C     C_3   0.471963 0.816086 0.935774 0.031061
C22   C     C_3   0.528034 0.816059 0.064231 0.031282
C23   C     C_3   0.971967 0.316093 0.935777 0.031112
C24   C     C_3   0.193051 0.023176 0.957428 -0.243626
C25   C     C_3   0.028042 0.316048 0.064233 0.031237
C26   C     C_3   0.514047 0.522558 0.916874 -0.003657
C27   C     C_3   0.525498 0.461239 0.845257 -0.346211
C28   C     C_3   0.485893 0.522575 0.082993 -0.003580
C29   C     C_3   0.474532 0.461248 0.154599 -0.346745
C30   C     C_3   0.014102 0.022502 0.917000 -0.003765
C31   C     C_3   0.025405 0.961090 0.845389 -0.346278
C32   C     C_3   0.985945 0.022620 0.083105 -0.003493
C33   C     C_3   0.974488 0.961396 0.154729 -0.346670
C34   C     C_3   0.318392 0.551226 0.963166 -0.236110
C35   C     C_3   0.681613 0.551188 0.036824 -0.236058
C36   C     C_3   0.818392 0.051214 0.963161 -0.236072
C37   C     C_3   0.181608 0.051216 0.036819 -0.236101
C38   C     C_3   0.177254 0.519946 0.024671 -0.208167
C39   C     C_3   0.822756 0.519907 0.975298 -0.208209
C40   C     C_3   0.677251 0.019944 0.024670 -0.208172
C41   C     C_R   0.726207 0.041368 0.145014 0.536043
C42   C     C_3   0.322748 0.019909 0.975295 -0.208201
C43   C     C_3   0.238312 0.704614 0.055401 -0.257909
C44   C     C_3   0.761694 0.704607 0.944662 -0.257972
C45   C     C_3   0.738319 0.204607 0.055399 -0.257909
C46   C     C_3   0.261700 0.204620 0.944659 -0.257963
C47   C     C_3   0.237882 0.571267 0.068993 0.055819
C48   C     C_3   0.762126 0.571267 0.931009 0.055526
C49   C     C_3   0.737881 0.071260 0.068991 0.055802
C50   C     C_3   0.262121 0.071281 0.931004 0.055552
C51   C     C_3   0.253118 0.607134 0.931227 0.055565
C52   C     C_R   0.773793 0.541386 0.854981 0.537017
C53   C     C_3   0.746884 0.607079 0.068782 0.055853
C54   C     C_3   0.753118 0.107126 0.931224 0.055551
C55   C     C_3   0.246882 0.107093 0.068778 0.055874
C56   C     C_3   0.192980 0.521804 0.943634 -0.248529
C57   C     C_3   0.807028 0.521742 0.056335 -0.248636
C58   C     C_3   0.692978 0.021797 0.943632 -0.248538
C59   C     C_3   0.307020 0.021746 0.056331 -0.248633
C60   C     C_3   0.236653 0.722579 0.973696 -0.223494
C61   C     C_3   0.763339 0.722534 0.026373 -0.223375
C62   C     C_3   0.736654 0.222571 0.973695 -0.223495
C63   C     C_R   0.226208 0.541371 0.145016 0.536045
C64   C     C_3   0.263345 0.222547 0.026370 -0.223374
C65   C     C_3   0.494025 0.699927 0.457894 -0.234756
C66   C     C_3   0.492135 0.699680 0.537960 -0.227733
C67   C     C_3   0.994025 0.199927 0.457894 -0.234762
C68   C     C_3   0.992135 0.199680 0.537960 -0.227728
C69   C     C_R   0.443755 0.816531 0.862408 0.548757
C70   C     C_R   0.556244 0.816501 0.137594 0.548542
C71   C     C_R   0.943758 0.316532 0.862409 0.548771
C72   C     C_R   0.056249 0.316499 0.137595 0.548531
C73   C     C_3   0.567662 0.882985 0.473030 -0.224762
C74   C     C_3   0.518879 0.717380 0.964066 0.270794
C75   C     C_3   0.437356 0.909949 0.526601 -0.214761
C76   C     C_3   0.067662 0.382985 0.473030 -0.224761
C77   C     C_3   0.937356 0.409949 0.526600 -0.214765
C78   C     C_3   0.445396 0.901663 0.444551 -0.256376
C79   C     C_3   0.558313 0.881690 0.555168 -0.262752
C80   C     C_3   0.945396 0.401663 0.444551 -0.256375
C81   C     C_3   0.058313 0.381689 0.555168 -0.262751
C82   C     C_3   0.508309 0.827368 0.429935 0.060158
C83   C     C_3   0.488295 0.828304 0.568501 0.064701
C84   C     C_3   0.008308 0.327368 0.429935 0.060165
C85   C     C_3   0.481096 0.717406 0.035911 0.270712
C86   C     C_3   0.988295 0.328304 0.568501 0.064690
C87   C     C_3   0.184426 0.662344 0.456867 -0.236013
C88   C     C_3   0.822437 0.641921 0.538967 -0.228831
C89   C     C_3   0.684426 0.162344 0.456867 -0.236013
C90   C     C_3   0.322437 0.141921 0.538967 -0.228832
C91   C     C_3   0.186198 0.665918 0.536916 -0.226524
C92   C     C_3   0.820358 0.645444 0.458943 -0.234150
C93   C     C_3   0.686198 0.165918 0.536916 -0.226523
C94   C     C_3   0.320358 0.145444 0.458943 -0.234151
C95   C     C_3   0.239511 0.460747 0.472624 -0.224293
C96   C     C_3   0.018885 0.217386 0.964063 0.270818
C97   C     C_3   0.744948 0.454379 0.527150 -0.212980
C98   C     C_3   0.739511 0.960747 0.472624 -0.224291
C99   C     C_3   0.244948 0.954379 0.527150 -0.212981
C100  C     C_3   0.309366 0.634928 0.442394 -0.256143
C101  C     C_3   0.698488 0.649036 0.557593 -0.262877
C102  C     C_3   0.809366 0.134928 0.442394 -0.256144
C103  C     C_3   0.198488 0.149036 0.557593 -0.262877
C104  C     C_3   0.240700 0.577067 0.428978 0.062026
C105  C     C_3   0.760600 0.571087 0.569493 0.066902
C106  C     C_3   0.740700 0.077067 0.428978 0.062027
C107  C     C_3   0.981103 0.217397 0.035909 0.270694
C108  C     C_3   0.260600 0.071087 0.569493 0.066902
C109  C     C_3   0.253086 0.608365 0.566961 0.067008
C110  C     C_3   0.749048 0.603791 0.431606 0.061629
C111  C     C_3   0.753086 0.108365 0.566961 0.067010
C112  C     C_3   0.249048 0.103791 0.431606 0.061628
C113  C     C_3   0.244999 0.476419 0.554456 -0.264168
C114  C     C_3   0.743589 0.472037 0.445365 -0.257172
C115  C     C_3   0.744999 0.976420 0.554456 -0.264168
C116  C     C_3   0.243589 0.972037 0.445365 -0.257172
C117  C     C_R   0.261577 0.640257 0.854333 0.535384
C118  C     C_3   0.306944 0.523135 0.042540 -0.243556
C119  C     C_R   0.738431 0.640212 0.145680 0.534515
C120  C     C_R   0.761576 0.140253 0.854331 0.535383
C121  C     C_R   0.238429 0.140218 0.145677 0.534521
C122  C     C_3   0.318723 0.643938 0.524201 -0.215240
C123  C     C_3   0.692179 0.664422 0.475802 -0.226868
C124  C     C_3   0.818723 0.143938 0.524201 -0.215237
C125  C     C_3   0.192179 0.164422 0.475802 -0.226873
C126  C     C_R   0.273738 0.042286 0.645383 0.541405
C127  C     C_R   0.727302 0.045486 0.353305 0.538290
C128  C     C_R   0.773738 0.542286 0.645384 0.541404
Cr1   Cr    Cr6+3 0.229620 0.836040 0.749110 0.982095
Cr2   Cr    Cr6+3 0.613980 0.676590 0.250790 0.980512
Cr3   Cr    Cr6+3 0.886020 0.176590 0.749210 0.981285
Cr4   Cr    Cr6+3 0.113980 0.176590 0.250790 0.980447
Cr5   Cr    Cr6+3 0.770380 0.836040 0.250890 0.981341
Cr6   Cr    Cr6+3 0.729620 0.336040 0.749110 0.982061
Cr7   Cr    Cr6+3 0.270380 0.336040 0.250890 0.981366
Cr8   Cr    Cr6+3 0.387630 0.990680 0.750730 0.993714
Cr9   Cr    Cr6+3 0.612370 0.990680 0.249270 0.992843
Cr10  Cr    Cr6+3 0.887630 0.490680 0.750730 0.993714
Cr11  Cr    Cr6+3 0.112370 0.490680 0.249270 0.992842
Cr12  Cr    Cr6+3 0.386020 0.676590 0.749210 0.981227
H1    H     H_    0.377535 0.800733 0.018405 0.105393
H2    H     H_    0.715151 0.743033 0.920225 0.117563
H3    H     H_    0.192190 0.930354 0.542161 0.121451
H4    H     H_    0.289510 0.426712 0.576100 0.110399
H5    H     H_    0.694420 0.440169 0.422504 0.114828
H6    H     H_    0.789510 0.926712 0.576100 0.110395
H7    H     H_    0.194420 0.940169 0.422504 0.114831
H8    H     H_    0.312379 0.428902 0.052315 0.120524
H9    H     H_    0.687613 0.428916 0.947586 0.120549
H10   H     H_    0.812363 0.928881 0.052304 0.120506
H11   H     H_    0.187601 0.928946 0.947585 0.120596
H12   H     H_    0.346112 0.564299 0.075716 0.196295
H13   H     H_    0.784873 0.242999 0.079842 0.117376
H14   H     H_    0.653899 0.564373 0.924286 0.196434
H15   H     H_    0.846110 0.064253 0.075716 0.196355
H16   H     H_    0.153885 0.064408 0.924285 0.196329
H17   H     H_    0.361068 0.615162 0.958191 0.134796
H18   H     H_    0.638927 0.615117 0.041844 0.134876
H19   H     H_    0.861072 0.115145 0.958186 0.134895
H20   H     H_    0.138928 0.115156 0.041838 0.134777
H21   H     H_    0.332388 0.468922 0.933837 0.109004
H22   H     H_    0.667635 0.468864 0.066105 0.108926
H23   H     H_    0.832386 0.968910 0.933831 0.109032
H24   H     H_    0.215162 0.243057 0.920220 0.117546
H25   H     H_    0.167623 0.968894 0.066099 0.108897
H26   H     H_    0.663633 0.933440 0.045627 0.095122
H27   H     H_    0.336365 0.933404 0.954283 0.094991
H28   H     H_    0.163636 0.433440 0.045627 0.095131
H29   H     H_    0.836374 0.433402 0.954288 0.094979
H30   H     H_    0.706350 0.932793 0.923989 0.114012
H31   H     H_    0.293641 0.932747 0.075927 0.113779
H32   H     H_    0.206352 0.432802 0.923989 0.114014
H33   H     H_    0.793654 0.432741 0.075932 0.113776
H34   H     H_    0.458301 0.531050 0.925379 0.134253
H35   H     H_    0.271985 0.792278 0.958055 0.109028
H36   H     H_    0.538104 0.464259 0.957333 0.097729
H37   H     H_    0.581125 0.449658 0.835381 0.154513
H38   H     H_    0.500908 0.372430 0.845885 0.075009
H39   H     H_    0.503037 0.513575 0.800856 0.185264
H40   H     H_    0.541629 0.530969 0.074402 0.134233
H41   H     H_    0.461749 0.464349 0.042534 0.097843
H42   H     H_    0.418921 0.450167 0.164704 0.154588
H43   H     H_    0.498848 0.372223 0.153785 0.074855
H44   H     H_    0.497326 0.513287 0.198944 0.184628
H45   H     H_    0.958372 0.030869 0.925650 0.134098
H46   H     H_    0.727996 0.792230 0.042055 0.109124
H47   H     H_    0.038311 0.964356 0.957441 0.097831
H48   H     H_    0.081011 0.950444 0.835082 0.155126
H49   H     H_    0.001348 0.871871 0.846337 0.074957
H50   H     H_    0.002300 0.012833 0.801110 0.184674
H51   H     H_    0.041690 0.031105 0.074611 0.134292
H52   H     H_    0.961916 0.964251 0.042648 0.097769
H53   H     H_    0.918870 0.949985 0.164650 0.154372
H54   H     H_    0.998993 0.872527 0.154081 0.074839
H55   H     H_    0.997022 0.013679 0.199110 0.184848
H56   H     H_    0.771983 0.292275 0.958050 0.109031
H57   H     H_    0.228006 0.292247 0.042053 0.109132
H58   H     H_    0.183497 0.748099 0.959386 0.130957
H59   H     H_    0.816493 0.748031 0.040705 0.131057
H60   H     H_    0.683496 0.248083 0.959389 0.130946
H61   H     H_    0.622460 0.800607 0.981608 0.105357
H62   H     H_    0.316499 0.248041 0.040705 0.131048
H63   H     H_    0.630459 0.074328 0.033849 0.136394
H64   H     H_    0.369544 0.074272 0.966146 0.136370
H65   H     H_    0.130459 0.574324 0.033851 0.136394
H66   H     H_    0.869549 0.574275 0.966148 0.136369
H67   H     H_    0.147065 0.551691 0.913521 0.124855
H68   H     H_    0.852939 0.551604 0.086467 0.124654
H69   H     H_    0.647064 0.051685 0.913518 0.124851
H70   H     H_    0.352932 0.051599 0.086463 0.124654
H71   H     H_    0.532429 0.632948 0.441848 0.135610
H72   H     H_    0.877543 0.300730 0.018406 0.105410
H73   H     H_    0.451134 0.641864 0.555495 0.136827
H74   H     H_    0.032429 0.132948 0.441848 0.135610
H75   H     H_    0.951134 0.141864 0.555495 0.136823
H76   H     H_    0.445274 0.668111 0.435575 0.116882
H77   H     H_    0.538732 0.654801 0.558824 0.112915
H78   H     H_    0.945274 0.168111 0.435575 0.116873
H79   H     H_    0.038732 0.154801 0.558824 0.112931
H80   H     H_    0.608350 0.825090 0.459884 0.111920
H81   H     H_    0.384473 0.898308 0.543377 0.111841
H82   H     H_    0.108350 0.325090 0.459883 0.111921
H83   H     H_    0.122466 0.300609 0.981601 0.105336
H84   H     H_    0.884473 0.398308 0.543377 0.111840
H85   H     H_    0.598684 0.828453 0.581740 0.107502
H86   H     H_    0.399496 0.861740 0.419445 0.104279
H87   H     H_    0.098684 0.328453 0.581740 0.107511
H88   H     H_    0.899496 0.361740 0.419445 0.104275
H89   H     H_    0.464950 0.992880 0.065477 0.124977
H90   H     H_    0.535085 0.992836 0.934589 0.125049
H91   H     H_    0.964955 0.492868 0.065485 0.124984
H92   H     H_    0.035088 0.492842 0.934596 0.125045
H93   H     H_    0.453520 0.991012 0.421064 0.115234
H94   H     H_    0.193367 0.749138 0.080092 0.125748
H95   H     H_    0.561553 0.972859 0.577403 0.110975
H96   H     H_    0.953520 0.491012 0.421064 0.115232
H97   H     H_    0.061553 0.472859 0.577403 0.110976
H98   H     H_    0.452140 0.001387 0.540982 0.119788
H99   H     H_    0.577354 0.974418 0.454693 0.128931
H100  H     H_    0.952140 0.501387 0.540982 0.119789
H101  H     H_    0.077354 0.474418 0.454693 0.128931
H102  H     H_    0.131683 0.637876 0.441165 0.135069
H103  H     H_    0.872049 0.609371 0.556017 0.136171
H104  H     H_    0.631683 0.137876 0.441165 0.135069
H105  H     H_    0.806644 0.749120 0.920002 0.125866
H106  H     H_    0.372049 0.109371 0.556017 0.136171
H107  H     H_    0.192679 0.751162 0.434203 0.116530
H108  H     H_    0.821523 0.733980 0.560184 0.112899
H109  H     H_    0.692679 0.251162 0.434203 0.116529
H110  H     H_    0.321523 0.233980 0.560184 0.112901
H111  H     H_    0.177407 0.756260 0.554317 0.136274
H112  H     H_    0.834638 0.736588 0.443005 0.135184
H113  H     H_    0.677407 0.256260 0.554317 0.136273
H114  H     H_    0.334638 0.236588 0.443005 0.135185
H115  H     H_    0.140967 0.617932 0.558233 0.113532
H116  H     H_    0.693379 0.249138 0.080094 0.125749
H117  H     H_    0.860207 0.588096 0.436055 0.117757
H118  H     H_    0.640967 0.117932 0.558233 0.113531
H119  H     H_    0.360207 0.088096 0.436055 0.117758
H120  H     H_    0.689856 0.928990 0.460912 0.112309
H121  H     H_    0.277633 0.880728 0.542946 0.112607
H122  H     H_    0.189856 0.428990 0.460912 0.112308
H123  H     H_    0.777633 0.380728 0.542946 0.112608
H124  H     H_    0.698801 0.942376 0.581967 0.106108
H125  H     H_    0.286017 0.923577 0.419253 0.103112
H126  H     H_    0.198801 0.442375 0.581967 0.106110
H127  H     H_    0.306655 0.249121 0.919999 0.125862
H128  H     H_    0.786017 0.423577 0.419253 0.103111
H129  H     H_    0.349740 0.578086 0.418521 0.115870
H130  H     H_    0.651649 0.607383 0.579882 0.111922
H131  H     H_    0.849740 0.078086 0.418521 0.115860
H132  H     H_    0.151649 0.107383 0.579882 0.111939
H133  H     H_    0.311797 0.723445 0.416900 0.103224
H134  H     H_    0.705019 0.735589 0.584969 0.105660
H135  H     H_    0.811797 0.223445 0.416900 0.103221
H136  H     H_    0.205019 0.235589 0.584969 0.105663
H137  H     H_    0.339528 0.729413 0.540270 0.111566
H138  H     H_    0.284861 0.743015 0.079849 0.117361
H139  H     H_    0.701165 0.754728 0.464449 0.112685
H140  H     H_    0.839528 0.229413 0.540270 0.111564
H141  H     H_    0.201165 0.254728 0.464449 0.112685
H142  H     H_    0.357352 0.576371 0.538119 0.119204
H143  H     H_    0.641290 0.634547 0.457627 0.128619
H144  H     H_    0.857352 0.076371 0.538119 0.119203
H145  H     H_    0.141290 0.134547 0.457627 0.128621
H146  H     H_    0.279821 0.399815 0.453895 0.131637
H147  H     H_    0.692190 0.430354 0.542161 0.121449
H148  H     H_    0.779821 0.899815 0.453895 0.131637
O1    O     O_R   0.214130 0.708570 0.829890 -0.529551
O2    O     O_R   0.542830 0.717300 0.331620 -0.536333
O3    O     O_R   0.957170 0.217300 0.668380 -0.536270
O4    O     O_R   0.042830 0.217300 0.331620 -0.536377
O5    O     O_R   0.320870 0.624890 0.673130 -0.513511
O6    O     O_R   0.679130 0.624890 0.326870 -0.513255
O7    O     O_R   0.820870 0.124890 0.673130 -0.513541
O8    O     O_R   0.179130 0.124890 0.326870 -0.513240
O9    O     O_3   0.334430 0.834430 0.749680 -0.287293
O10   O     O_3   0.665570 0.834430 0.250320 -0.284047
O11   O     O_3   0.834430 0.334430 0.749680 -0.287308
O12   O     O_R   0.785870 0.708570 0.170110 -0.530083
O13   O     O_3   0.165570 0.334430 0.250320 -0.284041
O14   O     O_R   0.236050 0.959150 0.825270 -0.517520
O15   O     O_R   0.763950 0.959150 0.174730 -0.517999
O16   O     O_R   0.736050 0.459150 0.825270 -0.517516
O17   O     O_R   0.263950 0.459150 0.174730 -0.517994
O18   O     O_R   0.332100 0.076650 0.832310 -0.533545
O19   O     O_R   0.667900 0.076650 0.167690 -0.534079
O20   O     O_R   0.832100 0.576650 0.832310 -0.533542
O21   O     O_R   0.167900 0.576650 0.167690 -0.534084
O22   O     O_R   0.446500 0.918620 0.826240 -0.505184
O23   O     O_R   0.714130 0.208570 0.829890 -0.529582
O24   O     O_R   0.553500 0.918620 0.173760 -0.505945
O25   O     O_R   0.946500 0.418620 0.826240 -0.505209
O26   O     O_R   0.053500 0.418620 0.173760 -0.505924
O27   O     O_R   0.457310 0.715830 0.831280 -0.482217
O28   O     O_R   0.542690 0.715830 0.168720 -0.482728
O29   O     O_R   0.957310 0.215830 0.831280 -0.481929
O30   O     O_R   0.042690 0.215830 0.168720 -0.482915
O31   O     O_R   0.321000 0.623520 0.824130 -0.527681
O32   O     O_R   0.679000 0.623520 0.175870 -0.528159
O33   O     O_R   0.821000 0.123520 0.824130 -0.527721
O34   O     O_R   0.285870 0.208570 0.170110 -0.530074
O35   O     O_R   0.179000 0.123520 0.175870 -0.528153
O36   O     O_R   0.213990 0.710040 0.667000 -0.533214
O37   O     O_R   0.786010 0.710040 0.333000 -0.533132
O38   O     O_R   0.713990 0.210040 0.667000 -0.533214
O39   O     O_R   0.286010 0.210040 0.333000 -0.533130
O40   O     O_R   0.235920 0.960520 0.674260 -0.511762
O41   O     O_R   0.764080 0.960520 0.325740 -0.511517
O42   O     O_R   0.735920 0.460520 0.674260 -0.511759
O43   O     O_R   0.264080 0.460520 0.325740 -0.511513
O44   O     O_R   0.331960 0.078120 0.669410 -0.534517
O45   O     O_R   0.446360 0.919990 0.675230 -0.507205
O46   O     O_R   0.668040 0.078120 0.330590 -0.534297
O47   O     O_R   0.831960 0.578120 0.669410 -0.534518
O48   O     O_R   0.168040 0.578120 0.330590 -0.534298
O49   O     O_3   0.547821 0.632708 0.917207 -0.571945
O50   O     O_3   0.452169 0.632782 0.082769 -0.572043
O51   O     O_3   0.047783 0.132728 0.917170 -0.571763
O52   O     O_3   0.952144 0.132762 0.082740 -0.572180
O53   O     O_R   0.553640 0.919990 0.324770 -0.507251
O54   O     O_R   0.946360 0.419990 0.675230 -0.507212
O55   O     O_R   0.053640 0.419990 0.324770 -0.507246
O56   O     O_R   0.457170 0.717300 0.668380 -0.536349

loop_
_geom_bond_atom_site_label_1
_geom_bond_atom_site_label_2
_ccdc_geom_bond_type
C78   H86   S    
C128  O47   A    
C55   C59   S    
C35   C53   S    
C62   H56   S    
C69   O22   A    
C34   H21   S    
C41   O15   A    
C90   H110  S    
C17   C85   S    
C10   O38   A    
C37   H20   S    
C99   H3    S    
C38   H65   S    
C103  H136  S    
C73   H99   S    
C87   C91   S    
C94   H114  S    
C123  H139  S    
C8    O5    A    
C97   H147  S    
C100  C104  S    
C46   H127  S    
C89   C106  S    
C52   O20   A    
C4    O56   A    
C119  O12   A    
C81   C86   S    
C6    O54   A    
C59   H70   S    
C60   H58   S    
C97   C105  S    
C124  H144  S    
C111  C124  S    
Cr7   O39   S    
C127  O41   A    
C59   H31   S    
C41   C49   S    
C100  H129  S    
C125  H145  S    
Cr1   O14   S    
C40   C58   S    
C102  H131  S    
C19   H72   S    
Cr1   O36   S    
C99   C116  S    
C117  O31   A    
C106  C127  S    
C17   C21   S    
Cr4   O8    S    
C32   H51   S    
Cr11  O55   S    
C15   C19   S    
C24   H11   S    
C114  H128  S    
C110  C123  S    
Cr11  O26   S    
C7    O4    A    
C78   C82   S    
C16   C20   S    
C10   C111  S    
C28   H40   S    
C112  C125  S    
C44   H105  S    
C71   O25   A    
C57   H33   S    
C72   O30   A    
C33   H54   S    
Cr4   O13   S    
C120  O23   A    
Cr12  O56   S    
C42   H27   S    
C25   C107  S    
C30   O51   S    
C11   C112  S    
C67   H78   S    
C7    O55   A    
C43   H94   S    
C116  H7    S    
C37   H25   S    
C87   H107  S    
C9    C110  S    
C95   H146  S    
Cr2   O6    S    
C98   C106  S    
C113  H4    S    
Cr3   O3    S    
C30   H47   S    
C66   H73   S    
C76   H101  S    
C39   H29   S    
C5    C82   S    
C65   C82   S    
C56   H67   S    
C91   H115  S    
Cr1   O9    S    
C16   H92   S    
C18   H61   S    
C32   O52   S    
C14   H90   S    
C97   H123  S    
C14   C21   S    
Cr8   O18   S    
C48   C52   S    
C99   H121  S    
C20   C25   S    
Cr10  O54   S    
C75   H98   S    
C108  C126  S    
C43   C47   S    
C24   H16   S    
C34   C118  S    
C55   C121  S    
C80   H96   S    
C42   H64   S    
C27   H38   S    
C61   H59   S    
C88   H103  S    
C92   H117  S    
C124  H140  S    
C12   H89   S    
Cr7   O34   S    
C99   C108  S    
C115  H6    S    
C34   C51   S    
Cr2   O10   S    
C8    O36   A    
C66   H77   S    
Cr5   O41   S    
C15   C25   S    
C40   C49   S    
C12   C22   S    
C45   C62   S    
C22   C85   S    
C68   H75   S    
C53   C61   S    
C36   H23   S    
Cr5   O10   S    
C110  C114  S    
Cr10  O20   S    
C20   C96   S    
C4    O45   A    
C2    H14   S    
C92   H112  S    
C24   C50   S    
Cr2   O28   S    
C29   H42   S    
C30   H45   S    
Cr4   O30   S    
Cr8   O44   S    
Cr12  O5    S    
C96   O51   S    
Cr5   O37   S    
Cr9   O53   S    
Cr12  O27   S    
C87   C104  S    
C21   C69   S    
C65   H76   S    
C88   H108  S    
C26   H36   S    
C24   C37   S    
C73   C79   S    
C118  H12   S    
C42   C50   S    
C63   O21   A    
C125  H141  S    
C16   C23   S    
C101  H134  S    
Cr1   O40   S    
C112  C116  S    
Cr8   O9    S    
C58   H69   S    
C126  O44   A    
C18   C22   S    
C114  H5    S    
C9    O37   A    
C42   C59   S    
Cr12  O9    S    
C44   C61   S    
C6    C86   S    
C90   C108  S    
Cr9   O24   S    
C71   O29   A    
C88   C105  S    
C72   O26   A    
C98   C115  S    
C94   C112  S    
C51   C117  S    
Cr5   O12   S    
C81   H97   S    
C74   C85   S    
C89   C93   S    
Cr8   O45   S    
C103  C125  S    
Cr11  O13   S    
C36   C54   S    
C115  H124  S    
C37   C55   S    
C34   H17   S    
C44   C48   S    
C38   C56   S    
C67   H74   S    
C51   C60   S    
C97   C114  S    
C22   C70   S    
C19   C107  S    
C2    C35   S    
Cr10  O47   S    
C29   H44   S    
C69   O27   A    
C70   O28   A    
C80   C84   S    
C5    O2    A    
C76   C84   S    
C91   H111  S    
C38   H28   S    
C57   H68   S    
C26   C27   S    
C89   H109  S    
C28   C29   S    
C27   H39   S    
C13   H10   S    
C26   O49   S    
C47   C63   S    
C30   C31   S    
C93   H113  S    
Cr11  O48   S    
C26   H34   S    
Cr8   O22   S    
C39   H66   S    
C119  O32   A    
C32   H52   S    
C17   H1    S    
C14   C18   S    
C113  H126  S    
C107  O52   S    
C36   H19   S    
C66   C83   S    
C121  O35   A    
C47   C118  S    
C12   C17   S    
C102  H135  S    
C81   H87   S    
C1    C50   S    
Cr9   O19   S    
Cr6   O23   S    
C117  O1    A    
C33   H53   S    
C128  O42   A    
C64   H57   S    
C56   H32   S    
Cr5   O15   S    
Cr3   O11   S    
C102  C124  S    
C70   O24   A    
C90   C94   S    
C67   C68   S    
C23   C71   S    
C68   H79   S    
C53   C57   S    
C87   H102  S    
C54   C62   S    
C2    C48   S    
C73   H80   S    
C77   H84   S    
C120  O33   A    
Cr11  O21   S    
C45   C49   S    
C89   H104  S    
C80   H88   S    
C122  H142  S    
C93   C111  S    
C96   C107  S    
Cr2   O32   S    
Cr6   O42   S    
Cr3   O29   S    
C45   H13   S    
C73   C82   S    
Cr10  O25   S    
C6    O3    A    
C1    O18   A    
C77   C80   S    
Cr12  O31   S    
C27   H37   S    
C3    O43   A    
C31   H49   S    
C32   C33   S    
C118  H8    S    
C35   H18   S    
C62   H60   S    
C85   O50   S    
C79   C83   S    
C75   C83   S    
C4    C83   S    
C90   H106  S    
C31   H50   S    
C20   H83   S    
Cr6   O11   S    
C45   H116  S    
C28   O50   S    
C93   H118  S    
C33   H55   S    
C44   H2    S    
C126  O40   A    
Cr6   O38   S    
C60   H35   S    
Cr10  O11   S    
C39   C48   S    
C3    C104  S    
Cr4   O35   S    
C54   C120  S    
C68   C86   S    
C52   O16   A    
C19   C23   S    
C63   O17   A    
C92   C110  S    
C101  C123  S    
C58   H30   S    
Cr9   O46   S    
C109  C122  S    
C74   O49   S    
C15   C16   S    
C39   C57   S    
C23   C96   S    
C51   C56   S    
C15   H91   S    
C13   H15   S    
C95   H122  S    
C88   C92   S    
C31   H48   S    
Cr4   O4    S    
C103  C108  S    
C40   H26   S    
C109  C113  S    
C2    H9    S    
C7    C84   S    
Cr1   O1    S    
C67   C84   S    
C18   C74   S    
C46   H24   S    
Cr9   O10   S    
Cr6   O16   S    
Cr7   O13   S    
C9    O6    A    
C98   H148  S    
C101  C105  S    
C11   O8    A    
C35   H22   S    
C13   C36   S    
C116  H125  S    
C76   H82   S    
C21   C74   S    
C41   O19   A    
C46   C64   S    
C28   H41   S    
C77   H100  S    
C94   H119  S    
C40   H63   S    
C55   C64   S    
Cr2   O2    S    
Cr3   O7    S    
C25   C72   S    
C38   C47   S    
Cr3   O33   S    
C43   C60   S    
C13   C49   S    
C12   C14   S    
C77   C86   S    
C1    O14   A    
C11   O39   A    
C122  H137  S    
C95   C104  S    
Cr7   O17   S    
C54   C58   S    
C98   H120  S    
C64   H62   S    
Cr7   O43   S    
C29   H43   S    
C105  C128  S    
C76   C81   S    
C53   C119  S    
C101  H130  S    
C46   C50   S    
C100  H133  S    
C5    O53   A    
C103  H132  S    
C91   C109  S    
C123  H143  S    
C8    C109  S    
C43   H138  S    
C95   C113  S    
C78   H93   S    
C3    O48   A    
C61   H46   S    
C127  O46   A    
C102  C106  S    
C100  C122  S    
C75   C78   S    
C65   H71   S    
C121  O34   A    
C75   H81   S    
C65   C66   S    
C111  C115  S    
C79   H85   S    
C79   H95   S    
C10   O7    A    
