data_str_m2_o16_o18_f0_pcu.sym.159
_audit_creation_date              2012-12-10T17:32:58-0500
_audit_creation_method            fapswitch 2.2
_symmetry_space_group_name_H-M    P1
_symmetry_Int_Tables_number       1
_space_group_crystal_system       triclinic
_cell_length_a                    12.36008
_cell_length_b                    13.744267
_cell_length_c                    14.576297
_cell_angle_alpha                 94.587553
_cell_angle_beta                  107.898354
_cell_angle_gamma                 117.219691
_cell_volume                      2023.01158029

loop_
_atom_site_label
_atom_site_type_symbol
_atom_type_description
_atom_site_fract_x
_atom_site_fract_y
_atom_site_fract_z
_atom_type_partial_charge
C1    C     C_R   0.656558 0.713636 0.514221 0.802885
C2    C     C_R   0.830443 0.472770 0.911682 -0.081185
C3    C     C_R   0.772614 0.479968 0.979625 -0.127794
C4    C     C_R   0.936871 0.451454 0.941905 0.097750
C5    C     C_R   0.004531 0.466352 0.045152 0.043491
C6    C     C_R   0.952929 0.487886 0.113316 -0.306413
C7    C     C_R   0.837277 0.492415 0.081042 0.496997
C8    C     C_R   0.970788 0.407375 0.871578 -0.127836
C9    C     C_R   0.073566 0.385487 0.901640 -0.189830
C10   C     C_R   0.148445 0.409281 0.002890 -0.056254
C11   C     C_R   0.117598 0.453599 0.075985 0.051858
C12   C     C_R   0.616155 0.513049 0.685449 0.843924
C13   C     C_R   0.252885 0.387641 0.032023 0.494406
C14   C     C_R   0.330045 0.412725 0.132481 0.492343
C15   C     C_R   0.200877 0.483149 0.177247 -0.367631
C16   C     C_R   0.133510 0.978795 0.357757 0.515431
C17   C     C_R   0.246011 0.169677 0.458778 -0.348103
C18   C     C_R   0.726523 0.915870 0.562419 -0.280464
C19   C     C_R   0.805338 0.030186 0.570240 0.454870
C20   C     C_R   0.914533 0.066056 0.544609 -0.209035
C21   C     C_R   0.948053 0.988569 0.511041 0.077743
C22   C     C_R   0.866436 0.871005 0.500231 0.025800
C23   C     C_R   0.344415 0.287816 0.483189 0.857188
C24   C     C_R   0.055016 0.024393 0.479421 -0.151973
C25   C     C_R   0.060451 0.944100 0.417760 -0.211645
C26   C     C_R   0.000611 0.832676 0.423991 0.460650
C27   C     C_R   0.904773 0.797041 0.464349 -0.288886
C28   C     C_R   0.161336 0.135962 0.510590 0.371790
C29   C     C_R   0.224032 0.092731 0.376161 0.272649
C30   C     C_R   0.752182 0.834319 0.525775 -0.147557
C31   C     C_R   0.258341 0.688352 0.657774 0.317974
C32   C     C_R   0.652834 0.359832 0.352791 0.031799
C33   C     C_R   0.730023 0.350543 0.305421 0.406098
C34   C     C_R   0.380121 0.481612 0.313643 0.824544
C35   C     C_R   0.867973 0.409276 0.359440 -0.273306
C36   C     C_R   0.926736 0.470418 0.460815 0.010133
C37   C     C_R   0.843329 0.491968 0.496563 0.223124
C38   C     C_R   0.066910 0.527837 0.520868 -0.107789
C39   C     C_R   0.120623 0.620356 0.604440 -0.018130
C40   C     C_R   0.036572 0.647539 0.630866 -0.196652
C41   C     C_R   0.901317 0.582162 0.580614 -0.078170
C42   C     C_R   0.155595 0.495496 0.504663 0.554562
C43   C     C_R   0.341406 0.662441 0.629094 -0.088012
C44   C     C_R   0.670308 0.503511 0.787759 -0.262747
C45   C     C_R   0.304874 0.460909 0.206274 -0.262908
C46   C     C_R   0.654126 0.480636 0.946649 -0.257462
C47   C     C_R   0.606400 0.498438 0.853743 0.363743
C48   C     C_R   0.782779 0.491476 0.817593 0.489311
Cu1   Cu    Cu3+1 0.416420 0.526630 0.522910 0.968300
Cu2   Cu    Cu3+1 0.583580 0.473370 0.477090 0.950250
H1    H     H_    0.642829 0.891072 0.583696 0.176752
H2    H     H_    0.967503 0.154577 0.546253 0.224083
H3    H     H_    0.864582 0.710152 0.463380 0.200237
H4    H     H_    0.447333 0.716730 0.666363 0.156141
H5    H     H_    0.188330 0.525917 0.234845 0.188399
H6    H     H_    0.074488 0.720825 0.690532 0.174920
H7    H     H_    0.547627 0.319600 0.311981 0.207186
H8    H     H_    0.927288 0.421657 0.317529 0.146809
H9    H     H_    0.845965 0.611789 0.604668 0.208891
H10   H     H_    0.094283 0.349652 0.844805 0.204403
H11   H     H_    0.601757 0.473812 0.995314 0.240096
H12   H     H_    0.996104 0.495676 0.191746 0.141014
H13   H     H_    0.913056 0.381553 0.792371 0.213707
N1    N     N_R   0.290690 0.566960 0.557640 -0.241904
N2    N     N_R   0.709100 0.433710 0.442970 -0.270106
O1    O     O_R   0.545970 0.684450 0.528810 -0.594908
O2    O     O_R   0.687130 0.639470 0.490120 -0.627306
O3    O     O_R   0.519670 0.535100 0.660030 -0.544235
O4    O     O_R   0.660830 0.490120 0.621340 -0.556804
O5    O     O_R   0.312870 0.360530 0.509880 -0.512287
O6    O     O_R   0.454030 0.315550 0.471190 -0.579111
O7    O     O_R   0.339170 0.509880 0.378660 -0.628912
O8    O     O_R   0.480330 0.464900 0.339970 -0.532495
O9    O     O_3   0.787596 0.508592 0.150086 -0.541341
C49   C     C_3   0.815712 0.621784 0.169938 0.079357
H14   H     H_    0.790774 0.650929 0.101562 0.111325
H15   H     H_    0.922457 0.679218 0.213825 0.244594
C50   C     C_3   0.734943 0.631828 0.226481 -0.634282
H16   H     H_    0.628458 0.580866 0.178071 0.255402
H17   H     H_    0.752578 0.599677 0.293765 0.270014
H18   H     H_    0.761673 0.721552 0.248431 0.182897
F1    F     F_    0.279783 0.340605 0.963102 -0.682525
O10   O     O_3   0.296669 0.126483 0.317359 -0.545477
C51   C     C_3   0.223103 0.143642 0.231182 0.091157
H19   H     H_    0.244846 0.232468 0.247191 0.125724
H20   H     H_    0.114051 0.085900 0.204940 0.131983
C52   C     C_3   0.262961 0.122770 0.145966 -0.650174
H21   H     H_    0.236257 0.032757 0.126236 0.239884
H22   H     H_    0.210605 0.141558 0.079423 0.212540
H23   H     H_    0.370877 0.177629 0.167822 0.279324
O11   O     O_3   0.029210 0.754879 0.387452 -0.580187
C53   C     C_3   0.162718 0.787290 0.440219 0.145326
H24   H     H_    0.177462 0.776933 0.516250 0.144716
H25   H     H_    0.234904 0.876889 0.449126 0.148602
C54   C     C_3   0.197285 0.714491 0.384575 -0.766425
H26   H     H_    0.196824 0.735476 0.312503 0.268700
H27   H     H_    0.296955 0.730400 0.429989 0.205384
H28   H     H_    0.123899 0.623535 0.368518 0.219028
F2    F     F_    0.119053 0.902648 0.282783 -0.660141
O12   O     O_3   0.189258 0.208966 0.596593 -0.538951
C55   C     C_3   0.281024 0.202122 0.678219 0.020387
H29   H     H_    0.382946 0.259903 0.683679 0.147472
H30   H     H_    0.264503 0.114483 0.672852 0.127978
C56   C     C_3   0.268337 0.239080 0.773364 -0.569450
H31   H     H_    0.170877 0.176864 0.772895 0.232751
H32   H     H_    0.347791 0.244301 0.839096 0.228383
H33   H     H_    0.276264 0.323261 0.778925 0.301898
O13   O     O_3   0.777651 0.108315 0.606532 -0.574363
C57   C     C_3   0.699023 0.126840 0.524802 0.023323
H34   H     H_    0.604291 0.046660 0.480554 0.152649
H35   H     H_    0.752222 0.161830 0.475260 0.142030
C58   C     C_3   0.666832 0.212152 0.563484 -0.698239
H36   H     H_    0.758787 0.295130 0.603546 0.261520
H37   H     H_    0.600683 0.223349 0.499670 0.231784
H38   H     H_    0.616187 0.181345 0.615033 0.235415
O14   O     O_3   0.313632 0.788703 0.728816 -0.594670
C59   C     C_3   0.322538 0.767284 0.823377 0.080223
H39   H     H_    0.326059 0.688819 0.830803 0.141933
H40   H     H_    0.236100 0.759090 0.837882 0.168007
C60   C     C_3   0.446325 0.867127 0.903425 -0.822381
H41   H     H_    0.444535 0.946502 0.897812 0.260645
H42   H     H_    0.451217 0.854665 0.978607 0.204821
H43   H     H_    0.535326 0.874816 0.893701 0.239865
O15   O     O_3   0.106777 0.379934 0.470584 -0.540281
C61   C     C_3   0.084729 0.343780 0.369153 0.184881
H44   H     H_    0.163535 0.331923 0.361314 0.168208
H45   H     H_    0.081617 0.403899 0.324117 0.072132
C62   C     C_3   0.964001 0.225190 0.323873 -0.925258
H46   H     H_    0.935329 0.200452 0.241981 0.198035
H47   H     H_    0.986863 0.163125 0.355870 0.248596
H48   H     H_    0.881235 0.220486 0.341638 0.248851
O16   O     O_3   0.669791 0.307536 0.202329 -0.512359
C63   C     C_3   0.707628 0.234165 0.168198 0.075857
H49   H     H_    0.692067 0.166751 0.208685 0.126661
H50   H     H_    0.811458 0.282435 0.174993 0.154870
C64   C     C_3   0.621995 0.176600 0.058010 -0.748085
H51   H     H_    0.633177 0.241058 0.014705 0.261682
H52   H     H_    0.652610 0.120055 0.029580 0.191212
H53   H     H_    0.516682 0.125426 0.047371 0.246444
F3    F     F_    0.428394 0.388385 0.156760 -0.644128
O17   O     O_3   0.497585 0.511882 0.828276 -0.547718
C65   C     C_3   0.532440 0.618384 0.884364 0.094969
H54   H     H_    0.504508 0.664149 0.831164 0.159799
H55   H     H_    0.640183 0.675463 0.930447 0.111016
C66   C     C_3   0.456325 0.601146 0.952048 -0.799349
H56   H     H_    0.486390 0.560245 0.009186 0.260073
H57   H     H_    0.477289 0.684206 0.991189 0.193499
H58   H     H_    0.348756 0.547010 0.907179 0.266503
F4    F     F_    0.854859 0.512349 0.760160 -0.698947

loop_
_geom_bond_atom_site_label_1
_geom_bond_atom_site_label_2
_ccdc_geom_bond_type
C27   H3    S    
C12   O4    A    
C55   H29   S    
Cu1   O3    S    
C42   N1    A    
C17   C29   A    
C54   H26   S    
C65   C66   S    
C51   C52   S    
C4    C8    A    
C62   H46   S    
C56   H32   S    
C66   H56   S    
C54   H28   S    
C42   O15   S    
O13   C57   S    
C12   O3    A    
Cu2   O6    S    
C26   C27   A    
C17   C23   S    
C31   C43   A    
C35   H8    S    
C1    C30   S    
C36   C37   A    
Cu2   O4    S    
C51   H20   S    
C5    C11   A    
C3    C7    A    
C59   H40   S    
C5    C6    A    
C50   H17   S    
O14   C59   S    
C18   C19   A    
C58   H36   S    
C1    O2    A    
C52   H23   S    
C11   C15   A    
C19   C20   A    
C8    C9    A    
C40   H6    S    
Cu1   O7    S    
C37   N2    A    
C18   H1    S    
C61   C62   S    
C18   C30   A    
C48   F4    S    
C14   C45   A    
Cu2   O2    S    
C44   C47   A    
C19   O13   S    
C28   O12   S    
C55   H30   S    
Cu1   N1    S    
C13   C14   A    
C23   O5    A    
O17   C65   S    
C32   H7    S    
C64   H53   S    
C49   C50   S    
C58   H37   S    
C56   H31   S    
C66   H57   S    
C60   H42   S    
C43   N1    A    
C7    O9    S    
Cu1   O1    S    
C46   H11   S    
C23   O6    A    
C51   H19   S    
C41   H9    S    
C64   H52   S    
O9    C49   S    
C57   C58   S    
O11   C53   S    
C50   H16   S    
O16   C63   S    
C34   O8    A    
C2    C48   A    
C16   C29   A    
C13   F1    S    
C53   C54   S    
C35   C36   A    
C15   H5    S    
C2    C4    A    
C49   H14   S    
C63   C64   S    
C63   H49   S    
C43   H4    S    
O10   C51   S    
C26   O11   S    
C53   H25   S    
C1    O1    A    
C34   C45   S    
C54   H27   S    
C24   C25   A    
C49   H15   S    
C33   O16   S    
C40   C41   A    
C14   F3    S    
C55   C56   S    
Cu1   O5    S    
C52   H22   S    
C61   H44   S    
C65   H55   S    
C59   C60   S    
C15   C45   A    
C62   H48   S    
C34   O7    A    
C31   O14   S    
C39   C40   A    
C66   H58   S    
C60   H41   S    
C63   H50   S    
C9    C10   A    
C16   C25   A    
C46   C47   A    
C22   C30   A    
C17   C28   A    
C24   C28   A    
C64   H51   S    
C10   C13   A    
C62   H47   S    
C60   H43   S    
C16   F2    S    
C29   O10   S    
C6    C7    A    
C47   O17   S    
C3    C46   A    
C22   C27   A    
C9    H10   S    
C32   C33   A    
C6    H12   S    
C57   H35   S    
C2    C3    A    
C25   C26   A    
C20   H2    S    
C59   H39   S    
C50   H18   S    
C38   C39   A    
Cu2   O8    S    
C36   C38   A    
C53   H24   S    
C33   C35   A    
C31   C39   A    
C58   H38   S    
C37   C41   A    
Cu2   N2    S    
C10   C11   A    
C8    H13   S    
C38   C42   A    
C4    C5    A    
C20   C21   A    
C52   H21   S    
C12   C44   S    
Cu1   Cu2   S    
C21   C24   A    
C57   H34   S    
C61   H45   S    
C65   H54   S    
O15   C61   S    
O12   C55   S    
C21   C22   A    
C56   H33   S    
C44   C48   A    
C32   N2    A    
