data_str_m2_o16_o16_f0_pcu.sym.54
_audit_creation_date              2012-10-26T20:02:35-0400
_audit_creation_method            fapswitch 2.2
_symmetry_space_group_name_H-M    P1
_symmetry_Int_Tables_number       1
_space_group_crystal_system       triclinic
_cell_length_a                    18.889985
_cell_length_b                    18.586697
_cell_length_c                    12.434344
_cell_angle_alpha                 89.944642
_cell_angle_beta                  129.874094
_cell_angle_gamma                 90.046712
_cell_volume                      3350.49883166

loop_
_atom_site_label
_atom_site_type_symbol
_atom_type_description
_atom_site_fract_x
_atom_site_fract_y
_atom_site_fract_z
_atom_type_partial_charge
C1    C     C_R   0.605733 0.894301 0.644306 0.535864
C2    C     C_R   0.673851 0.747578 0.045472 0.009467
C3    C     C_3   0.281523 0.480928 0.920658 -0.357563
C4    C     C_R   0.168809 0.757816 0.037964 -0.000779
C5    C     C_R   0.173856 0.247582 0.045480 0.009470
C6    C     C_R   0.589254 0.223186 0.925864 -0.103856
C7    C     C_R   0.594325 0.782959 0.935079 -0.084327
C8    C     C_R   0.089227 0.723213 0.925818 -0.103858
C9    C     C_R   0.094330 0.282963 0.935087 -0.084325
C10   C     C_R   0.577837 0.205408 0.807055 0.115469
C11   C     C_R   0.579127 0.797054 0.811970 0.127450
C12   C     C_R   0.077818 0.705422 0.807021 0.115460
C13   C     C_R   0.607684 0.104740 0.646837 0.527447
C14   C     C_R   0.079132 0.297056 0.811977 0.127469
C15   C     C_R   0.309322 0.822299 0.135668 -0.163840
C16   C     C_R   0.306562 0.174965 0.131884 -0.159896
C17   C     C_R   0.809344 0.322278 0.135703 -0.163876
C18   C     C_R   0.806560 0.674963 0.131880 -0.159897
C19   C     C_R   0.252788 0.816650 0.264260 0.073570
C20   C     C_R   0.259978 0.189469 0.272753 0.084926
C21   C     C_R   0.752806 0.316635 0.264291 0.073577
C22   C     C_R   0.759974 0.689467 0.272747 0.084927
C23   C     C_R   0.660404 0.171678 0.717445 -0.047848
C24   C     C_R   0.105735 0.394301 0.644307 0.535861
C25   C     C_R   0.656791 0.826486 0.712893 -0.045375
C26   C     C_R   0.160398 0.671682 0.717436 -0.047849
C27   C     C_R   0.156795 0.326487 0.712898 -0.045375
C28   C     C_R   0.680324 0.034662 0.285916 0.279652
C29   C     C_R   0.180334 0.534645 0.285928 0.279587
C30   C     C_R   0.340994 0.996107 0.620992 0.407777
C31   C     C_R   0.840995 0.496109 0.620993 0.407781
C32   C     C_R   0.304663 0.997495 0.690603 -0.137653
C33   C     C_R   0.804665 0.497501 0.690605 -0.137649
C34   C     C_R   0.385473 0.100518 0.344323 0.548919
C35   C     C_R   0.107683 0.604741 0.646834 0.527444
C36   C     C_R   0.385400 0.899469 0.344319 0.546785
C37   C     C_R   0.885472 0.600518 0.344321 0.548918
C38   C     C_R   0.885402 0.399467 0.344323 0.546788
C39   C     C_R   0.360936 0.006051 0.835144 0.060736
C40   C     C_R   0.860939 0.506059 0.835147 0.060744
C41   C     C_R   0.457979 0.009532 0.917795 -0.010446
C42   C     C_R   0.957983 0.509537 0.917798 -0.010443
C43   C     C_R   0.494439 0.008832 0.844518 0.098999
C44   C     C_R   0.994441 0.508832 0.844520 0.098999
C45   C     C_R   0.521145 0.014193 0.070024 -0.045643
C46   C     C_R   0.236096 0.779561 0.027649 0.009829
C47   C     C_R   0.021149 0.514194 0.070027 -0.045622
C48   C     C_R   0.612801 0.035349 0.139039 -0.039588
C49   C     C_R   0.112810 0.535340 0.139049 -0.039640
C50   C     C_R   0.640068 0.050810 0.062240 -0.147758
C51   C     C_R   0.140080 0.550797 0.062253 -0.147793
C52   C     C_R   0.592137 0.021724 0.928072 0.287737
C53   C     C_R   0.092143 0.521720 0.928076 0.287765
C54   C     C_R   0.499768 0.998474 0.159013 0.019798
C55   C     C_R   0.999768 0.498480 0.159014 0.019803
C56   C     C_R   0.656677 0.011194 0.364998 0.257255
C57   C     C_R   0.237041 0.221841 0.029354 0.008177
C58   C     C_R   0.156679 0.511181 0.365001 0.257282
C59   C     C_R   0.678855 0.274604 0.156880 -0.145345
C60   C     C_R   0.687466 0.733529 0.168212 -0.127130
C61   C     C_R   0.178819 0.774641 0.156825 -0.145459
C62   C     C_R   0.187471 0.233533 0.168220 -0.127125
C63   C     C_R   0.315637 0.844412 0.249512 0.029546
C64   C     C_R   0.316861 0.156401 0.250671 0.029022
C65   C     C_R   0.815650 0.344400 0.249535 0.029511
C66   C     C_R   0.816859 0.656399 0.250667 0.029022
C67   C     C_R   0.723386 0.194255 0.700119 -0.105795
C68   C     C_R   0.736122 0.279535 0.027691 0.009786
C69   C     C_R   0.718238 0.802798 0.693237 -0.141731
C70   C     C_R   0.223384 0.694257 0.700114 -0.105784
C71   C     C_R   0.218245 0.302802 0.693248 -0.141730
C72   C     C_R   0.284391 0.750339 0.779781 0.094923
C73   C     C_R   0.283322 0.249959 0.779492 0.082615
C74   C     C_R   0.784400 0.250332 0.779797 0.094922
C75   C     C_R   0.783311 0.749952 0.779476 0.082614
C76   C     C_R   0.289480 0.779532 0.888330 -0.108256
C77   C     C_R   0.291301 0.223480 0.891513 -0.085242
C78   C     C_R   0.789499 0.279516 0.888360 -0.108250
C79   C     C_R   0.737036 0.721838 0.029347 0.008173
C80   C     C_R   0.791293 0.723475 0.891500 -0.085248
C81   C     C_R   0.728051 0.256956 0.910614 -0.007645
C82   C     C_R   0.728029 0.743954 0.911287 -0.017957
C83   C     C_R   0.228030 0.756974 0.910580 -0.007639
C84   C     C_R   0.228035 0.243958 0.911296 -0.017950
C85   C     C_R   0.654332 0.210499 0.810108 0.027950
C86   C     C_R   0.653249 0.789540 0.809837 0.034521
C87   C     C_R   0.154318 0.710511 0.810082 0.027951
C88   C     C_R   0.153254 0.289543 0.809844 0.034532
C89   C     C_3   0.796646 0.116627 0.406652 -0.010340
C90   C     C_R   0.668841 0.257783 0.038014 -0.000785
C91   C     C_3   0.884562 0.138802 0.434416 -0.367384
C92   C     C_3   0.296642 0.616609 0.406523 -0.010466
C93   C     C_3   0.384874 0.638582 0.435079 -0.367252
C94   C     C_3   0.190935 0.003274 0.398877 -0.018811
C95   C     C_3   0.142997 0.007944 0.243427 -0.361571
C96   C     C_3   0.690934 0.503274 0.398879 -0.018803
C97   C     C_3   0.642995 0.507943 0.243428 -0.361572
C98   C     C_3   0.736849 0.012913 0.976865 -0.011315
C99   C     C_3   0.781525 0.980921 0.920680 -0.357559
C100  C     C_3   0.236851 0.512913 0.976855 -0.011313
Cu1   Cu    Cu3+1 0.526340 1.000000 0.421010 0.901465
Cu2   Cu    Cu3+1 0.026340 0.500000 0.421010 0.901457
Cu3   Cu    Cu3+1 0.473640 0.000000 0.578990 1.041585
Cu4   Cu    Cu3+1 0.973640 0.500000 0.578990 1.041581
H1    H     H_    0.707111 0.074986 0.116881 0.139761
H2    H     H_    0.040704 0.294908 0.940706 0.099731
H3    H     H_    0.628370 0.255886 0.165730 0.100769
H4    H     H_    0.640817 0.755846 0.182226 0.101303
H5    H     H_    0.128331 0.755926 0.165670 0.100766
H6    H     H_    0.140823 0.255851 0.182235 0.101305
H7    H     H_    0.362309 0.839809 0.132827 0.122574
H8    H     H_    0.352099 0.150239 0.119156 0.136466
H9    H     H_    0.862329 0.339790 0.132860 0.122588
H10   H     H_    0.852099 0.650240 0.119155 0.136467
H11   H     H_    0.725820 0.168203 0.624604 0.132750
H12   H     H_    0.207130 0.574964 0.116903 0.139705
H13   H     H_    0.718288 0.826858 0.614012 0.124237
H14   H     H_    0.225824 0.668199 0.624611 0.132752
H15   H     H_    0.218295 0.326861 0.614022 0.124233
H16   H     H_    0.340540 0.820701 0.950884 0.096254
H17   H     H_    0.347778 0.187034 0.960146 0.137386
H18   H     H_    0.840565 0.320680 0.950924 0.096254
H19   H     H_    0.847768 0.687027 0.960129 0.137390
H20   H     H_    0.275767 0.781282 0.437661 0.230853
H21   H     H_    0.201094 0.850167 0.356135 0.231798
H22   H     H_    0.290606 0.228746 0.448885 0.231698
H23   H     H_    0.432317 0.982299 0.118851 0.186239
H24   H     H_    0.212871 0.161647 0.373788 0.213503
H25   H     H_    0.775781 0.281310 0.437714 0.230876
H26   H     H_    0.701078 0.350171 0.356106 0.231773
H27   H     H_    0.790599 0.728744 0.448876 0.231700
H28   H     H_    0.712866 0.661645 0.373780 0.213501
H29   H     H_    0.809203 0.118133 0.507108 0.154674
H30   H     H_    0.742266 0.156655 0.333065 0.113389
H31   H     H_    0.904284 0.194034 0.478006 0.120578
H32   H     H_    0.873275 0.138066 0.335055 0.142780
H33   H     H_    0.941528 0.101339 0.510634 0.166042
H34   H     H_    0.932315 0.482312 0.118850 0.186244
H35   H     H_    0.308776 0.618286 0.506642 0.154456
H36   H     H_    0.242420 0.656635 0.332537 0.113561
H37   H     H_    0.404530 0.693862 0.478433 0.120550
H38   H     H_    0.374034 0.637630 0.336085 0.142809
H39   H     H_    0.441694 0.601134 0.511761 0.166103
H40   H     H_    0.178582 0.054623 0.430412 0.109251
H41   H     H_    0.159818 0.957594 0.413580 0.117089
H42   H     H_    0.151209 0.956719 0.206685 0.162717
H43   H     H_    0.068290 0.018528 0.182410 0.086097
H44   H     H_    0.173079 0.052088 0.223993 0.172271
H45   H     H_    0.231331 0.994152 0.633922 0.087816
H46   H     H_    0.678579 0.554624 0.430411 0.109243
H47   H     H_    0.659820 0.457594 0.413586 0.117094
H48   H     H_    0.651210 0.456719 0.206688 0.162718
H49   H     H_    0.568287 0.518524 0.182411 0.086094
H50   H     H_    0.673073 0.552089 0.223990 0.172268
H51   H     H_    0.275475 0.972986 0.870496 0.229517
H52   H     H_    0.273185 0.062580 0.843954 0.241118
H53   H     H_    0.775479 0.472998 0.870502 0.229515
H54   H     H_    0.773187 0.562591 0.843951 0.241110
H55   H     H_    0.772431 0.988435 0.081987 0.141125
H56   H     H_    0.731332 0.494161 0.633926 0.087810
H57   H     H_    0.748235 0.072118 0.984924 0.120737
H58   H     H_    0.746003 0.999747 0.812315 0.167599
H59   H     H_    0.854860 0.997981 0.987915 0.084492
H60   H     H_    0.779567 0.921377 0.923088 0.153507
H61   H     H_    0.272438 0.488430 0.081974 0.141119
H62   H     H_    0.248235 0.572118 0.984921 0.120751
H63   H     H_    0.245995 0.499755 0.812292 0.167605
H64   H     H_    0.354856 0.497993 0.987886 0.084490
H65   H     H_    0.279572 0.421384 0.923067 0.153501
H66   H     H_    0.389920 0.734842 0.779984 0.235103
H67   H     H_    0.533104 0.213859 0.926945 0.143886
H68   H     H_    0.380290 0.820659 0.812856 0.225276
H69   H     H_    0.305919 0.201260 0.659476 0.240180
H70   H     H_    0.378442 0.270004 0.757559 0.242965
H71   H     H_    0.889925 0.234839 0.779990 0.235088
H72   H     H_    0.880298 0.320654 0.812875 0.225279
H73   H     H_    0.805898 0.701247 0.659454 0.240177
H74   H     H_    0.878422 0.769992 0.757522 0.242958
H75   H     H_    0.457253 0.149235 0.683406 0.279276
H76   H     H_    0.480877 0.197316 0.591584 0.247568
H77   H     H_    0.478730 0.805002 0.597066 0.234265
H78   H     H_    0.540699 0.794905 0.940698 0.099733
H79   H     H_    0.458750 0.853651 0.692168 0.283103
H80   H     H_    0.957245 0.649237 0.683383 0.279284
H81   H     H_    0.980866 0.697313 0.591553 0.247569
H82   H     H_    0.978736 0.305003 0.597074 0.234256
H83   H     H_    0.958753 0.353650 0.692173 0.283094
H84   H     H_    0.727791 0.023986 0.575726 0.247992
H85   H     H_    0.724260 0.938345 0.522659 0.238007
H86   H     H_    0.227783 0.523964 0.575728 0.248005
H87   H     H_    0.224256 0.438326 0.522652 0.237988
H88   H     H_    0.033075 0.713886 0.926896 0.143887
N1    N     N_R   0.566260 1.000000 0.302220 -0.271291
N2    N     N_3   0.816503 0.517850 0.893149 -0.669505
N3    N     N_3   0.342648 0.775672 0.751293 -0.630974
N4    N     N_3   0.345252 0.225218 0.758385 -0.647510
N5    N     N_3   0.842655 0.275669 0.751306 -0.630995
N6    N     N_3   0.845235 0.725208 0.758360 -0.647513
N7    N     N_3   0.484684 0.196901 0.679130 -0.617595
N8    N     N_3   0.484883 0.805588 0.686663 -0.625392
N9    N     N_3   0.984670 0.696903 0.679096 -0.617596
N10   N     N_3   0.984888 0.305588 0.686670 -0.625398
N11   N     N_3   0.729737 0.992758 0.508577 -0.595274
N12   N     N_R   0.066260 0.500000 0.302220 -0.271304
N13   N     N_3   0.229735 0.492741 0.508580 -0.595162
N14   N     N_R   0.434410 0.000000 0.697680 -0.243360
N15   N     N_R   0.934410 0.500000 0.697680 -0.243362
N16   N     N_3   0.263540 0.830405 0.387360 -0.572790
N17   N     N_3   0.274895 0.178704 0.399916 -0.607821
N18   N     N_3   0.763537 0.330419 0.387365 -0.572790
N19   N     N_3   0.774890 0.678702 0.399909 -0.607818
N20   N     N_3   0.316500 0.017838 0.893147 -0.669498
O1    O     O_R   0.608610 0.924520 0.551740 -0.524813
O2    O     O_R   0.435880 0.924530 0.314850 -0.532649
O3    O     O_R   0.935880 0.575470 0.314850 -0.517190
O4    O     O_R   0.935880 0.424530 0.314850 -0.532643
O5    O     O_R   0.391380 0.075460 0.448260 -0.436181
O6    O     O_R   0.391380 0.924540 0.448260 -0.422266
O7    O     O_R   0.891380 0.575460 0.448260 -0.436181
O8    O     O_R   0.891380 0.424540 0.448260 -0.422264
O9    O     O_3   0.772302 0.046316 0.350731 -0.556540
O10   O     O_3   0.272320 0.546267 0.350760 -0.556483
O11   O     O_3   0.286214 0.991368 0.475445 -0.482585
O12   O     O_R   0.608610 0.075480 0.551740 -0.528535
O13   O     O_3   0.786213 0.491370 0.475445 -0.482575
O14   O     O_3   0.640754 0.997480 0.885562 -0.490412
O15   O     O_3   0.140756 0.497478 0.885559 -0.490409
O16   O     O_R   0.108610 0.424520 0.551740 -0.524824
O17   O     O_R   0.108610 0.575480 0.551740 -0.528543
O18   O     O_R   0.564110 0.924510 0.685150 -0.434802
O19   O     O_R   0.564110 0.075490 0.685150 -0.454567
O20   O     O_R   0.064110 0.424510 0.685150 -0.434802
O21   O     O_R   0.064110 0.575490 0.685150 -0.454567
O22   O     O_R   0.435880 0.075470 0.314850 -0.517189

loop_
_geom_bond_atom_site_label_1
_geom_bond_atom_site_label_2
_ccdc_geom_bond_type
C83   C87   A    
C10   C85   A    
H70   N4    S    
H52   N20   S    
C2    C7    A    
C24   C27   S    
H72   N5    S    
C4    C8    A    
C61   H5    S    
C10   N7    S    
C18   H10   S    
C72   N3    S    
C28   C56   A    
C34   O5    A    
C3    H63   S    
C39   C41   A    
C56   N11   S    
C29   C49   A    
H85   N11   S    
C7    C11   A    
H28   N19   S    
H83   N10   S    
C13   C23   S    
C5    C9    A    
H54   N2    S    
C55   H34   S    
C27   C88   A    
C68   C81   A    
H51   N20   S    
C70   H14   S    
C21   C59   A    
C22   C60   A    
H66   N3    S    
C19   C61   A    
C2    C60   A    
C43   C52   A    
Cu4   O20   S    
C55   N12   A    
C11   C86   A    
C23   C67   A    
C30   N14   A    
C21   N18   S    
H82   N10   S    
C100  H62   S    
H87   N13   S    
C32   C39   A    
H81   N9    S    
Cu2   N12   S    
C11   N8    S    
H71   N5    S    
C89   O9    S    
C67   H11   S    
C2    C79   A    
C36   O2    A    
C91   H33   S    
C44   C53   A    
C22   C66   A    
C91   H32   S    
Cu1   O1    S    
C26   C87   A    
C49   C51   A    
C62   H6    S    
C39   N20   S    
Cu2   O17   S    
C50   C52   A    
Cu3   N14   S    
C69   C75   A    
C35   O21   A    
C97   H49   S    
C89   C91   S    
C36   C63   S    
C75   C80   A    
C74   C78   A    
C60   H4    S    
C33   H56   S    
C72   C76   A    
C42   C47   A    
C94   H41   S    
C40   C42   A    
H74   N6    S    
C58   N12   A    
Cu1   Cu3   S    
C54   N1    A    
C37   C66   S    
C43   N14   A    
C1    C25   S    
C41   C43   A    
C18   C79   A    
C95   H42   S    
C42   C44   A    
C78   H18   S    
C3    C100  S    
C76   C83   A    
Cu2   O16   S    
Cu1   N1    S    
C3    H64   S    
C6    H67   S    
Cu3   O19   S    
C29   O10   S    
C33   C40   A    
C89   H29   S    
C31   C33   A    
C32   H45   S    
C17   H9    S    
H53   N2    S    
C38   O8    A    
C95   H43   S    
C99   H60   S    
C47   C49   A    
C36   O6    A    
C71   C73   A    
C28   O9    S    
C51   H12   S    
C4    C46   A    
C77   C84   A    
C9    H2    S    
C6    C90   A    
C96   H47   S    
C4    C61   A    
C44   N15   A    
C59   H3    S    
C56   N1    A    
C27   C71   A    
C100  H61   S    
C51   C53   A    
C59   C90   A    
C20   C64   A    
C100  O15   S    
C9    C14   A    
Cu4   O7    S    
C31   N15   A    
C52   O14   S    
C15   H7    S    
H24   N17   S    
C13   O19   A    
C99   H58   S    
C26   C35   S    
H86   N13   S    
C68   C90   A    
Cu4   N15   S    
C38   C65   S    
Cu1   O2    S    
C8    C12   A    
C40   N2    S    
C22   N19   S    
H69   N4    S    
C34   C64   S    
C57   C84   A    
C67   C74   A    
C76   H16   S    
C12   N9    S    
C29   C58   A    
Cu2   Cu4   S    
H27   N19   S    
C19   C63   A    
Cu3   O5    S    
C99   H59   S    
Cu1   O12   S    
C80   C82   A    
Cu4   O21   S    
C45   C54   A    
C1    O18   A    
H73   N6    S    
C31   O13   S    
C1    O1    A    
C94   O11   S    
C26   C70   A    
C25   C86   A    
H26   N18   S    
C25   C69   A    
C37   O7    A    
C13   O12   A    
C92   H36   S    
C98   H57   S    
C93   H37   S    
C96   C97   S    
C16   H8    S    
C47   C55   A    
H77   N8    S    
C45   C48   A    
Cu2   O4    S    
C7    H78   S    
C15   C63   A    
C28   C48   A    
C17   C68   A    
C73   C77   A    
C89   H30   S    
H21   N16   S    
C12   C87   A    
C21   C65   A    
C3    H65   S    
C95   H44   S    
C84   C88   A    
C38   O4    A    
C24   O20   A    
H22   N17   S    
C93   H39   S    
C97   H50   S    
C6    C10   A    
C79   C82   A    
C30   O11   S    
H80   N9    S    
C71   H15   S    
C18   C66   A    
C54   H23   S    
H84   N11   S    
C17   C65   A    
H79   N8    S    
C58   N13   S    
C5    C57   A    
C94   H40   S    
C96   O13   S    
C92   O10   S    
C14   C88   A    
H76   N7    S    
C82   C86   A    
C53   O15   S    
C30   C32   A    
C69   H13   S    
C78   C81   A    
C19   N16   S    
C50   H1    S    
H75   N7    S    
Cu3   O18   S    
C96   H46   S    
C14   N10   S    
C48   C50   A    
C92   C93   S    
C97   H48   S    
C5    C62   A    
Cu4   O8    S    
C16   C57   A    
C20   C62   A    
C94   C95   S    
C8    H88   S    
C81   C85   A    
C77   H17   S    
C74   N5    S    
Cu3   O6    S    
C46   C83   A    
C75   N6    S    
Cu2   O3    S    
C91   H31   S    
C98   H55   S    
C20   N17   S    
C98   C99   S    
C23   C85   A    
C73   N4    S    
Cu1   O22   S    
C41   C45   A    
H68   N3    S    
C70   C72   A    
C16   C64   A    
C15   C46   A    
C35   O17   A    
H25   N18   S    
C24   O16   A    
C92   H35   S    
C37   O3    A    
H20   N16   S    
C93   H38   S    
C98   O14   S    
C80   H19   S    
C34   O22   A    
