data_str_m3_o10_o14_f0_pcu.sym.139
_audit_creation_date              2013-03-05T15:40:25-0500
_audit_creation_method            fapswitch 2.2
_symmetry_space_group_name_H-M    P1
_symmetry_Int_Tables_number       1
_space_group_crystal_system       triclinic
_cell_length_a                    7.813387
_cell_length_b                    8.580161
_cell_length_c                    10.532724
_cell_angle_alpha                 91.703217
_cell_angle_beta                  85.990299
_cell_angle_gamma                 93.29704
_cell_volume                      702.98654101

loop_
_atom_site_label
_atom_site_type_symbol
_atom_site_description
_atom_site_fract_x
_atom_site_fract_y
_atom_site_fract_z
_atom_type_partial_charge
O1    O     O_R   0.389250 0.738570 0.508280 -0.632088
O2    O     O_R   0.678390 0.711630 0.486650 -0.548905
C1    C     C_R   0.545305 0.794435 0.496764 0.965832
O3    O     O_R   0.355400 0.513470 0.694050 -0.583374
O4    O     O_R   0.644540 0.486530 0.672420 -0.611304
C2    C     C_R   0.495248 0.478149 0.739331 0.891848
Zn1   Zn    Zn3+2 0.306930 0.517990 0.514440 1.019248
Zn2   Zn    Zn3+2 0.693070 0.482010 0.485560 1.055568
O5    O     O_R   0.321610 0.288370 0.513350 -0.623298
O6    O     O_R   0.610750 0.261430 0.491720 -0.606259
O7    O     O_R   0.355460 0.513470 0.327580 -0.607295
O8    O     O_R   0.644600 0.486530 0.305950 -0.596329
C3    C     C_R   0.454656 0.205516 0.503202 0.955798
C4    C     C_R   0.491820 0.467022 0.262557 0.895544
H1    H     H_    0.720327 0.324219 0.863990 0.189279
C5    C     C_R   0.149481 0.443225 0.891591 0.530120
C6    C     C_R   0.017427 0.507580 0.969633 -0.352901
H2    H     H_    0.901998 0.542495 0.930186 0.170858
C7    C     C_R   0.019759 0.494287 0.100148 -0.122021
H3    H     H_    0.905760 0.515930 0.160131 0.194546
C8    C     C_R   0.154342 0.420010 0.147261 0.544682
C9    C     C_R   0.313738 0.420587 0.075300 -0.148329
C10   C     C_R   0.312715 0.429517 0.942797 0.033423
C11   C     C_R   0.473752 0.423693 0.870037 -0.140955
C12   C     C_R   0.611127 0.359861 0.924311 -0.294629
C13   C     C_R   0.606610 0.341188 0.055987 0.304923
C14   C     C_R   0.470974 0.406390 0.131279 -0.239877
C15   C     C_2   0.569220 0.957764 0.494880 -0.314393
H4    H     H_    0.700374 0.008018 0.485232 0.203538
C16   C     C_2   0.430688 0.042226 0.504945 -0.348705
H5    H     H_    0.299525 0.992005 0.514547 0.187392
N1    N     N_2   0.950330 0.457950 0.466250 -0.047923
H6    H     H_    0.994586 0.349069 0.447314 0.220234
N2    N     N_2   0.049670 0.542050 0.533750 0.095712
O9    O     O_3   0.981388 0.671679 0.583374 -0.634652
H7    H     H_    0.077621 0.730861 0.622450 0.347490
O10   O     O_3   0.110503 0.364671 0.779764 -0.719747
H8    H     H_    0.991196 0.384116 0.760885 0.331582
O11   O     O_3   0.117800 0.323438 0.248347 -0.752124
H9    H     H_    0.210256 0.249309 0.251120 0.336358
N3    N     N_R   0.726654 0.243807 0.109181 0.215022
O12   O     O_R   0.695278 0.190265 0.223183 -0.386844
O13   O     O_R   0.845718 0.180556 0.035446 -0.377046

loop_
_geom_bond_atom_site_label_1
_geom_bond_atom_site_label_2
_geom_bond_distance
_ccdc_geom_bond_type
O4    Zn2   1.977793 S    
C10   C11   1.429369 A    
O10   H8    0.991033 S    
C4    C14   1.479207 S    
N3    O12   1.300625 A    
C7    H3    1.077207 S    
C8    O11   1.372751 S    
C5    O10   1.383364 S    
Zn2   O8    1.957043 S    
C2    C11   1.462425 S    
N1    H6    1.023987 S    
C15   C16   1.333274 D    
C6    H2    1.080130 S    
O7    C4    1.301383 A    
C8    C9    1.411762 A    
Zn1   O7    1.977793 S    
N3    O13   1.301961 A    
C13   C14   1.410419 A    
O4    C2    1.319433 A    
O3    Zn1   1.957043 S    
Zn2   O6    1.965028 S    
C15   H4    1.087927 S    
C6    C7    1.384253 A    
O8    C4    1.307925 A    
O2    C1    1.289339 A    
C5    C10   1.431300 A    
C9    C14   1.412302 A    
C16   H5    1.087883 S    
Zn1   N2    2.027912 S    
H1    C12   1.080654 S    
Zn2   N1    2.027912 S    
C3    C16   1.403296 S    
C11   C12   1.396743 A    
O3    C2    1.277826 A    
N2    O9    1.337755 S    
O11   H9    0.992044 S    
Zn1   O5    1.979735 S    
O5    C3    1.289339 A    
C9    C10   1.400595 A    
C1    C15   1.403650 S    
C7    C8    1.388168 A    
C12   C13   1.398619 A    
O1    Zn1   1.965028 S    
O2    Zn2   1.979735 S    
O9    H7    0.989721 S    
C13   N3    1.443356 S    
C5    C6    1.401817 A    
O1    C1    1.283257 A    
O6    C3    1.283658 A    
N1    N2    1.269200 D    
