data_str_m2_o4_o18_f0_pcu.sym.82
_audit_creation_date              2012-10-26T21:24:52-0400
_audit_creation_method            fapswitch 2.2
_symmetry_space_group_name_H-M    P1
_symmetry_Int_Tables_number       1
_space_group_crystal_system       triclinic
_cell_length_a                    9.553411
_cell_length_b                    10.843018
_cell_length_c                    15.549925
_cell_angle_alpha                 89.073691
_cell_angle_beta                  74.092099
_cell_angle_gamma                 89.846686
_cell_volume                      1548.89030984

loop_
_atom_site_label
_atom_site_type_symbol
_atom_type_description
_atom_site_fract_x
_atom_site_fract_y
_atom_site_fract_z
_atom_type_partial_charge
C1    C     C_R   0.999838 0.262475 0.500838 0.586589
C2    C     C_R   0.230175 0.423063 0.049279 0.047615
C3    C     C_R   0.329821 0.465224 0.095094 0.035355
C4    C     C_R   0.917840 0.500234 0.671945 0.581586
C5    C     C_R   0.082665 0.407026 0.094900 -0.137451
C6    C     C_R   0.032019 0.434699 0.185322 -0.098044
C7    C     C_R   0.274667 0.498121 0.185168 -0.121726
C8    C     C_R   0.116079 0.062581 0.515562 0.018089
C9    C     C_R   0.002181 0.129449 0.497124 0.047794
C10   C     C_R   0.895018 0.066023 0.469013 -0.136843
C11   C     C_R   0.895398 0.937585 0.468174 -0.105710
C12   C     C_R   0.675758 0.477228 0.908405 0.041299
C13   C     C_R   0.004113 0.871127 0.493930 0.028767
C14   C     C_R   0.119139 0.935669 0.511647 -0.027843
C15   C     C_3   0.183245 0.922471 0.588804 -0.235862
C16   C     C_R   0.000337 0.737672 0.499309 0.568404
C17   C     C_3   0.178207 0.062369 0.594524 0.129350
C18   C     C_R   0.603531 0.558347 0.432687 0.195406
C19   C     C_R   0.547185 0.432784 0.561374 -0.023717
C20   C     C_R   0.398333 0.432939 0.561461 -0.017435
C21   C     C_R   0.456107 0.557279 0.432431 0.110663
C22   C     C_3   0.457996 0.689864 0.406436 -0.224865
C23   C     C_R   0.777876 0.504096 0.956683 0.042973
C24   C     C_3   0.615378 0.693245 0.409632 0.136870
C25   C     C_R   0.082098 0.496975 0.328081 0.574221
C26   C     C_R   0.872162 0.498907 0.769981 0.037674
C27   C     C_R   0.128163 0.480120 0.230897 0.025035
C28   C     C_R   0.924901 0.524469 0.911845 -0.128721
C29   C     C_R   0.972081 0.520786 0.819066 -0.102284
C30   C     C_R   0.725612 0.477159 0.814581 -0.104221
C31   C     C_R   0.527016 0.455615 0.955361 0.037866
C32   C     C_R   0.480597 0.474098 0.049340 0.029604
C33   C     C_R   0.586841 0.497185 0.094988 -0.110127
C34   C     C_R   0.732544 0.511119 0.049262 -0.110531
C35   C     C_R   0.423805 0.414043 0.912041 -0.122134
C36   C     C_R   0.278757 0.396474 0.958659 -0.123468
Cu1   Cu    Cu3+1 0.140670 0.499980 0.500000 0.977503
Cu2   Cu    Cu3+1 0.859330 0.500020 0.500000 1.007681
H1    H     H_    0.810536 0.529144 0.086482 0.164111
H2    H     H_    0.441835 0.702518 0.338698 0.179433
H3    H     H_    0.343330 0.539312 0.221432 0.124395
H4    H     H_    0.385641 0.746649 0.458721 0.119381
H5    H     H_    0.630920 0.750318 0.464850 0.090632
H6    H     H_    0.918731 0.417908 0.219919 0.162326
H7    H     H_    0.203713 0.362964 0.923144 0.141588
H8    H     H_    0.003144 0.545185 0.948525 0.115289
H9    H     H_    0.085878 0.537775 0.785773 0.129995
H10   H     H_    0.651590 0.463956 0.774374 0.114867
H11   H     H_    0.561424 0.500891 0.166761 0.150242
H12   H     H_    0.006972 0.370985 0.060876 0.118836
H13   H     H_    0.452357 0.389867 0.842481 0.114311
H14   H     H_    0.069344 0.971638 0.793795 0.344351
H15   H     H_    0.757219 0.870910 0.202235 0.375468
H16   H     H_    0.808620 0.115096 0.450294 0.142021
H17   H     H_    0.808582 0.891192 0.449792 0.170100
H18   H     H_    0.109590 0.872041 0.646396 0.153938
H19   H     H_    0.296339 0.886868 0.568737 0.099952
H20   H     H_    0.287737 0.105851 0.579006 0.109480
H21   H     H_    0.580351 0.380055 0.612062 0.131608
H22   H     H_    0.320098 0.380562 0.612264 0.156297
N1    N     N_R   0.648210 0.500930 0.499430 -0.262553
N2    N     N_R   0.352300 0.500890 0.499430 -0.247016
O1    O     O_R   0.118810 0.319640 0.500000 -0.488699
O2    O     O_2   0.902665 0.072354 0.704344 -0.288776
O3    O     O_3   0.108876 0.056637 0.784203 -0.499854
O4    O     O_2   0.890992 0.742390 0.311493 -0.278912
O5    O     O_2   0.736913 0.624730 0.239730 -0.347688
O6    O     O_3   0.687877 0.859545 0.262185 -0.530593
O7    O     O_R   0.881230 0.319680 0.499990 -0.513540
O8    O     O_R   0.055580 0.499970 0.629840 -0.488832
O9    O     O_R   0.818000 0.500010 0.629830 -0.520497
O10   O     O_R   0.118770 0.680320 0.500010 -0.515882
O11   O     O_R   0.881190 0.680360 0.500000 -0.492995
O12   O     O_R   0.182000 0.499990 0.370170 -0.516927
O13   O     O_R   0.944420 0.500030 0.370160 -0.453741
O14   O     O_2   0.059496 0.251897 0.699571 -0.266815
S1    S     S_3+6 0.055678 0.113806 0.697013 -0.002577
S2    S     S_3+6 0.739313 0.727486 0.302734 -0.022088

loop_
_geom_bond_atom_site_label_1
_geom_bond_atom_site_label_2
_ccdc_geom_bond_type
Cu1   O12   S    
C18   C21   A    
O2    S1    D    
C19   C20   A    
C16   O10   A    
C4    O8    A    
Cu1   N2    S    
C12   C23   A    
C28   H8    S    
C29   H9    S    
C18   C24   S    
C30   H10   S    
C28   C29   A    
C3    C7    A    
C5    C6    A    
C33   H11   S    
C7    C27   A    
C25   O12   A    
H15   O6    S    
C31   C32   A    
C8    C9    A    
C20   H22   S    
C9    C10   A    
C17   H20   S    
Cu2   N1    S    
Cu2   O7    S    
C6    H6    S    
C21   C22   S    
C15   H19   S    
O5    S2    D    
C1    O1    A    
Cu1   O1    S    
Cu2   O13   S    
O6    S2    S    
O4    S2    D    
O3    S1    S    
C16   O11   A    
C1    C9    S    
O14   S1    D    
C19   H21   S    
C1    O7    A    
C34   H1    S    
C25   O13   A    
C35   C36   A    
Cu1   Cu2   S    
C6    C27   A    
C23   C34   A    
C22   H2    S    
C17   S1    S    
C33   C34   A    
C36   H7    S    
C23   C28   A    
C21   N2    A    
C24   S2    S    
C26   C30   A    
C12   C31   A    
C35   H13   S    
C31   C35   A    
C5    H12   S    
C13   C16   S    
C2    C5    A    
C11   H17   S    
C2    C36   A    
C15   C17   S    
Cu2   O9    S    
C8    C14   A    
C12   C30   A    
C4    C26   S    
C18   N1    A    
C25   C27   S    
C8    C17   S    
Cu1   O8    S    
C15   H18   S    
C2    C3    A    
C32   C33   A    
C11   C13   A    
C22   H4    S    
C19   N1    A    
C22   C24   S    
C7    H3    S    
C20   N2    A    
C3    C32   A    
C10   H16   S    
C10   C11   A    
C26   C29   A    
Cu1   O10   S    
C24   H5    S    
C14   C15   S    
C13   C14   A    
C4    O9    A    
H14   O3    S    
Cu2   O11   S    
