data_str_m9_o17_o18_f0_sra.sym.18
_audit_creation_date              2012-12-11T15:18:31-0500
_audit_creation_method            fapswitch 2.2
_symmetry_space_group_name_H-M    P1
_symmetry_Int_Tables_number       1
_space_group_crystal_system       triclinic
_cell_length_a                    6.929632
_cell_length_b                    19.967822
_cell_length_c                    23.841328
_cell_angle_alpha                 93.446407
_cell_angle_beta                  90.782536
_cell_angle_gamma                 88.168184
_cell_volume                      3291.03967359

loop_
_atom_site_label
_atom_site_type_symbol
_atom_type_description
_atom_site_fract_x
_atom_site_fract_y
_atom_site_fract_z
_atom_type_partial_charge
O1    O     O_R   0.620100 0.812200 0.810870 -0.540092
O2    O     O_R   0.379900 0.187800 0.189130 -0.538601
O3    O     O_R   0.296960 0.671650 0.794750 -0.539043
O4    O     O_R   0.703040 0.328350 0.205250 -0.539264
O5    O     O_R   0.120160 0.687800 0.689130 -0.532405
O6    O     O_R   0.879840 0.312200 0.310870 -0.539799
C1    C     C_R   0.468896 0.647157 0.804805 0.697195
C2    C     C_R   0.531108 0.352856 0.195214 0.694727
O7    O     O_R   0.290810 0.810670 0.817290 -0.552187
O8    O     O_R   0.709190 0.189330 0.182710 -0.550995
O9    O     O_R   0.113980 0.827820 0.711840 -0.528338
O10   O     O_R   0.886020 0.172180 0.288160 -0.524916
C3    C     C_R   0.458220 0.830793 0.835059 0.702511
C4    C     C_R   0.541781 0.169204 0.164944 0.707139
O11   O     O_R   0.626290 0.672180 0.788160 -0.536679
O12   O     O_R   0.373710 0.327820 0.211840 -0.536342
O13   O     O_3   0.451520 0.755460 0.715370 -0.357624
O14   O     O_3   0.548480 0.244540 0.284630 -0.364304
V1    V     V_3+5 0.179200 0.748980 0.756420 1.431386
V2    V     V_3+5 0.820800 0.251020 0.243580 1.418061
O15   O     O_R   0.783880 0.828350 0.705250 -0.545925
O16   O     O_R   0.216120 0.171650 0.294750 -0.544992
C5    C     C_R   0.949785 0.852657 0.694900 0.740640
C6    C     C_R   0.050220 0.147331 0.305079 0.744556
O17   O     O_R   0.790030 0.689320 0.682700 -0.538670
O18   O     O_R   0.209970 0.310680 0.317300 -0.543617
C7    C     C_R   0.960459 0.670589 0.664235 0.710831
C8    C     C_R   0.039422 0.330703 0.335052 0.716335
V3    V     V_3+5 0.678400 0.751010 0.743570 1.442461
V4    V     V_3+5 0.321600 0.248990 0.256430 1.423369
O19   O     O_3   0.955950 0.744540 0.784620 -0.374487
O20   O     O_3   0.044050 0.255460 0.215380 -0.371557
C9    C     C_R   0.170383 0.426437 0.393909 -0.217886
C10   C     C_R   0.836146 0.573570 0.606506 -0.218186
C11   C     C_R   0.026019 0.379072 0.385133 -0.154046
C12   C     C_R   0.973248 0.623724 0.613254 -0.134381
C13   C     C_R   0.870888 0.379548 0.423651 0.161264
C14   C     C_R   0.120467 0.626710 0.572339 0.165626
C15   C     C_R   0.864116 0.427138 0.470108 0.074545
C16   C     C_R   0.135577 0.575556 0.528407 0.058730
C17   C     C_R   0.007553 0.475808 0.477223 -0.053123
C18   C     C_R   0.995782 0.525372 0.522448 -0.033146
C19   C     C_R   0.161350 0.475474 0.438793 0.116124
C20   C     C_R   0.843340 0.525053 0.561259 0.088633
C21   C     C_R   0.713607 0.427598 0.509181 -0.189157
C22   C     C_R   0.288101 0.574009 0.489827 -0.236823
C23   C     C_R   0.702127 0.475607 0.554587 0.182858
C24   C     C_R   0.301883 0.524847 0.445521 0.186565
H1    H     H_    0.602515 0.390689 0.504462 0.168521
H2    H     H_    0.400049 0.610653 0.493836 0.161492
C25   C     C_R   0.949132 0.913422 0.662425 -0.053062
C26   C     C_R   0.051057 0.086367 0.337292 -0.063519
C27   C     C_R   0.901769 0.034118 0.661913 0.235551
C28   C     C_R   0.103066 0.965784 0.337488 0.210868
C29   C     C_R   0.891984 0.974433 0.689213 -0.318740
C30   C     C_R   0.112287 0.025810 0.310625 -0.284056
C31   C     C_R   0.001059 0.910333 0.605343 0.150868
C32   C     C_R   0.995925 0.088823 0.394032 0.153193
C33   C     C_R   0.981301 0.969467 0.573688 -0.046187
C34   C     C_R   0.017207 0.029624 0.425526 -0.024106
C35   C     C_R   0.955357 0.032579 0.604521 0.103773
C36   C     C_R   0.046027 0.966532 0.394678 0.055214
C37   C     C_R   0.989891 0.969065 0.513250 0.014572
C38   C     C_R   0.008055 0.030107 0.485929 0.048654
C39   C     C_R   0.029221 0.089147 0.520090 -0.270902
C40   C     C_R   0.968116 0.910174 0.479018 -0.186990
C41   C     C_R   0.991314 0.092007 0.577507 0.210400
C42   C     C_R   0.008441 0.906957 0.421907 0.199606
C43   C     C_R   0.490099 0.585850 0.836105 -0.048471
C44   C     C_R   0.509916 0.414169 0.163923 -0.044916
C45   C     C_R   0.602563 0.470176 0.838094 -0.155827
C46   C     C_R   0.397517 0.529852 0.161946 -0.159448
C47   C     C_R   0.563967 0.527129 0.808510 -0.159085
C48   C     C_R   0.436099 0.472894 0.191526 -0.162954
C49   C     C_R   0.455745 0.587394 0.894184 -0.212125
C50   C     C_R   0.544254 0.412628 0.105846 -0.211556
C51   C     C_R   0.498821 0.530270 0.925834 0.087540
C52   C     C_R   0.501207 0.469758 0.074200 0.086896
C53   C     C_R   0.572563 0.471332 0.896240 0.133731
C54   C     C_R   0.427495 0.528697 0.103797 0.136204
C55   C     C_R   0.474934 0.529750 0.985615 0.056702
C56   C     C_R   0.525098 0.470278 0.014420 0.056269
C57   C     C_R   0.596577 0.413285 0.982452 -0.182349
C58   C     C_R   0.403475 0.586746 0.017584 -0.182703
C59   C     C_R   0.619117 0.413967 0.924754 -0.194955
C60   C     C_R   0.380951 0.586064 0.075285 -0.196964
C61   C     C_R   0.383296 0.075931 0.110530 -0.212804
C62   C     C_R   0.616729 0.924052 0.889483 -0.212423
C63   C     C_R   0.535092 0.120656 0.114867 -0.155952
C64   C     C_R   0.464918 0.879333 0.885141 -0.154664
C65   C     C_R   0.676014 0.118149 0.071750 0.160683
C66   C     C_R   0.323997 0.881839 0.928258 0.160714
C67   C     C_R   0.663741 0.069733 0.025344 0.102014
C68   C     C_R   0.336283 0.930248 0.974668 0.101765
C69   C     C_R   0.508595 0.024504 0.022726 -0.055014
C70   C     C_R   0.491434 0.975476 0.977289 -0.055118
C71   C     C_R   0.369664 0.028237 0.065441 0.087901
C72   C     C_R   0.630367 0.971742 0.934574 0.087758
C73   C     C_R   0.801164 0.064647 0.981298 0.209963
C74   C     C_R   0.198871 0.935331 0.018718 0.209982
C75   C     C_R   0.782586 0.016002 0.936964 -0.252143
C76   C     C_R   0.217453 0.983974 0.063054 -0.253137
H3    H     H_    0.287769 0.426061 0.364310 0.168228
H4    H     H_    0.724384 0.572054 0.637698 0.164452
H5    H     H_    0.675459 0.368939 0.902166 0.128373
H6    H     H_    0.324632 0.631095 0.097874 0.126525
H7    H     H_    0.598034 0.365604 0.086679 0.094584
H8    H     H_    0.401925 0.634415 0.913347 0.094224
H9    H     H_    0.406626 0.474407 0.236121 0.114828
H10   H     H_    0.593467 0.525614 0.763917 0.120061
H11   H     H_    0.659802 0.425289 0.815538 0.122385
H12   H     H_    0.340312 0.574741 0.184506 0.117276
H13   H     H_    0.637641 0.366891 0.000762 0.127951
H14   H     H_    0.362429 0.633142 0.999274 0.127656
H15   H     H_    0.275510 0.077534 0.143209 0.125938
H16   H     H_    0.724520 0.922448 0.856806 0.125899
N1    N     N_3   0.827624 0.165613 0.073800 -0.611567
H17   H     H_    0.923074 0.155367 0.106715 0.248039
H18   H     H_    0.768190 0.214309 0.079474 0.220434
N2    N     N_3   0.172371 0.834381 0.926203 -0.612004
H19   H     H_    0.076929 0.844634 0.893288 0.247704
H20   H     H_    0.231792 0.785684 0.920525 0.219869
N3    N     N_3   0.960969 0.108421 0.980583 -0.613800
H21   H     H_    0.950720 0.134526 0.943878 0.226324
H22   H     H_    0.088562 0.079039 0.978774 0.233851
N4    N     N_3   0.039071 0.891554 0.019433 -0.614367
H23   H     H_    0.911476 0.920934 0.021246 0.233665
H24   H     H_    0.049330 0.865448 0.056138 0.225012
H25   H     H_    0.889525 0.012902 0.904021 0.125830
H26   H     H_    0.110521 0.987071 0.095998 0.125513
N5    N     N_3   0.720059 0.331932 0.416772 -0.679116
H27   H     H_    0.636832 0.342597 0.381356 0.257559
H28   H     H_    0.781347 0.283536 0.411722 0.244778
N6    N     N_3   0.250795 0.681808 0.572885 -0.663089
H29   H     H_    0.233521 0.704153 0.534495 0.218541
H30   H     H_    0.212143 0.720350 0.602192 0.254456
N7    N     N_3   0.547254 0.474060 0.594072 -0.672822
H31   H     H_    0.461422 0.432619 0.584786 0.232131
H32   H     H_    0.458268 0.516592 0.589215 0.240389
N8    N     N_3   0.457537 0.526288 0.406636 -0.688327
H33   H     H_    0.587517 0.524874 0.429324 0.240299
H34   H     H_    0.447874 0.572134 0.387627 0.231391
N9    N     N_3   0.001384 0.155630 0.608496 -0.614765
H35   H     H_    0.139367 0.174084 0.603700 0.226746
H36   H     H_    0.901576 0.188914 0.590831 0.234699
N10   N     N_3   0.995922 0.842324 0.392702 -0.668484
H37   H     H_    0.133339 0.825499 0.379688 0.268517
H38   H     H_    0.900991 0.845555 0.358446 0.255004
N11   N     N_3   0.893039 0.148574 0.414999 -0.690739
H39   H     H_    0.796071 0.138608 0.446383 0.247849
H40   H     H_    0.991388 0.184815 0.428677 0.205098
N12   N     N_3   0.099672 0.849862 0.584141 -0.697362
H41   H     H_    0.998855 0.814501 0.570388 0.206498
H42   H     H_    0.197908 0.859158 0.552900 0.248904
H43   H     H_    0.158708 0.024574 0.267296 0.117395
H44   H     H_    0.848436 0.976225 0.732818 0.119513
N13   N     N_3   0.850771 0.095893 0.692674 -0.613706
H45   H     H_    0.709399 0.092827 0.706884 0.225729
H46   H     H_    0.942131 0.100860 0.727855 0.230120
N14   N     N_3   0.159477 0.904855 0.306410 -0.698619
H47   H     H_    0.071192 0.899828 0.270571 0.227651
H48   H     H_    0.301757 0.909018 0.293286 0.235275
H49   H     H_    0.077145 0.134358 0.503079 0.140873
H50   H     H_    0.918468 0.865129 0.495898 0.157097

loop_
_geom_bond_atom_site_label_1
_geom_bond_atom_site_label_2
_ccdc_geom_bond_type
C6    C26   S    
C40   C42   A    
C46   H12   S    
N13   H45   S    
C3    C64   S    
O13   V3    S    
C17   C18   A    
C57   H13   S    
C69   C70   A    
O4    C2    A    
C41   N9    S    
C48   H9    S    
C45   C53   A    
C55   C56   A    
N3    H21   S    
C15   C17   A    
C16   C22   A    
N7    H32   S    
O9    V1    S    
N4    H23   S    
O10   V2    S    
C74   N4    S    
C11   C13   A    
C50   C52   A    
O3    C1    A    
N11   H40   S    
C52   C54   A    
N3    H22   S    
O12   V4    S    
N9    H35   S    
C31   N12   S    
C46   C54   A    
C2    C44   S    
C34   C36   A    
C21   C23   A    
O7    C3    A    
C54   C60   A    
C9    C11   A    
O5    C7    A    
C27   C35   A    
O7    V1    S    
O6    C8    A    
C5    C25   S    
C8    C11   S    
O8    V2    S    
C39   C41   A    
C45   H11   S    
C44   C48   A    
N4    H24   S    
C65   N1    S    
C43   C47   A    
C25   C31   A    
C21   H1    S    
C63   C65   A    
C20   C23   A    
C19   C24   A    
C67   C73   A    
C61   H15   S    
C71   C76   A    
C32   N11   S    
C15   C21   A    
C51   C53   A    
C37   C40   A    
V1    O19   S    
C49   H8    S    
N13   H46   S    
C17   C19   A    
C39   H49   S    
C60   H6    S    
C18   C20   A    
C30   H43   S    
C59   H5    S    
O1    V3    S    
N2    H20   S    
C34   C38   A    
O11   V3    S    
N10   H38   S    
C27   C29   A    
O17   V3    S    
C29   H44   S    
C28   C30   A    
C33   C35   A    
C24   N8    S    
C9    C19   A    
C47   H10   S    
C10   C20   A    
N8    H33   S    
C46   C48   A    
O8    C4    A    
C45   C47   A    
N6    H30   S    
C1    O11   A    
C28   C36   A    
C25   C29   A    
N5    H28   S    
O15   V3    S    
C10   H4    S    
C13   N5    S    
C70   C72   A    
N14   H48   S    
C62   H16   S    
C68   C70   A    
C4    C63   S    
V4    O20   S    
C65   C67   A    
C35   C41   A    
C64   C66   A    
C68   C74   A    
V3    O19   S    
C23   N7    S    
C74   C76   A    
C40   H50   S    
O3    V1    S    
C49   C51   A    
C26   C32   A    
O14   V4    S    
C57   C59   A    
N12   H42   S    
O18   V4    S    
C50   H7    S    
O15   C5    A    
C44   C50   A    
O16   C6    A    
C33   C37   A    
O1    C3    A    
N5    H27   S    
C53   C59   A    
C55   C58   A    
C42   N10   S    
N2    H19   S    
C73   N3    S    
N10   H37   S    
V2    O20   S    
N9    H36   S    
O10   C6    A    
C58   H14   S    
O16   V4    S    
C73   C75   A    
C9    H3    S    
C27   N13   S    
C76   H26   S    
N8    H34   S    
C16   C18   A    
C52   C56   A    
C1    C43   S    
C69   C71   A    
N6    H29   S    
O5    V1    S    
C7    C12   S    
O17   C7    A    
C72   C75   A    
O6    V2    S    
N7    H31   S    
C22   H2    S    
O18   C8    A    
C36   C42   A    
O2    V4    S    
N14   H47   S    
N1    H18   S    
C62   C64   A    
C66   N2    S    
C13   C15   A    
N1    H17   S    
C38   C39   A    
C12   C14   A    
C14   C16   A    
C66   C68   A    
C67   C69   A    
O9    C5    A    
O13   V1    S    
C10   C12   A    
C43   C49   A    
O14   V2    S    
C14   N6    S    
O2    C4    A    
C51   C55   A    
C31   C33   A    
C28   N14   S    
C37   C38   A    
O4    V2    S    
C22   C24   A    
N12   H41   S    
C2    O12   A    
C56   C57   A    
C61   C63   A    
C58   C60   A    
N11   H39   S    
C32   C34   A    
C62   C72   A    
C26   C30   A    
C61   C71   A    
C75   H25   S    
