data_str_m9_o2_o19_f0_sra.sym.13
_audit_creation_date              2012-12-11T16:28:23-0500
_audit_creation_method            fapswitch 2.2
_symmetry_space_group_name_H-M    P1
_symmetry_Int_Tables_number       1
_space_group_crystal_system       triclinic
_cell_length_a                    16.577046
_cell_length_b                    7.256669
_cell_length_c                    15.21094
_cell_angle_alpha                 89.993577
_cell_angle_beta                  94.741465
_cell_angle_gamma                 89.998362
_cell_volume                      1823.52502203

loop_
_atom_site_label
_atom_site_type_symbol
_atom_type_description
_atom_site_fract_x
_atom_site_fract_y
_atom_site_fract_z
_atom_type_partial_charge
O1    O     O_R   0.663460 0.361760 0.165970 -0.525758
O2    O     O_R   0.336540 0.638240 0.834030 -0.525757
O3    O     O_R   0.836540 0.861760 0.334030 -0.525771
O4    O     O_R   0.163460 0.138240 0.665970 -0.525771
O5    O     O_R   0.827100 0.689870 0.163730 -0.514478
O6    O     O_R   0.172900 0.310130 0.836270 -0.514477
O7    O     O_R   0.672900 0.189870 0.336270 -0.514470
O8    O     O_R   0.327100 0.810130 0.663730 -0.514472
H1    H     H_    0.203623 0.854060 0.503944 0.115152
H2    H     H_    0.796377 0.145940 0.496056 0.115152
H3    H     H_    0.296409 0.353855 0.996072 0.115179
H4    H     H_    0.703584 0.646192 0.003929 0.115191
C1    C     C_R   0.853264 0.522928 0.143575 0.709683
C2    C     C_R   0.146735 0.477072 0.856425 0.709681
C3    C     C_R   0.646735 0.022921 0.356425 0.709672
C4    C     C_R   0.353265 0.977079 0.643575 0.709665
O9    O     O_R   0.663490 0.691370 0.155500 -0.548329
O10   O     O_R   0.336510 0.308630 0.844500 -0.548327
O11   O     O_R   0.836510 0.191370 0.344500 -0.548307
O12   O     O_R   0.163490 0.808630 0.655500 -0.548307
O13   O     O_R   0.671770 0.863320 0.325740 -0.540056
O14   O     O_R   0.328230 0.136680 0.674260 -0.540052
O15   O     O_R   0.828230 0.363320 0.174260 -0.540085
O16   O     O_R   0.171770 0.636680 0.825740 -0.540085
C5    C     C_R   0.635732 0.523463 0.134162 0.650098
C6    C     C_R   0.364268 0.476537 0.865837 0.650106
C7    C     C_R   0.864269 0.023448 0.365834 0.650035
C8    C     C_R   0.135731 0.976552 0.634166 0.650034
H5    H     H_    0.122609 0.844158 0.234286 0.151332
H6    H     H_    0.877391 0.155842 0.765714 0.151332
H7    H     H_    0.377411 0.344175 0.265740 0.151320
H8    H     H_    0.622584 0.655843 0.734260 0.151319
O17   O     O_3   0.752910 0.528800 0.305860 -0.373099
O18   O     O_3   0.247090 0.471200 0.694140 -0.373097
O19   O     O_3   0.747090 0.028800 0.194140 -0.373129
O20   O     O_3   0.252910 0.971200 0.805860 -0.373129
V1    V     V_3+5 0.749460 0.803010 0.239640 1.471472
V2    V     V_3+5 0.250540 0.196990 0.760360 1.471482
V3    V     V_3+5 0.750540 0.303010 0.260360 1.471476
V4    V     V_3+5 0.249460 0.696990 0.739640 1.471479
C9    C     C_1   0.468822 0.994811 0.530120 0.045484
C10   C     C_1   0.531179 0.005189 0.469880 0.045486
C11   C     C_1   0.031179 0.494796 0.969881 0.045484
C12   C     C_1   0.968821 0.505204 0.030119 0.045484
H9    H     H_    0.774426 0.218572 0.646207 0.129809
H10   H     H_    0.225574 0.781429 0.353793 0.129809
H11   H     H_    0.725527 0.718769 0.853759 0.129810
H12   H     H_    0.274463 0.281291 0.146243 0.129810
C13   C     C_R   0.032852 0.941962 0.319102 -0.024041
C14   C     C_R   0.967148 0.058038 0.680898 -0.024040
C15   C     C_R   0.467153 0.441984 0.180902 -0.024017
C16   C     C_R   0.532847 0.558014 0.819098 -0.024014
C17   C     C_R   0.107872 0.867356 0.301512 -0.104975
C18   C     C_R   0.892128 0.132644 0.698488 -0.104976
C19   C     C_R   0.392147 0.367333 0.198509 -0.105009
C20   C     C_R   0.607848 0.632684 0.801492 -0.105010
C21   C     C_R   0.167148 0.833899 0.368919 -0.169917
C22   C     C_R   0.832852 0.166101 0.631081 -0.169918
C23   C     C_R   0.332879 0.333794 0.131106 -0.169903
C24   C     C_R   0.667113 0.666245 0.868895 -0.169903
C25   C     C_R   0.153373 0.875906 0.455205 -0.134970
C26   C     C_R   0.846627 0.124094 0.544795 -0.134970
C27   C     C_R   0.346650 0.375770 0.044810 -0.135027
C28   C     C_R   0.653345 0.624262 0.955191 -0.135038
C29   C     C_R   0.077204 0.941356 0.477657 0.084750
C30   C     C_R   0.922796 0.058644 0.522343 0.084750
C31   C     C_R   0.422806 0.441287 0.022348 0.084746
C32   C     C_R   0.577192 0.558724 0.977652 0.084745
C33   C     C_R   0.013814 0.967546 0.409045 -0.008325
C34   C     C_R   0.986186 0.032454 0.590955 -0.008326
C35   C     C_R   0.486190 0.467543 0.090957 -0.008305
C36   C     C_R   0.513810 0.532458 0.909043 -0.008307
C37   C     C_R   0.064825 0.981550 0.567191 -0.172406
C38   C     C_R   0.935175 0.018450 0.432808 -0.172406
C39   C     C_R   0.435179 0.481497 0.932810 -0.172461
C40   C     C_R   0.564821 0.518504 0.067190 -0.172458
C41   C     C_1   0.415989 0.986273 0.581467 -0.129959
C42   C     C_1   0.584011 0.013727 0.418533 -0.129953
C43   C     C_1   0.084011 0.486247 0.918535 -0.129927
C44   C     C_1   0.915989 0.513753 0.081465 -0.129926
C45   C     C_2   0.982339 0.011800 0.241121 0.361212
H13   H     H_    0.949882 0.140533 0.244633 0.054856
O21   O     O_2   0.979448 0.930082 0.170738 -0.527465
C46   C     C_2   0.017661 0.988199 0.758879 0.361211
H14   H     H_    0.050118 0.859466 0.755367 0.054856
O22   O     O_2   0.020552 0.069918 0.829262 -0.527464
C47   C     C_2   0.517646 0.511943 0.258862 0.361227
H15   H     H_    0.550054 0.640733 0.255309 0.054825
O23   O     O_2   0.520573 0.430261 0.329263 -0.527445
C48   C     C_2   0.482358 0.488030 0.741140 0.361223
H16   H     H_    0.449956 0.359234 0.744699 0.054822
O24   O     O_2   0.479429 0.569700 0.670736 -0.527443

loop_
_geom_bond_atom_site_label_1
_geom_bond_atom_site_label_2
_ccdc_geom_bond_type
C22   C26   A    
C47   H15   S    
C19   C23   A    
C9    C10   S    
C16   C48   S    
O10   C6    A    
C45   H13   S    
C14   C46   S    
H6    C18   S    
O17   V3    S    
C2    O16   A    
H1    C25   S    
C28   C32   A    
O19   V1    S    
C46   O22   D    
H3    C27   S    
C9    C41   T    
C35   C40   A    
O12   V4    S    
C29   C33   A    
C3    C42   S    
O5    V1    S    
C11   C43   T    
C30   C38   A    
C29   C37   A    
C1    O15   A    
C4    C41   S    
C13   C45   S    
O4    C8    A    
H11   C24   S    
C31   C35   A    
O6    V2    S    
C7    C38   S    
O11   C7    A    
O5    C1    A    
O7    C3    A    
C1    C44   S    
O8    C4    A    
C13   C33   A    
O1    C5    A    
H2    C26   S    
C15   C35   A    
C36   C39   A    
C8    C37   S    
C45   O21   D    
C27   C31   A    
H9    C22   S    
C26   C30   A    
C12   C44   T    
C46   H14   S    
C15   C47   S    
C17   C21   A    
O9    V1    S    
O12   C8    A    
C20   C24   A    
C11   C12   S    
C16   C36   A    
C25   C29   A    
O6    C2    A    
C48   O24   D    
C32   C36   A    
C34   C37   A    
C6    C39   S    
C33   C38   A    
O2    C6    A    
C14   C18   A    
C2    C43   S    
O11   V3    S    
O4    V2    S    
C10   C42   T    
C47   O23   D    
H10   C21   S    
O18   V4    S    
C31   C39   A    
H12   C23   S    
C18   C22   A    
H4    C28   S    
C4    O14   A    
C21   C25   A    
C32   C40   A    
C23   C27   A    
C24   C28   A    
C5    C40   S    
O9    C5    A    
O3    C7    A    
C14   C34   A    
C48   H16   S    
C30   C34   A    
H5    C17   S    
C13   C17   A    
O20   V2    S    
O16   V4    S    
H8    C20   S    
C15   C19   A    
O10   V2    S    
O1    V3    S    
O2    V4    S    
C3    O13   A    
O13   V1    S    
O3    V1    S    
O7    V3    S    
O8    V4    S    
H7    C19   S    
O15   V3    S    
C16   C20   A    
O14   V2    S    
