data_str_m3_o5_o29_f0_pcu.sym.79
_audit_creation_date              2013-03-05T16:48:44-0500
_audit_creation_method            fapswitch 2.2
_symmetry_space_group_name_H-M    P1
_symmetry_Int_Tables_number       1
_space_group_crystal_system       triclinic
_cell_length_a                    27.34364
_cell_length_b                    9.187437
_cell_length_c                    8.084095
_cell_angle_alpha                 90.351439
_cell_angle_beta                  89.810758
_cell_angle_gamma                 89.367027
_cell_volume                      2030.69626605

loop_
_atom_site_label
_atom_site_type_symbol
_atom_site_description
_atom_site_fract_x
_atom_site_fract_y
_atom_site_fract_z
_atom_type_partial_charge
O1    O     O_R   0.500000 0.285350 0.636850 -0.616081
O2    O     O_R   0.500000 0.714650 0.363150 -0.618743
O3    O     O_R   0.500000 0.714650 0.636850 -0.619510
O4    O     O_R   0.500000 0.285350 0.363150 -0.608998
C1    C     C_R   0.500020 0.217460 0.499684 0.908153
C2    C     C_R   0.499990 0.782541 0.500325 0.890818
O5    O     O_R   0.428760 0.500000 0.636860 -0.604066
O6    O     O_R   0.571240 0.500000 0.363140 -0.608080
O7    O     O_R   0.571240 0.500000 0.636860 -0.586648
O8    O     O_R   0.428760 0.500000 0.363140 -0.558888
C3    C     C_R   0.405468 0.509684 0.501122 0.945221
C4    C     C_R   0.594572 0.495393 0.500003 0.870692
Zn1   Zn    Zn3+2 0.500000 0.500000 0.682780 1.041217
Zn2   Zn    Zn3+2 0.500000 0.500000 0.317220 1.046222
C5    C     C_R   0.183842 0.389450 0.630593 0.578920
C6    C     C_R   0.817395 0.552863 0.665401 0.511172
C7    C     C_R   0.172385 0.645455 0.660261 0.524119
C8    C     C_R   0.829470 0.323535 0.532505 0.565602
O9    O     O_2   0.215060 0.275134 0.617280 -0.491214
O10   O     O_2   0.785730 0.650996 0.731233 -0.572428
O11   O     O_2   0.189289 0.781037 0.636968 -0.522790
O12   O     O_2   0.812309 0.220585 0.428952 -0.563980
N1    N     N_R   0.201705 0.527751 0.625049 -0.338710
N2    N     N_R   0.799726 0.436214 0.580198 -0.325850
C9    C     C_R   0.285263 0.605892 0.695951 0.114592
C10   C     C_R   0.716808 0.355166 0.644727 0.127370
C11   C     C_R   0.268819 0.503243 0.419629 0.078224
C12   C     C_R   0.730470 0.520290 0.411752 0.120044
C13   C     C_R   0.334650 0.615044 0.653776 0.332577
C14   C     C_R   0.666332 0.367080 0.619645 0.362500
C15   C     C_R   0.319951 0.489025 0.391946 0.335716
C16   C     C_R   0.679786 0.542891 0.396641 0.359597
C17   C     C_R   0.252049 0.548309 0.579169 0.130493
C18   C     C_R   0.748711 0.433603 0.542093 0.095494
C19   C     C_R   0.103014 0.488063 0.685122 -0.195721
C20   C     C_R   0.898442 0.448276 0.647806 -0.160631
C21   C     C_R   0.133106 0.367462 0.643917 -0.085382
C22   C     C_R   0.868271 0.570043 0.679815 -0.185100
C23   C     C_R   0.124100 0.625107 0.712999 -0.167426
C24   C     C_R   0.877916 0.318203 0.590233 -0.179087
C25   C     C_R   0.111912 0.231521 0.609380 0.354723
C26   C     C_R   0.890478 0.704630 0.712732 0.454833
C27   C     C_R   0.095983 0.737342 0.788470 0.345750
C28   C     C_R   0.906024 0.189084 0.602593 0.359902
C29   C     C_R   0.352613 0.542152 0.510942 -0.276919
C30   C     C_R   0.647550 0.468147 0.503248 -0.327010
C31   C     C_R   0.978414 0.329402 0.660715 -0.018458
C32   C     C_R   0.022416 0.597420 0.731398 -0.036769
C33   C     C_R   0.971257 0.590900 0.703221 -0.100827
C34   C     C_R   0.030161 0.338359 0.656609 0.036523
C35   C     C_R   0.949536 0.456286 0.671669 -0.075227
C36   C     C_R   0.051871 0.473689 0.693679 -0.057175
C37   C     C_R   0.953934 0.197109 0.664094 0.538395
C38   C     C_R   0.044883 0.721904 0.800793 0.426856
C39   C     C_R   0.941102 0.716039 0.693048 0.504147
C40   C     C_R   0.060347 0.220455 0.601827 0.361604
C41   C     C_1   0.500027 0.064630 0.499589 -0.163172
C42   C     C_1   0.500012 0.935368 0.500458 -0.161727
N3    N     N_1   0.500000 0.500000 0.073640 -0.006594
N4    N     N_1   0.500000 0.500000 0.926360 -0.001931
O13   O     O_3   0.338945 0.418765 0.254349 -0.735833
H1    H     H_    0.318399 0.332976 0.230998 0.335335
O14   O     O_3   0.663533 0.642184 0.280625 -0.742572
H2    H     H_    0.632065 0.685516 0.317542 0.345138
O15   O     O_3   0.365348 0.688157 0.760396 -0.729463
H3    H     H_    0.391035 0.735505 0.693356 0.336413
O16   O     O_3   0.636105 0.281160 0.714441 -0.739338
H4    H     H_    0.607406 0.253983 0.646968 0.336297
C43   C     C_3   0.232580 0.468126 0.281640 -0.386625
C44   C     C_3   0.198270 0.595931 0.242443 -0.817219
H5    H     H_    0.169243 0.608270 0.337075 0.270284
H6    H     H_    0.219060 0.698643 0.233243 0.275954
H7    H     H_    0.179461 0.575351 0.123214 0.230490
H8    H     H_    0.251566 0.441013 0.164110 0.209366
H9    H     H_    0.210700 0.371370 0.313525 0.241970
C45   C     C_3   0.764947 0.595289 0.292440 -0.299831
C46   C     C_3   0.765840 0.517455 0.125225 -0.755556
H10   H     H_    0.776144 0.401070 0.141022 0.257140
H11   H     H_    0.729529 0.524918 0.064614 0.291913
H12   H     H_    0.793391 0.568866 0.043967 0.275587
H13   H     H_    0.753609 0.710813 0.275989 0.246924
H14   H     H_    0.803017 0.597980 0.338834 0.191076
C47   C     C_3   0.269810 0.649934 0.870453 -0.320704
C48   C     C_3   0.272455 0.814665 0.900182 -0.676918
H15   H     H_    0.310177 0.846878 0.933211 0.276909
H16   H     H_    0.261093 0.876687 0.789285 0.301183
H17   H     H_    0.248111 0.846411 0.004707 0.219436
H18   H     H_    0.232524 0.612918 0.899784 0.173387
H19   H     H_    0.293938 0.593849 0.960857 0.243511
C49   C     C_3   0.735963 0.261090 0.785134 -0.342293
C50   C     C_3   0.734664 0.099204 0.740970 -0.727014
H20   H     H_    0.696558 0.063034 0.720686 0.283925
H21   H     H_    0.756388 0.076465 0.627521 0.269613
H22   H     H_    0.750505 0.034805 0.843924 0.260820
H23   H     H_    0.773944 0.289224 0.819598 0.189034
H24   H     H_    0.713614 0.281155 0.898243 0.241463
O17   O     O_3   0.141877 0.113310 0.573229 -0.671064
H25   H     H_    0.123872 0.022592 0.595398 0.388665
O18   O     O_3   0.863954 0.829256 0.744647 -0.700017
H26   H     H_    0.837056 0.833395 0.663364 0.365131
O19   O     O_3   0.117358 0.858638 0.858071 -0.753753
H27   H     H_    0.150271 0.830712 0.898792 0.365273
O20   O     O_3   0.887542 0.054342 0.568124 -0.658833
H28   H     H_    0.852206 0.057390 0.592707 0.364661
O21   O     O_3   0.973578 0.088153 0.759692 -0.653416
H29   H     H_    0.946085 0.040289 0.817628 0.395194
O22   O     O_3   0.016363 0.820919 0.888954 -0.708894
H30   H     H_    0.036685 0.900584 0.933050 0.403537
O23   O     O_3   0.958211 0.842831 0.626143 -0.632176
H31   H     H_    0.988683 0.822045 0.563074 0.355431
O24   O     O_3   0.039077 0.102121 0.525105 -0.715030
H32   H     H_    0.061616 0.062876 0.439167 0.339152

loop_
_geom_bond_atom_site_label_1
_geom_bond_atom_site_label_2
_geom_bond_distance
_ccdc_geom_bond_type
O5    Zn1   1.984221 S    
O19   H27   0.990980 S    
C15   O13   1.379742 S    
C19   C23   1.407806 A    
O24   H32   0.990798 S    
C48   H17   1.109583 S    
O3    C2    1.271067 A    
O17   H25   0.989695 S    
C41   C42   1.187658 T    
C49   H23   1.109047 S    
Zn1   N4    1.969124 S    
C46   H10   1.110997 S    
C11   C17   1.424950 A    
C5    O9    1.349635 S    
Zn2   N3    1.969124 S    
C7    N1    1.367022 A    
C38   O22   1.384322 S    
O1    C1    1.268910 A    
C19   C21   1.410392 A    
C48   H16   1.108665 S    
C22   C26   1.407876 A    
C32   C36   1.416972 A    
C43   C44   1.530192 S    
C7    C23   1.400940 A    
C2    C42   1.404088 S    
C5    C21   1.408014 A    
O7    Zn1   1.981810 S    
C28   C37   1.405260 A    
C10   C18   1.408962 A    
O18   H26   0.988462 S    
N1    C17   1.439269 S    
C34   C36   1.414572 A    
O22   H30   0.989266 S    
C44   H5    1.104985 S    
C40   O24   1.383111 S    
C14   O16   1.382456 S    
C11   C43   1.529814 S    
C6    O10   1.348924 S    
C31   C37   1.394399 A    
C5    N1    1.367239 A    
C47   H18   1.103788 S    
C12   C18   1.413621 A    
N3    N4    1.190625 T    
C6    N2    1.364175 A    
C39   O23   1.373495 S    
C21   C25   1.409419 A    
O2    C2    1.268979 A    
C28   O20   1.369688 S    
O5    C3    1.273655 A    
C31   C34   1.418538 A    
C46   H11   1.110292 S    
C9    C13   1.395271 A    
C47   H19   1.111405 S    
C11   C15   1.419677 A    
O16   H4    0.990550 S    
C20   C24   1.403377 A    
C45   C46   1.525389 S    
C4    C30   1.467705 S    
O8    Zn2   1.981813 S    
C45   H14   1.108104 S    
C50   H20   1.109553 S    
C31   C35   1.402934 A    
C33   C35   1.400262 A    
C33   C39   1.410364 A    
C34   C40   1.422231 A    
C13   C29   1.415115 A    
C32   C38   1.417762 A    
C27   O19   1.381642 S    
C25   C40   1.416252 A    
C26   C39   1.398008 A    
C50   H21   1.108580 S    
C27   C38   1.409269 A    
C47   C48   1.533497 S    
C12   C16   1.404930 A    
O6    C4    1.279694 A    
C44   H7    1.110170 S    
C43   H8    1.106926 S    
C48   H15   1.109211 S    
C20   C35   1.413637 A    
C13   O15   1.381617 S    
C32   C33   1.419909 A    
C10   C14   1.398843 A    
C8    N2    1.362440 A    
C3    C29   1.474258 S    
O1    Zn1   2.004494 S    
C12   C45   1.519985 S    
C19   C36   1.407606 A    
C46   H12   1.109291 S    
O6    Zn2   1.984219 S    
C8    O12   1.348443 S    
C16   C30   1.416624 A    
C14   C30   1.419415 A    
C16   O14   1.383329 S    
O4    C1    1.271123 A    
O3    Zn1   2.008969 S    
C45   H13   1.111321 S    
C23   C27   1.413594 A    
C49   H24   1.111429 S    
C10   C49   1.521748 S    
O21   H29   0.992664 S    
C1    C41   1.404107 S    
C20   C22   1.404907 A    
O23   H31   0.991541 S    
C50   H22   1.110482 S    
C49   C50   1.528260 S    
C43   H9    1.108208 S    
C25   O17   1.382450 S    
O4    Zn2   2.008970 S    
O13   H1    0.990519 S    
O2    Zn2   2.004493 S    
O7    C4    1.275553 A    
N2    C18   1.429976 S    
O8    C3    1.284769 A    
O14   H2    0.988536 S    
C37   O21   1.374107 S    
C24   C28   1.410580 A    
C8    C24   1.406388 A    
O15   H3    0.991663 S    
C15   C29   1.403855 A    
C9    C17   1.416370 A    
O20   H28   0.985877 S    
C9    C47   1.522366 S    
C44   H6    1.109780 S    
C26   O18   1.371259 S    
C6    C22   1.406914 A    
C7    O11   1.347505 S    
