data_str_m2_o9_o18_f0_pcu.sym.76
_audit_creation_date              2013-03-05T16:48:31-0500
_audit_creation_method            fapswitch 2.2
_symmetry_space_group_name_H-M    P1
_symmetry_Int_Tables_number       1
_space_group_crystal_system       triclinic
_cell_length_a                    10.903212
_cell_length_b                    14.976681
_cell_length_c                    14.740429
_cell_angle_alpha                 63.307791
_cell_angle_beta                  105.293087
_cell_angle_gamma                 102.57268
_cell_volume                      2060.57270162

loop_
_atom_site_label
_atom_site_type_symbol
_atom_site_description
_atom_site_fract_x
_atom_site_fract_y
_atom_site_fract_z
_atom_type_partial_charge
O1    O     O_R   0.455540 0.022090 0.338120 -0.574029
O2    O     O_R   0.544460 0.977910 0.661880 -0.573173
O3    O     O_R   0.512510 0.160150 0.379180 -0.599390
O4    O     O_R   0.487490 0.839850 0.620820 -0.567435
C1    C     C_R   0.472143 0.119763 0.312607 0.798624
C2    C     C_R   0.527154 0.880110 0.687472 0.779951
O5    O     O_R   0.291160 0.930970 0.479480 -0.587067
O6    O     O_R   0.708840 0.069030 0.520520 -0.587526
O7    O     O_R   0.348130 0.069020 0.520540 -0.582970
O8    O     O_R   0.651870 0.930980 0.479460 -0.538049
C3    C     C_R   0.263707 0.998348 0.503520 0.767384
C4    C     C_R   0.736266 0.001886 0.496188 0.786648
Cu1   Cu    Cu3+1 0.466270 0.918260 0.475690 0.961718
Cu2   Cu    Cu3+1 0.533730 0.081740 0.524310 0.936619
C5    C     C_R   0.335267 0.074115 0.779400 -0.246050
C6    C     C_R   0.662707 0.926214 0.220286 -0.242037
H1    H     H_    0.389623 0.025033 0.851208 0.128250
H2    H     H_    0.606068 0.974642 0.149493 0.133687
C7    C     C_R   0.261106 0.034786 0.709929 -0.135272
C8    C     C_R   0.736162 0.965596 0.289941 -0.138684
H3    H     H_    0.258616 0.955742 0.729098 0.116158
H4    H     H_    0.735740 0.044112 0.271798 0.143512
C9    C     C_R   0.186289 0.096080 0.618250 0.090990
C10   C     C_R   0.813844 0.905154 0.380302 0.096237
C11   C     C_R   0.188193 0.197710 0.596267 -0.239241
C12   C     C_R   0.815758 0.804496 0.400500 -0.237767
H5    H     H_    0.129059 0.245136 0.526273 0.146737
H6    H     H_    0.877296 0.757833 0.469260 0.142020
C13   C     C_R   0.263066 0.238361 0.665043 0.219823
C14   C     C_R   0.742175 0.763981 0.331338 0.217545
C15   C     C_R   0.336389 0.175466 0.758290 0.196195
C16   C     C_R   0.665435 0.825833 0.239716 0.194839
C17   C     C_R   0.965065 0.054951 0.541332 -0.246855
C18   C     C_R   0.034973 0.946635 0.457027 -0.247792
H7    H     H_    0.939021 0.096124 0.575120 0.163938
H8    H     H_    0.061327 0.905855 0.422959 0.165328
C19   C     C_R   0.869776 0.003462 0.492286 -0.086741
C20   C     C_R   0.130170 0.997577 0.506589 -0.084507
C21   C     C_R   0.905492 0.950372 0.446697 0.030024
C22   C     C_R   0.094494 0.051086 0.551738 0.027266
C23   C     C_R   0.426663 0.189459 0.206679 -0.028405
C24   C     C_R   0.571631 0.809819 0.793502 -0.084560
C25   C     C_R   0.246494 0.262238 0.075001 -0.215875
C26   C     C_R   0.752233 0.736576 0.924658 -0.224854
C27   C     C_R   0.295068 0.187201 0.168858 -0.238168
C28   C     C_R   0.703138 0.812624 0.831869 -0.204923
C29   C     C_R   0.509461 0.272618 0.156028 0.088748
C30   C     C_R   0.489676 0.724482 0.842752 0.081236
C31   C     C_R   0.456815 0.360307 0.075213 0.052439
C32   C     C_R   0.542937 0.637232 0.922743 0.093070
C33   C     C_R   0.326681 0.349383 0.026425 0.080110
C34   C     C_R   0.672718 0.648465 0.972101 0.062272
C35   C     C_R   0.526018 0.458389 0.043853 0.026354
C36   C     C_R   0.473295 0.539271 0.954090 0.058085
C37   C     C_R   0.356820 0.518207 0.894416 -0.222184
C38   C     C_R   0.641824 0.479577 0.103848 -0.281441
C39   C     C_R   0.279755 0.427111 0.931836 -0.019806
C40   C     C_R   0.719632 0.570229 0.066300 -0.002510
H9    H     H_    0.768070 0.873491 0.788854 0.173944
H10   H     H_    0.229905 0.127112 0.212542 0.171449
H11   H     H_    0.144736 0.254968 0.044660 0.155902
H12   H     H_    0.853899 0.744232 0.955122 0.156508
H13   H     H_    0.325169 0.571048 0.816266 0.177609
H14   H     H_    0.673141 0.426266 0.181704 0.160173
N1    N     N_R   0.584450 0.204570 0.560790 -0.206810
N2    N     N_R   0.415550 0.795430 0.439210 -0.190291
C41   C     C_R   0.659231 0.258975 0.699484 -0.368664
C42   C     C_R   0.338962 0.738220 0.303558 -0.370093
C43   C     C_R   0.653581 0.190373 0.658513 0.172026
C44   C     C_R   0.341571 0.806305 0.344031 0.161271
C45   C     C_R   0.528549 0.293490 0.500759 0.271595
C46   C     C_R   0.481880 0.712554 0.497519 0.298397
C47   C     C_R   0.548427 0.371682 0.536415 -0.001867
C48   C     C_R   0.464223 0.632738 0.464053 -0.053888
C49   C     C_R   0.604582 0.347244 0.640807 0.107036
C50   C     C_R   0.402331 0.654094 0.360987 0.125149
C51   C     C_R   0.507665 0.470484 0.475683 0.071978
C52   C     C_R   0.509579 0.535596 0.524419 0.043402
C53   C     C_R   0.549749 0.498750 0.632107 -0.267459
C54   C     C_R   0.468778 0.508175 0.367664 -0.214053
C55   C     C_R   0.603455 0.409453 0.687939 -0.178349
C56   C     C_R   0.408357 0.594055 0.313059 -0.192158
H15   H     H_    0.639416 0.386597 0.770218 0.154117
H16   H     H_    0.370846 0.616152 0.231050 0.155840
H17   H     H_    0.709828 0.244008 0.778121 0.153795
H18   H     H_    0.286072 0.751124 0.225912 0.153910
H19   H     H_    0.536939 0.535531 0.676150 0.147439
H20   H     H_    0.486584 0.474839 0.322049 0.170243
N3    N     N_3   0.408678 0.213093 0.832807 -0.623897
H21   H     H_    0.503453 0.198779 0.848812 0.218097
H22   H     H_    0.373047 0.171929 0.901258 0.202957
N4    N     N_3   0.593511 0.788218 0.165114 -0.624345
H23   H     H_    0.497902 0.799541 0.151501 0.217171
H24   H     H_    0.626591 0.831404 0.095789 0.202923
N5    N     N_3   0.588395 0.720005 0.576197 -0.527762
H25   H     H_    0.560687 0.686765 0.647937 0.207835
H26   H     H_    0.665401 0.687740 0.577980 0.196637
N6    N     N_3   0.436348 0.303571 0.408542 -0.618493
H27   H     H_    0.366394 0.242113 0.421412 0.269429
H28   H     H_    0.482523 0.316479 0.349454 0.230322
C57   C     C_R   0.263050 0.888961 0.276028 0.191051
C58   C     C_R   0.137723 0.877472 0.289888 -0.182781
C59   C     C_R   0.047241 0.937270 0.211978 -0.173476
C60   C     C_R   0.079842 0.006000 0.117276 -0.142390
C61   C     C_R   0.202695 0.014422 0.100174 -0.155574
C62   C     C_R   0.294258 0.956938 0.179328 -0.147749
H29   H     H_    0.108175 0.816777 0.358475 0.115856
H30   H     H_    0.950512 0.927572 0.223377 0.155452
H31   H     H_    0.009503 0.051615 0.056731 0.143079
H32   H     H_    0.227062 0.065795 0.025834 0.132495
H33   H     H_    0.387510 0.961650 0.163747 0.123214
C63   C     C_R   0.732369 0.107774 0.725930 0.197975
C64   C     C_R   0.856573 0.119338 0.709845 -0.174543
C65   C     C_R   0.948769 0.060716 0.786845 -0.180265
C66   C     C_R   0.919038 0.993093 0.882892 -0.141975
C67   C     C_R   0.797250 0.984442 0.902093 -0.155652
C68   C     C_R   0.703891 0.040703 0.823830 -0.156140
H34   H     H_    0.884121 0.179894 0.640403 0.113992
H35   H     H_    0.044736 0.070788 0.773695 0.154469
H36   H     H_    0.990761 0.948497 0.942801 0.142920
H37   H     H_    0.775191 0.933909 0.977407 0.132546
H38   H     H_    0.611577 0.035980 0.841007 0.120351
N7    N     N_3   0.257585 0.341991 0.640132 -0.603294
H39   H     H_    0.319980 0.364431 0.695202 0.259933
H40   H     H_    0.288723 0.385698 0.570098 0.227510
N8    N     N_3   0.752906 0.661880 0.353903 -0.607340
H41   H     H_    0.690431 0.638984 0.299210 0.257506
H42   H     H_    0.725330 0.615762 0.424961 0.220134
C69   C     C_R   0.156359 0.414328 0.864017 0.097281
C70   C     C_R   0.069599 0.486309 0.823314 -0.154304
C71   C     C_R   0.963971 0.484184 0.745841 -0.144762
C72   C     C_R   0.945272 0.411156 0.707686 -0.113767
C73   C     C_R   0.029270 0.338057 0.749552 -0.102281
C74   C     C_R   0.133833 0.338920 0.827963 -0.150852
H43   H     H_    0.086028 0.545729 0.849397 0.142099
H44   H     H_    0.898672 0.540745 0.713412 0.132690
H45   H     H_    0.867038 0.412201 0.644562 0.142727
H46   H     H_    0.016375 0.282845 0.718847 0.148639
H47   H     H_    0.200518 0.283907 0.856871 0.147681
C75   C     C_R   0.845020 0.580933 0.132836 0.104328
C76   C     C_R   0.872327 0.655299 0.170726 -0.151888
C77   C     C_R   0.979541 0.653902 0.247930 -0.106551
C78   C     C_R   0.061084 0.579463 0.286837 -0.119952
C79   C     C_R   0.037482 0.507500 0.246773 -0.137487
C80   C     C_R   0.929470 0.507748 0.170417 -0.159217
H48   H     H_    0.807569 0.711319 0.144114 0.149088
H49   H     H_    0.996692 0.708470 0.279976 0.151319
H50   H     H_    0.141313 0.576531 0.349141 0.147079
H51   H     H_    0.100909 0.449952 0.276853 0.139474
H52   H     H_    0.909403 0.449162 0.142807 0.126755
N9    N     N_3   0.354191 0.730127 0.818363 -0.623192
H53   H     H_    0.320259 0.746978 0.739853 0.216752
H54   H     H_    0.338534 0.788897 0.832304 0.207570
N10   N     N_3   0.642804 0.259538 0.178431 -0.638361
H55   H     H_    0.688998 0.310801 0.117955 0.228751
H56   H     H_    0.687667 0.265525 0.247793 0.215553

loop_
_geom_bond_atom_site_label_1
_geom_bond_atom_site_label_2
_geom_bond_distance
_ccdc_geom_bond_type
C14   C16   1.414056 A    
C61   H32   1.081892 S    
C14   N8    1.436310 S    
C27   H10   1.082439 S    
C57   C58   1.397098 A    
C28   H9    1.082036 S    
C42   H18   1.086966 S    
C7    C9    1.401558 A    
N5    H25   1.042801 S    
C68   H38   1.081455 S    
C53   H19   1.071007 S    
C65   C66   1.395061 A    
C44   C57   1.471084 S    
N7    H39   1.043526 S    
C29   C31   1.426630 A    
C16   N4    1.432106 S    
C35   C36   1.417921 A    
C41   C49   1.376446 A    
O5    C3    1.319912 A    
N8    H41   1.043327 S    
C48   C50   1.407965 A    
O1    C1    1.319257 A    
C39   C69   1.482045 S    
C7    H3    1.082385 S    
C10   C12   1.403183 A    
C69   C70   1.407293 A    
C63   C68   1.409333 A    
C43   C63   1.470960 S    
C31   C35   1.425560 A    
C78   C79   1.395529 A    
C35   C38   1.402039 A    
C9    C22   1.483007 S    
O4    Cu1   1.899819 S    
C10   C21   1.483212 S    
C67   C68   1.399161 A    
C24   C28   1.394587 A    
C4    C19   1.466589 S    
C63   C64   1.396603 A    
C46   N5    1.433729 S    
Cu2   N1    2.065910 S    
N2    C46   1.380887 A    
C8    C10   1.402275 A    
C72   C73   1.396267 A    
C15   N3    1.432253 S    
C37   H13   1.078217 S    
C32   C34   1.422399 A    
N9    H53   1.045106 S    
C38   H14   1.076987 S    
C59   H30   1.080039 S    
C33   C39   1.409174 A    
N3    H22   1.045340 S    
N10   H56   1.045052 S    
C80   H52   1.083336 S    
C6    C8    1.395750 A    
Cu1   N2    2.065910 S    
C26   C34   1.405252 A    
C30   C32   1.421251 A    
C73   H46   1.077231 S    
Cu1   Cu2   2.750197 S    
C54   H20   1.073173 S    
C47   C49   1.404030 A    
O2    C2    1.320659 A    
C60   C61   1.396317 A    
C55   H15   1.084653 S    
C26   C28   1.390744 A    
C62   H33   1.081152 S    
C11   C13   1.402281 A    
C78   H50   1.080397 S    
C34   C40   1.409676 A    
C45   N6    1.428989 S    
C41   H17   1.086869 S    
C17   C22   1.389866 A    
C67   H37   1.081600 S    
C18   C21   1.390220 A    
C75   C76   1.402775 A    
C46   C48   1.445276 A    
C71   H44   1.082692 S    
C50   C56   1.390290 A    
C74   H47   1.082133 S    
C53   C55   1.380821 A    
C52   C53   1.402708 A    
C49   C55   1.393507 A    
C31   C33   1.422517 A    
C72   H45   1.080597 S    
C51   C52   1.442238 A    
C17   C19   1.397343 A    
C64   H34   1.081703 S    
C41   C43   1.390820 A    
C3    C20   1.465952 S    
C5    C7    1.395394 A    
O7    Cu2   1.979100 S    
C79   H51   1.082635 S    
O7    C3    1.312660 A    
O6    C4    1.319387 A    
N4    H24   1.044870 S    
C23   C29   1.397933 A    
C58   H29   1.082085 S    
C24   C30   1.403712 A    
C23   C27   1.394447 A    
N8    H42   1.044181 S    
C25   C27   1.390417 A    
N10   H55   1.044712 S    
O3    Cu2   1.899819 S    
O8    C4    1.313543 A    
C76   H48   1.082794 S    
C6    H2    1.082334 S    
C70   H43   1.083298 S    
C8    H4    1.083280 S    
C12   C14   1.401259 A    
C56   H16   1.084811 S    
C37   C39   1.393182 A    
C2    C24   1.459593 S    
C73   C74   1.395602 A    
O4    C2    1.307824 A    
C6    C16   1.403990 A    
C71   C72   1.396129 A    
C32   C36   1.426044 A    
C25   H11   1.082707 S    
C45   C47   1.441148 A    
C64   C65   1.398812 A    
C51   C54   1.405089 A    
C40   C75   1.481618 S    
C57   C62   1.409029 A    
C5    H1    1.082450 S    
C1    C23   1.458133 S    
C36   C37   1.404153 A    
O6    Cu2   1.977039 S    
C18   C20   1.396111 A    
C77   H49   1.076895 S    
C65   H35   1.080358 S    
C79   C80   1.397373 A    
O3    C1    1.308458 A    
O8    Cu1   1.979100 S    
C75   C80   1.407450 A    
N5    H26   1.045339 S    
C5    C15   1.403791 A    
C29   N10   1.440057 S    
C42   C50   1.376101 A    
C61   C62   1.398733 A    
C12   H6    1.083933 S    
C26   H12   1.082538 S    
C70   C71   1.398000 A    
C19   C21   1.410084 A    
N1    C45   1.392192 A    
C76   C77   1.396252 A    
C20   C22   1.409916 A    
C25   C33   1.405123 A    
N2    C44   1.378566 A    
N1    C43   1.382096 A    
C13   N7    1.436667 S    
N4    H23   1.044874 S    
C17   H7    1.065685 S    
C54   C56   1.376687 A    
C38   C40   1.393010 A    
C18   H8    1.065764 S    
N9    H54   1.045220 S    
C66   H36   1.081972 S    
C58   C59   1.399002 A    
O2    Cu2   1.914429 S    
N6    H28   1.042649 S    
N7    H40   1.044263 S    
C69   C74   1.402790 A    
O5    Cu1   1.977038 S    
C9    C11   1.403164 A    
O1    Cu1   1.914428 S    
C13   C15   1.414453 A    
N6    H27   1.038630 S    
C48   C52   1.439111 A    
C30   N9    1.437177 S    
C59   C60   1.395035 A    
C77   C78   1.396563 A    
C42   C44   1.386151 A    
C47   C51   1.440441 A    
C60   H31   1.081970 S    
N3    H21   1.044915 S    
C66   C67   1.396632 A    
C11   H5    1.083880 S    
