data_str_m2_o16_o16_f0_pcu.sym.19
_audit_creation_date              2012-10-26T20:02:30-0400
_audit_creation_method            fapswitch 2.2
_symmetry_space_group_name_H-M    P1
_symmetry_Int_Tables_number       1
_space_group_crystal_system       triclinic
_cell_length_a                    18.889792
_cell_length_b                    18.921549
_cell_length_c                    12.430274
_cell_angle_alpha                 90.237858
_cell_angle_beta                  130.600262
_cell_angle_gamma                 90.240203
_cell_volume                      3373.16981411

loop_
_atom_site_label
_atom_site_type_symbol
_atom_type_description
_atom_site_fract_x
_atom_site_fract_y
_atom_site_fract_z
_atom_type_partial_charge
C1    C     C_R   0.607356 0.895210 0.646534 0.611285
C2    C     C_R   0.680487 0.752023 0.058384 0.038150
C3    C     C_R   0.152385 0.788895 0.988250 0.035483
C4    C     C_R   0.180423 0.251972 0.058281 0.037976
C5    C     C_R   0.574247 0.257436 0.863722 -0.107869
C6    C     C_R   0.606747 0.795030 0.956814 -0.103856
C7    C     C_R   0.074198 0.757901 0.862853 -0.107853
C8    C     C_R   0.106705 0.295007 0.956762 -0.103668
C9    C     C_R   0.583881 0.213927 0.783850 -0.085807
C10   C     C_R   0.591168 0.810756 0.833958 -0.061863
C11   C     C_R   0.083930 0.714198 0.783311 -0.086098
C12   C     C_R   0.614379 0.100652 0.655099 0.597052
C13   C     C_R   0.091094 0.310739 0.833887 -0.061585
C14   C     C_R   0.320865 0.805055 0.166917 0.096582
C15   C     C_R   0.287786 0.161008 0.110850 0.099040
C16   C     C_R   0.820903 0.304997 0.167022 0.096520
C17   C     C_R   0.787916 0.661112 0.110992 0.099042
C18   C     C_R   0.218201 0.864842 0.191029 -0.138033
C19   C     C_R   0.268646 0.190508 0.281232 -0.136459
C20   C     C_R   0.718350 0.364533 0.191652 -0.137764
C21   C     C_R   0.768644 0.690504 0.281266 -0.136510
C22   C     C_R   0.684532 0.156449 0.747516 -0.003080
C23   C     C_R   0.107317 0.395190 0.646485 0.611462
C24   C     C_R   0.661041 0.829242 0.720023 -0.005730
C25   C     C_R   0.184785 0.656218 0.747892 -0.002880
C26   C     C_R   0.160885 0.329155 0.719820 -0.005756
C27   C     C_R   0.690373 0.975553 0.305358 0.217920
C28   C     C_R   0.190347 0.475474 0.305339 0.217792
C29   C     C_R   0.340688 0.003557 0.628534 0.234426
C30   C     C_R   0.840686 0.503574 0.628519 0.234500
C31   C     C_R   0.307133 0.986793 0.697378 0.261163
C32   C     C_R   0.807119 0.486859 0.697360 0.261216
C33   C     C_R   0.382959 0.097803 0.340695 0.548264
C34   C     C_R   0.114445 0.600592 0.655196 0.597089
C35   C     C_R   0.383794 0.901409 0.341990 0.556174
C36   C     C_R   0.882972 0.597812 0.340713 0.548285
C37   C     C_R   0.883820 0.401387 0.342036 0.556113
C38   C     C_R   0.368416 0.972823 0.842059 0.062553
C39   C     C_R   0.868388 0.472901 0.842043 0.062467
C40   C     C_R   0.465406 0.982559 0.923042 -0.062107
C41   C     C_R   0.965387 0.482583 0.923032 -0.062134
C42   C     C_R   0.499281 0.989689 0.847444 0.081075
C43   C     C_R   0.999269 0.489686 0.847439 0.081050
C44   C     C_R   0.529989 0.983759 0.076849 -0.050347
C45   C     C_R   0.242174 0.778837 0.031671 0.061619
C46   C     C_R   0.029973 0.483765 0.076839 -0.050334
C47   C     C_R   0.626270 0.971861 0.154137 -0.013776
C48   C     C_R   0.126245 0.471817 0.154117 -0.013769
C49   C     C_R   0.655010 0.958193 0.077312 0.108415
C50   C     C_R   0.154979 0.458147 0.077284 0.108290
C51   C     C_R   0.599840 0.980218 0.936091 0.294083
C52   C     C_R   0.099821 0.480192 0.936080 0.294007
C53   C     C_R   0.502843 0.998041 0.157960 0.041307
C54   C     C_R   0.002843 0.498078 0.157960 0.041272
C55   C     C_R   0.657440 0.989080 0.375061 0.158962
C56   C     C_R   0.234355 0.220323 0.029946 0.062669
C57   C     C_R   0.157425 0.489020 0.375049 0.158550
C58   C     C_R   0.641602 0.330262 0.070579 -0.112948
C59   C     C_R   0.698588 0.737667 0.184742 -0.127221
C60   C     C_R   0.141448 0.830725 0.069687 -0.113141
C61   C     C_R   0.198581 0.237661 0.184697 -0.127242
C62   C     C_R   0.307446 0.853402 0.237711 0.056515
C63   C     C_R   0.312300 0.150678 0.243794 0.043786
C64   C     C_R   0.807533 0.353301 0.237926 0.056501
C65   C     C_R   0.812344 0.650711 0.243858 0.043783
C66   C     C_R   0.768681 0.160168 0.770716 0.296940
C67   C     C_R   0.742150 0.278679 0.031949 0.061658
C68   C     C_R   0.720616 0.801005 0.698160 0.279468
C69   C     C_R   0.269232 0.659444 0.771914 0.297066
C70   C     C_R   0.220288 0.300807 0.697710 0.279601
C71   C     C_R   0.336954 0.709903 0.865261 0.127181
C72   C     C_R   0.289241 0.252360 0.793811 0.141209
C73   C     C_R   0.836349 0.210636 0.864141 0.127337
C74   C     C_R   0.789690 0.752679 0.794469 0.141142
C75   C     C_R   0.327260 0.750804 0.948183 -0.172212
C76   C     C_R   0.298535 0.231720 0.909824 -0.135016
C77   C     C_R   0.826893 0.251131 0.947731 -0.172210
C78   C     C_R   0.734497 0.720435 0.030144 0.062630
C79   C     C_R   0.798891 0.732009 0.910384 -0.135049
C80   C     C_R   0.748976 0.243105 0.938238 0.013584
C81   C     C_R   0.730380 0.747819 0.919648 0.008464
C82   C     C_R   0.249138 0.743080 0.938254 0.013588
C83   C     C_R   0.230168 0.247659 0.919343 0.008492
C84   C     C_R   0.671945 0.203343 0.823259 0.000695
C85   C     C_R   0.659610 0.796311 0.822438 0.004690
C86   C     C_R   0.172089 0.703367 0.823183 0.000494
C87   C     C_R   0.159468 0.296227 0.822254 0.004606
C88   C     C_R   0.652447 0.288518 0.988947 0.035556
Cl1   Cl    Cl    0.813119 0.970731 0.418781 -0.532417
Cl2   Cl    Cl    0.212678 0.324209 0.552585 -0.569716
Cl3   Cl    Cl    0.313080 0.470569 0.418768 -0.532477
Cl4   Cl    Cl    0.185314 0.982292 0.598831 -0.543284
Cl5   Cl    Cl    0.685295 0.482408 0.598803 -0.543094
Cl6   Cl    Cl    0.678812 0.006884 0.913246 -0.530900
Cl7   Cl    Cl    0.178798 0.506879 0.913264 -0.530614
Cl8   Cl    Cl    0.794544 0.102381 0.688448 -0.493046
Cl9   Cl    Cl    0.713112 0.824427 0.553141 -0.569984
Cl10  Cl    Cl    0.295417 0.600952 0.690933 -0.492601
Cu1   Cu    Cu3+1 0.526340 0.000000 0.421010 1.039861
Cu2   Cu    Cu3+1 0.026340 0.500000 0.421010 1.039762
Cu3   Cu    Cu3+1 0.473640 0.000000 0.578990 0.977701
Cu4   Cu    Cu3+1 0.973640 0.500000 0.578990 0.977868
H1    H     H_    0.207399 0.901796 0.245716 0.139698
H2    H     H_    0.060410 0.315951 0.971679 0.093814
H3    H     H_    0.573132 0.339017 0.037097 0.152936
H4    H     H_    0.660145 0.764095 0.210036 0.145470
H5    H     H_    0.072923 0.839641 0.035889 0.153086
H6    H     H_    0.160183 0.264127 0.210037 0.145676
H7    H     H_    0.379661 0.790722 0.015190 0.126449
H8    H     H_    0.361098 0.204529 0.993537 0.118045
H9    H     H_    0.879259 0.291057 0.014800 0.126521
H10   H     H_    0.861501 0.704907 0.994248 0.118061
H11   H     H_    0.520702 0.191972 0.686936 0.143969
H12   H     H_    0.285871 0.183270 0.382193 0.143538
H13   H     H_    0.525112 0.834634 0.750721 0.155566
H14   H     H_    0.020791 0.692233 0.686347 0.143734
H15   H     H_    0.025062 0.334666 0.750713 0.155705
H16   H     H_    0.704643 0.989239 0.489481 0.230878
H17   H     H_    0.204621 0.489141 0.489461 0.231075
H18   H     H_    0.753108 0.882402 0.205102 0.267695
H19   H     H_    0.796782 0.960555 0.196452 0.327183
H20   H     H_    0.253061 0.382340 0.205013 0.267736
H21   H     H_    0.296754 0.460505 0.196454 0.327196
H22   H     H_    0.280276 0.078382 0.477254 0.241327
H23   H     H_    0.707583 0.401426 0.246465 0.139898
H24   H     H_    0.278572 0.994808 0.419083 0.268016
H25   H     H_    0.780228 0.578377 0.477182 0.241374
H26   H     H_    0.778590 0.494802 0.419064 0.268042
H27   H     H_    0.297565 0.894413 0.847794 0.268361
H28   H     H_    0.283930 0.975631 0.889450 0.276878
H29   H     H_    0.797414 0.394594 0.847740 0.268386
H30   H     H_    0.783920 0.475845 0.889451 0.276915
H31   H     H_    0.453672 0.806806 0.236361 0.258676
H32   H     H_    0.408903 0.723377 0.213505 0.261913
H33   H     H_    0.359885 0.107012 0.067586 0.223343
H34   H     H_    0.785821 0.683227 0.382182 0.143440
H35   H     H_    0.242073 0.102124 0.936092 0.254745
H36   H     H_    0.953632 0.306966 0.236160 0.258750
H37   H     H_    0.909034 0.223473 0.213220 0.261847
H38   H     H_    0.860093 0.607247 0.067711 0.223301
H39   H     H_    0.742287 0.602294 0.936213 0.254720
H40   H     H_    0.476463 0.714225 0.982481 0.234182
H41   H     H_    0.414216 0.771207 0.844850 0.220663
H42   H     H_    0.313807 0.193349 0.685860 0.260731
H43   H     H_    0.403040 0.194124 0.860585 0.207576
H44   H     H_    0.975749 0.214990 0.980530 0.234194
H45   H     H_    0.432095 0.007992 0.109553 0.173166
H46   H     H_    0.913314 0.272572 0.843990 0.220648
H47   H     H_    0.814679 0.693754 0.686958 0.260590
H48   H     H_    0.903797 0.694730 0.861730 0.207747
H49   H     H_    0.932110 0.508086 0.109567 0.173302
H50   H     H_    0.505372 0.266346 0.827990 0.167045
H51   H     H_    0.560401 0.815938 0.971658 0.093742
H52   H     H_    0.005261 0.766992 0.826778 0.167362
N1    N     N_R   0.566260 0.000000 0.302220 -0.288357
N2    N     N_3   0.832271 0.441478 0.902801 -0.644126
N3    N     N_3   0.412478 0.775309 0.245795 -0.605688
N4    N     N_3   0.296773 0.102690 0.045835 -0.620776
N5    N     N_3   0.912556 0.275355 0.245677 -0.605416
N6    N     N_3   0.796984 0.602856 0.045956 -0.620705
N7    N     N_3   0.416497 0.719519 0.876114 -0.540280
N8    N     N_3   0.352240 0.226140 0.775648 -0.587559
N9    N     N_3   0.915620 0.220673 0.874424 -0.540505
N10   N     N_3   0.852906 0.726625 0.776626 -0.587698
N11   N     N_R   0.066260 0.500000 0.302220 -0.288492
N12   N     N_R   0.434410 0.000000 0.697680 -0.262758
N13   N     N_R   0.934410 0.500000 0.697680 -0.262745
N14   N     N_3   0.742073 0.923766 0.140441 -0.543723
N15   N     N_3   0.242040 0.423721 0.140400 -0.543672
N16   N     N_3   0.273051 0.024313 0.483836 -0.543430
N17   N     N_3   0.773054 0.524304 0.483803 -0.543367
N18   N     N_3   0.332339 0.941325 0.902820 -0.644055
O1    O     O_R   0.608610 0.924520 0.551740 -0.440399
O2    O     O_R   0.435880 0.924530 0.314850 -0.492817
O3    O     O_R   0.935880 0.575470 0.314850 -0.490194
O4    O     O_R   0.935880 0.424530 0.314850 -0.492804
O5    O     O_R   0.391380 0.075460 0.448260 -0.551856
O6    O     O_R   0.391380 0.924540 0.448260 -0.534094
O7    O     O_R   0.891380 0.575460 0.448260 -0.551813
O8    O     O_R   0.891380 0.424540 0.448260 -0.534164
O9    O     O_R   0.608610 0.075480 0.551740 -0.457261
O10   O     O_R   0.108610 0.424520 0.551740 -0.440168
O11   O     O_R   0.108610 0.575480 0.551740 -0.457675
O12   O     O_R   0.564110 0.924510 0.685150 -0.478245
O13   O     O_R   0.564110 0.075490 0.685150 -0.451635
O14   O     O_R   0.064110 0.424510 0.685150 -0.478302
O15   O     O_R   0.064110 0.575490 0.685150 -0.451514
O16   O     O_R   0.435880 0.075470 0.314850 -0.490198

loop_
_geom_bond_atom_site_label_1
_geom_bond_atom_site_label_2
_ccdc_geom_bond_type
C83   C87   A    
C10   C85   A    
C8    C13   A    
Cu4   O8    S    
H27   N18   S    
H47   N10   S    
C45   C82   A    
C80   C84   A    
H40   N7    S    
C39   C41   A    
C2    C6    A    
C28   C57   A    
C55   N1    A    
C7    H52   S    
C1    O1    A    
C67   C88   A    
Cu4   N13   S    
C5    H50   S    
C79   H10   S    
H24   N16   S    
H29   N2    S    
C30   N13   A    
C21   C59   A    
C3    C7    A    
C27   C55   A    
C43   C52   A    
C23   C26   S    
C57   N11   A    
H43   N8    S    
C11   C86   A    
H25   N17   S    
C14   C62   A    
C12   C22   S    
C53   H45   S    
C52   Cl7   S    
C77   H9    S    
C28   Cl3   S    
C32   C39   A    
C69   C71   A    
C17   N6    S    
C73   C77   A    
C68   Cl9   S    
C22   C66   A    
Cu3   O6    S    
C61   H6    S    
C5    C88   A    
H36   N5    S    
H28   N18   S    
C26   C87   A    
C49   C51   A    
Cu1   N1    S    
Cu2   O4    S    
C50   C52   A    
C41   C46   A    
C27   Cl1   S    
C29   N16   S    
C30   C32   A    
Cu2   O10   S    
C24   C85   A    
C21   H34   S    
C44   C47   A    
C4    C8    A    
C42   C51   A    
C57   H17   S    
C21   C65   A    
C69   Cl10  S    
C35   O6    A    
C40   C42   A    
C32   Cl5   S    
H37   N5    S    
H33   N4    S    
C71   C75   A    
C4    C56   A    
C16   N5    S    
Cu4   O7    S    
C41   C43   A    
C13   C87   A    
C70   Cl2   S    
C36   O7    A    
Cu3   O13   S    
C44   C53   A    
C76   C83   A    
Cu2   Cu4   S    
Cu1   O16   S    
C1    O12   A    
C14   C45   A    
C46   C48   A    
C75   H7    S    
C59   H4    S    
C14   N3    S    
C33   O5    A    
C23   O10   A    
C47   C49   A    
C19   C63   A    
C79   C81   A    
C2    C59   A    
C18   C62   A    
C51   Cl6   S    
C19   H12   S    
C82   C86   A    
C66   C73   A    
C4    C61   A    
C3    C45   A    
Cu2   N11   S    
C22   C84   A    
C29   N12   A    
C20   C64   A    
C7    C11   A    
Cu3   N12   S    
C5    C9    A    
C2    C78   A    
Cu2   O11   S    
H39   N6    S    
C12   O9    A    
Cu1   O1    S    
C33   C63   S    
H20   N15   S    
C46   C54   A    
Cu2   O3    S    
C33   O16   A    
C15   N4    S    
C34   O11   A    
C16   C67   A    
Cu4   O14   S    
C11   H14   S    
C8    H2    S    
H21   N15   S    
C60   H5    S    
C49   N14   S    
H35   N4    S    
C18   C60   A    
Cu1   Cu3   S    
C53   N1    A    
C74   C79   A    
C26   C70   A    
C25   C86   A    
C25   C69   A    
C54   N11   A    
C20   C58   A    
C37   C64   S    
H18   N14   S    
C56   C83   A    
C66   Cl8   S    
C77   C80   A    
C27   C47   A    
C37   O8    A    
C28   C48   A    
Cu3   O12   S    
C71   N7    S    
H42   N8    S    
C36   C65   S    
C35   O2    A    
C67   C80   A    
C58   C88   A    
C6    C10   A    
C23   O14   A    
C13   H15   S    
C75   C82   A    
C38   N18   S    
C54   H49   S    
C43   N13   A    
H48   N10   S    
H44   N9    S    
C25   C34   S    
C17   C65   A    
Cu4   O15   S    
C31   C38   A    
C15   C63   A    
C39   N2    S    
C58   H3    S    
C9    H11   S    
C15   C56   A    
C74   N10   S    
C20   H23   S    
C29   C31   A    
C1    C24   S    
H38   N6    S    
C37   O4    A    
C38   C40   A    
C78   C81   A    
Cu1   O2    S    
C19   C61   A    
C72   C76   A    
C12   O13   A    
C48   C50   A    
C17   C78   A    
H30   N2    S    
H46   N9    S    
C35   C62   S    
H31   N3    S    
C18   H1    S    
H19   N14   S    
C34   O15   A    
C76   H8    S    
C30   N17   S    
Cu1   O9    S    
C6    H51   S    
Cu3   O5    S    
C50   N15   S    
C24   C68   A    
C9    C84   A    
C36   O3    A    
C40   C44   A    
H32   N3    S    
H22   N16   S    
H26   N17   S    
C73   N9    S    
C31   Cl4   S    
C72   N8    S    
C70   C72   A    
C16   C64   A    
C3    C60   A    
C68   C74   A    
H41   N7    S    
C81   C85   A    
C10   H13   S    
C42   N12   A    
C55   H16   S    
