data_str_m2_o14_o18_f0_pcu.sym.154
_audit_creation_date              2012-12-10T17:19:54-0500
_audit_creation_method            fapswitch 2.2
_symmetry_space_group_name_H-M    P1
_symmetry_Int_Tables_number       1
_space_group_crystal_system       triclinic
_cell_length_a                    9.613354
_cell_length_b                    10.782159
_cell_length_c                    15.490847
_cell_angle_alpha                 87.45455
_cell_angle_beta                  74.122713
_cell_angle_gamma                 90.040194
_cell_volume                      1542.74992103

loop_
_atom_site_label
_atom_site_type_symbol
_atom_type_description
_atom_site_fract_x
_atom_site_fract_y
_atom_site_fract_z
_atom_type_partial_charge
C1    C     C_R   0.998411 0.262611 0.503605 0.795105
C2    C     C_R   0.673830 0.527568 0.905458 -0.000260
C3    C     C_R   0.767740 0.587781 0.948265 0.146308
C4    C     C_R   0.524326 0.508099 0.951280 0.083208
C5    C     C_R   0.473052 0.536101 0.043219 0.043088
C6    C     C_R   0.568819 0.593479 0.084192 -0.264362
C7    C     C_R   0.712441 0.620232 0.038337 0.135525
C8    C     C_R   0.423044 0.465786 0.907228 -0.196412
C9    C     C_R   0.278211 0.447101 0.952676 -0.250075
C10   C     C_R   0.228347 0.468165 0.043838 0.159786
C11   C     C_R   0.325861 0.509550 0.090735 0.112511
C12   C     C_R   0.918246 0.501970 0.671831 0.786023
C13   C     C_R   0.081581 0.447689 0.088793 -0.155688
C14   C     C_R   0.031357 0.462434 0.181012 -0.190684
C15   C     C_R   0.273287 0.519471 0.184248 -0.210826
C16   C     C_R   0.094038 0.120776 0.642415 -0.223985
C17   C     C_R   0.145965 0.052230 0.705877 0.224222
C18   C     C_R   0.147829 0.923036 0.704421 -0.134917
C19   C     C_R   0.098343 0.862284 0.640770 -0.225511
C20   C     C_R   0.049043 0.929921 0.574862 0.103787
C21   C     C_R   0.047724 0.061042 0.575373 0.068258
C22   C     C_R   0.995176 0.128390 0.510487 -0.087972
C23   C     C_R   0.998660 0.737036 0.503427 0.779627
C24   C     C_R   0.937930 0.067131 0.450234 -0.177519
C25   C     C_R   0.938160 0.939296 0.450265 -0.183171
C26   C     C_R   0.996104 0.870506 0.510180 -0.070613
C27   C     C_R   0.696653 0.665813 0.381335 -0.259091
C28   C     C_R   0.650014 0.751956 0.325496 0.089493
C29   C     C_R   0.505234 0.752867 0.326753 0.246060
C30   C     C_R   0.408710 0.668658 0.382886 -0.252362
C31   C     C_R   0.451106 0.582473 0.442166 0.172716
C32   C     C_R   0.600534 0.581763 0.441762 0.187723
C33   C     C_R   0.549318 0.422153 0.555451 -0.050701
C34   C     C_R   0.081952 0.499569 0.327941 0.794389
C35   C     C_R   0.401573 0.422070 0.555345 -0.052390
C36   C     C_R   0.873420 0.519852 0.768717 -0.064168
C37   C     C_R   0.127927 0.495571 0.229489 -0.052198
C38   C     C_R   0.913181 0.615916 0.898586 0.169200
C39   C     C_R   0.964130 0.580873 0.809831 -0.288348
C40   C     C_R   0.731935 0.489988 0.817131 -0.224034
Cu1   Cu    Cu3+1 0.140660 0.499990 0.500010 0.936342
Cu2   Cu    Cu3+1 0.859340 0.500010 0.499990 0.937005
H1    H     H_    0.006016 0.418596 0.052740 0.148126
H2    H     H_    0.895980 0.118771 0.401368 0.155597
H3    H     H_    0.087817 0.220344 0.647419 0.135993
H4    H     H_    0.186143 0.869069 0.753720 0.137120
H5    H     H_    0.097164 0.762134 0.645126 0.162712
H6    H     H_    0.896230 0.893724 0.401635 0.138907
H7    H     H_    0.584166 0.358295 0.600985 0.130068
H8    H     H_    0.808933 0.668988 0.375374 0.211829
H9    H     H_    0.344638 0.540957 0.224336 0.155895
H10   H     H_    0.301888 0.675390 0.376784 0.230253
H11   H     H_    0.326420 0.358181 0.600788 0.124118
H12   H     H_    0.918388 0.443712 0.214747 0.155991
H13   H     H_    0.204520 0.415768 0.915966 0.147527
H14   H     H_    0.073615 0.606283 0.771989 0.150760
H15   H     H_    0.669447 0.436936 0.783432 0.144854
H16   H     H_    0.534380 0.624369 0.151742 0.176606
H17   H     H_    0.450331 0.450514 0.836397 0.137702
N1    N     N_R   0.648320 0.501210 0.499140 -0.184617
N2    N     N_R   0.352470 0.501290 0.499110 -0.183539
O1    O     O_R   0.118810 0.319640 0.500010 -0.570329
O2    O     O_R   0.881240 0.319660 0.500000 -0.578404
O3    O     O_R   0.055570 0.499980 0.629840 -0.598656
O4    O     O_R   0.818000 0.500010 0.629830 -0.577449
O5    O     O_R   0.118760 0.680340 0.500000 -0.596509
O6    O     O_R   0.881190 0.680360 0.499990 -0.590462
O7    O     O_R   0.182000 0.499990 0.370170 -0.590676
O8    O     O_R   0.944430 0.500020 0.370160 -0.600671
N3    N     N_3   0.800770 0.681269 0.084977 -0.530541
H18   H     H_    0.755049 0.767397 0.103327 0.278548
H19   H     H_    0.798449 0.628285 0.143558 0.225500
N4    N     N_3   0.194169 0.112334 0.773581 -0.586417
H20   H     H_    0.182488 0.208515 0.767643 0.203273
H21   H     H_    0.304978 0.096319 0.761328 0.214561
N5    N     N_3   0.749437 0.838978 0.267083 -0.560995
H22   H     H_    0.856344 0.815463 0.263360 0.210376
H23   H     H_    0.731330 0.925725 0.295433 0.248080
Br1   Br    Br    0.435309 0.868151 0.250875 -0.536828
N6    N     N_3   0.007788 0.686931 0.935178 -0.540895
H24   H     H_    0.103654 0.638247 0.928389 0.221926
H25   H     H_    0.033325 0.770202 0.896792 0.225574

loop_
_geom_bond_atom_site_label_1
_geom_bond_atom_site_label_2
_ccdc_geom_bond_type
C16   C21   A    
C35   H11   S    
C34   C37   S    
Cu1   Cu2   S    
C31   N2    A    
C19   C20   A    
Cu1   N2    S    
C4    C8    A    
C1    O1    A    
C7    N3    S    
C20   C26   A    
C23   O5    A    
C28   C29   A    
N5    H23   S    
C5    C11   A    
C3    C7    A    
C8    H17   S    
C5    C6    A    
C12   O3    A    
C19   H5    S    
C33   H7    S    
C18   H4    S    
C18   C19   A    
N4    H20   S    
C23   C26   S    
C23   O6    A    
C6    H16   S    
C15   C37   A    
C11   C15   A    
C31   C32   A    
C3    C38   A    
C8    C9    A    
Cu2   O4    S    
N3    H18   S    
C9    H13   S    
C15   H9    S    
C12   C36   S    
C9    C10   A    
C27   H8    S    
C1    C22   S    
C21   C22   A    
C17   N4    S    
N4    H21   S    
Cu1   O1    S    
C1    O2    A    
Cu1   O7    S    
C38   C39   A    
C36   C40   A    
N5    H22   S    
N6    H25   S    
Cu2   N1    S    
C16   C17   A    
C25   C26   A    
Cu2   O8    S    
C2    C4    A    
C29   C30   A    
C39   H14   S    
C29   Br1   S    
C17   C18   A    
C35   N2    A    
C24   C25   A    
C34   O8    A    
C6    C7    A    
C14   H12   S    
C33   N1    A    
Cu2   O6    S    
C24   H2    S    
C22   C24   A    
C32   N1    A    
C34   O7    A    
C28   N5    S    
C13   H1    S    
C30   H10   S    
C40   H15   S    
C27   C32   A    
C36   C39   A    
N6    H24   S    
C10   C13   A    
C16   H3    S    
Cu1   O5    S    
C12   O4    A    
C2    C3    A    
C14   C37   A    
C30   C31   A    
C38   N6    S    
C33   C35   A    
C10   C11   A    
C2    C40   A    
C4    C5    A    
C20   C21   A    
C27   C28   A    
N3    H19   S    
Cu1   O3    S    
C13   C14   A    
C25   H6    S    
Cu2   O2    S    
