data_str_m2_o14_o29_f0_pcu.sym.95
_audit_creation_date              2013-03-05T15:52:32-0500
_audit_creation_method            fapswitch 2.2
_symmetry_space_group_name_H-M    P1
_symmetry_Int_Tables_number       1
_space_group_crystal_system       triclinic
_cell_length_a                    27.794635
_cell_length_b                    10.843287
_cell_length_c                    9.575201
_cell_angle_alpha                 88.910927
_cell_angle_beta                  90.244841
_cell_angle_gamma                 94.636385
_cell_volume                      2875.85031812

loop_
_atom_site_label
_atom_site_type_symbol
_atom_site_description
_atom_site_fract_x
_atom_site_fract_y
_atom_site_fract_z
_atom_type_partial_charge
O1    O     O_R   0.500000 0.319640 0.618810 -0.578339
O2    O     O_R   0.500000 0.319660 0.381240 -0.531197
C1    C     C_R   0.502263 0.262073 0.502197 0.811233
O3    O     O_R   0.430260 0.500010 0.618770 -0.535050
O4    O     O_R   0.430270 0.500030 0.381200 -0.593312
C2    C     C_R   0.407565 0.499841 0.499603 0.847593
Cu1   Cu    Cu3+1 0.500000 0.499990 0.640660 1.070627
Cu2   Cu    Cu3+1 0.500000 0.500010 0.359340 0.975046
O5    O     O_R   0.500000 0.680340 0.618760 -0.490444
O6    O     O_R   0.500000 0.680360 0.381190 -0.625108
O7    O     O_R   0.569730 0.499970 0.618800 -0.473537
O8    O     O_R   0.569740 0.499990 0.381230 -0.631335
C3    C     C_R   0.495956 0.736094 0.498915 0.913746
C4    C     C_R   0.592577 0.499846 0.500368 0.919630
C5    C     C_R   0.175284 0.401973 0.527585 0.573831
O9    O     O_2   0.196789 0.297813 0.559842 -0.538171
N1    N     N_R   0.202765 0.508042 0.493171 -0.453351
C6    C     C_R   0.182469 0.615127 0.458444 0.591935
C7    C     C_R   0.280508 0.546723 0.613946 0.479594
C8    C     C_R   0.330722 0.541146 0.616022 -0.301459
C9    C     C_R   0.328236 0.467375 0.378285 -0.207719
C10   C     C_R   0.278181 0.468976 0.377341 -0.196539
C11   C     C_R   0.254244 0.507367 0.495140 0.292391
C12   C     C_R   0.102829 0.510722 0.496943 -0.126043
C13   C     C_R   0.124902 0.401279 0.530710 0.026069
C14   C     C_R   0.096308 0.293043 0.564811 -0.189686
C15   C     C_R   0.131771 0.618744 0.457296 -0.184508
C16   C     C_R   0.354829 0.502386 0.498153 -0.083725
H1    H     H_    0.346045 0.437153 0.286033 0.162145
H2    H     H_    0.257885 0.440285 0.285104 0.152160
H3    H     H_    0.112315 0.206661 0.585497 0.180065
C17   C     C_R   0.645690 0.499133 0.500919 -0.311441
C18   C     C_R   0.972883 0.408088 0.565406 -0.154435
C19   C     C_R   0.978391 0.611830 0.446732 0.033273
C20   C     C_R   0.950242 0.508935 0.505206 -0.000457
C21   C     C_R   0.943997 0.316443 0.641270 0.488007
C22   C     C_R   0.893945 0.316182 0.641590 0.623063
C23   C     C_R   0.870901 0.408967 0.569639 -0.234705
C24   C     C_R   0.899088 0.506718 0.502930 -0.208855
C25   C     C_R   0.876152 0.602255 0.433902 -0.128764
C26   C     C_R   0.825415 0.598325 0.434129 0.695604
N2    N     N_R   0.798741 0.501938 0.498065 -0.441707
C27   C     C_R   0.820308 0.408296 0.565023 0.671874
C28   C     C_R   0.720690 0.484255 0.372713 0.452661
C29   C     C_R   0.670360 0.487777 0.374536 -0.411571
C30   C     C_R   0.672332 0.510254 0.626242 0.528123
C31   C     C_R   0.722503 0.512485 0.624034 0.548237
C32   C     C_R   0.746949 0.500148 0.497917 0.017360
O10   O     O_2   0.792646 0.314465 0.625965 -0.452107
C33   C     C_R   0.023449 0.403597 0.548486 0.146075
C34   C     C_R   0.051815 0.511145 0.501635 0.011821
C35   C     C_R   0.029498 0.618995 0.460836 -0.082591
C36   C     C_R   0.046488 0.293822 0.571983 -0.142057
H4    H     H_    0.650739 0.481233 0.276601 0.216237
H5    H     H_    0.026538 0.205706 0.590040 0.195091
O11   O     O_2   0.211523 0.717498 0.427006 -0.516088
C37   C     C_R   0.109438 0.727259 0.421148 0.378103
H6    H     H_    0.350722 0.568517 0.709217 0.201724
C38   C     C_R   0.954537 0.701430 0.370521 -0.235649
C39   C     C_R   0.904463 0.697893 0.365297 0.640124
O12   O     O_2   0.802757 0.690602 0.372637 -0.412564
C40   C     C_R   0.059209 0.730167 0.437676 0.302604
H7    H     H_    0.974022 0.772709 0.308247 0.220068
C41   C     C_R   0.493330 0.104018 0.768672 -0.286251
H8    H     H_    0.513193 0.189872 0.794691 0.229289
C42   C     C_R   0.471128 0.037393 0.880054 0.461334
C43   C     C_R   0.447470 0.921727 0.857997 0.466380
C44   C     C_R   0.450325 0.867246 0.728088 0.448216
C45   C     C_R   0.477529 0.929064 0.618612 -0.107489
C46   C     C_R   0.492152 0.055594 0.631827 -0.121271
C47   C     C_R   0.504558 0.126670 0.507735 -0.131461
C48   C     C_R   0.513935 0.065722 0.382437 0.457174
H9    H     H_    0.516185 0.889913 0.285702 0.172687
C49   C     C_R   0.508023 0.937087 0.380194 -0.274345
C50   C     C_R   0.491314 0.868766 0.497555 -0.082236
H10   H     H_    0.446578 0.354106 0.133870 0.165177
C51   C     C_R   0.562924 0.669865 0.147291 -0.118692
H11   H     H_    0.566272 0.673557 0.257136 0.214349
C52   C     C_R   0.593286 0.757918 0.079521 -0.342606
H12   H     H_    0.616601 0.822910 0.138531 0.182546
C53   C     C_R   0.594514 0.761469 0.936817 -0.171164
H13   H     H_    0.619162 0.829647 0.884395 0.187566
C54   C     C_R   0.565710 0.676895 0.859660 0.710923
C55   C     C_R   0.531809 0.585520 0.924876 0.003601
C56   C     C_R   0.531190 0.584315 0.075020 0.135089
N3    N     N_R   0.500460 0.501210 0.147910 -0.212950
C57   C     C_R   0.470155 0.420257 0.075660 -0.091068
C58   C     C_R   0.469023 0.421665 0.926678 0.544240
N4    N     N_R   0.500480 0.501290 0.852040 -0.221788
O13   O     O_3   0.256248 0.582064 0.730724 -0.616262
C59   C     C_3   0.268891 0.708278 0.759890 0.060534
H14   H     H_    0.236251 0.759592 0.743613 0.179918
H15   H     H_    0.297673 0.754512 0.691269 0.165938
C60   C     C_3   0.285024 0.719662 0.912326 -0.342040
H16   H     H_    0.256063 0.676953 0.981686 0.225355
H17   H     H_    0.317903 0.669227 0.928916 0.245473
C61   C     C_3   0.296136 0.854777 0.951649 -0.807001
H18   H     H_    0.325522 0.899031 0.884977 0.282422
H19   H     H_    0.307921 0.859763 0.062486 0.277966
H20   H     H_    0.263432 0.906437 0.938785 0.238962
O14   O     O_3   0.137014 0.834816 0.382380 -0.556198
C62   C     C_3   0.128449 0.865091 0.240089 0.127967
H21   H     H_    0.138471 0.965699 0.224860 0.170276
H22   H     H_    0.089724 0.849968 0.209372 0.147959
C63   C     C_3   0.159765 0.794081 0.143077 -0.355104
H23   H     H_    0.198531 0.817874 0.166992 0.260092
H24   H     H_    0.151700 0.692869 0.159924 0.215642
C64   C     C_3   0.150335 0.825678 0.989935 -0.933432
H25   H     H_    0.111898 0.800993 0.963113 0.257706
H26   H     H_    0.173098 0.772131 0.922597 0.268133
H27   H     H_    0.159296 0.925957 0.968695 0.263010
F1    F     F_    0.650252 0.520517 0.751174 -0.607609
F2    F     F_    0.884153 0.788169 0.290832 -0.599682
F3    F     F_    0.747632 0.527705 0.745226 -0.585634
O15   O     O_3   0.040003 0.844142 0.436980 -0.621833
C65   C     C_3   0.048274 0.901186 0.567789 0.097448
H28   H     H_    0.054446 0.002339 0.547752 0.162048
H29   H     H_    0.081168 0.873075 0.623563 0.146092
C66   C     C_3   0.003918 0.876637 0.661603 -0.372788
H30   H     H_    0.971846 0.910552 0.607871 0.263690
H31   H     H_    0.996953 0.775561 0.681879 0.224175
C67   C     C_3   0.011218 0.941214 0.801196 -0.788775
H32   H     H_    0.041959 0.904867 0.858959 0.227474
H33   H     H_    0.978128 0.923825 0.865504 0.289570
H34   H     H_    0.018566 0.042574 0.784573 0.289102
O16   O     O_3   0.525196 0.134234 0.260943 -0.541226
C68   C     C_3   0.566612 0.096073 0.194205 0.096938
H35   H     H_    0.556118 0.015844 0.126818 0.178616
H36   H     H_    0.594719 0.070691 0.270774 0.098266
C69   C     C_3   0.588052 0.202898 0.101505 -0.289558
H37   H     H_    0.559356 0.237443 0.033373 0.252808
H38   H     H_    0.602474 0.280146 0.168422 0.207464
C70   C     C_3   0.628412 0.162565 0.009553 -0.919199
H39   H     H_    0.657137 0.125142 0.074862 0.250197
H40   H     H_    0.644405 0.243299 0.947793 0.288587
H41   H     H_    0.613929 0.090319 0.936286 0.260654
F4    F     F_    0.471096 0.087432 0.008614 -0.631457
F5    F     F_    0.422766 0.860670 0.963661 -0.621065
F6    F     F_    0.423817 0.758404 0.707278 -0.656369
F7    F     F_    0.575108 0.690909 0.723337 -0.650651
O17   O     O_3   0.438848 0.336600 0.854843 -0.578406
C71   C     C_3   0.389755 0.343384 0.891483 0.034057
H42   H     H_    0.369349 0.358462 0.793672 0.180442
H43   H     H_    0.382928 0.421618 0.961090 0.113846
C72   C     C_3   0.369512 0.220345 0.957247 -0.309832
H44   H     H_    0.373866 0.144416 0.883085 0.237937
H45   H     H_    0.389665 0.200571 0.054333 0.259277
C73   C     C_3   0.316108 0.222975 0.992474 -0.898390
H46   H     H_    0.310899 0.297121 0.068155 0.251462
H47   H     H_    0.302523 0.132742 0.040105 0.268910
H48   H     H_    0.294867 0.239469 0.896321 0.274330
O18   O     O_3   0.744938 0.476966 0.247429 -0.540818
C74   C     C_3   0.736138 0.357476 0.190876 0.090210
H49   H     H_    0.738768 0.367687 0.075401 0.226751
H50   H     H_    0.699311 0.313078 0.213296 0.116429
C75   C     C_3   0.774478 0.273255 0.242178 -0.403130
H51   H     H_    0.811031 0.319385 0.221830 0.250284
H52   H     H_    0.770422 0.256535 0.356372 0.239189
C76   C     C_3   0.769695 0.148808 0.169598 -0.746738
H53   H     H_    0.734254 0.098641 0.194275 0.238070
H54   H     H_    0.798689 0.091482 0.206978 0.292019
H55   H     H_    0.773151 0.162297 0.054662 0.281201
F8    F     F_    0.868364 0.225172 0.715607 -0.561207
F9    F     F_    0.963503 0.232314 0.726480 -0.651338

loop_
_geom_bond_atom_site_label_1
_geom_bond_atom_site_label_2
_geom_bond_distance
_ccdc_geom_bond_type
C31   F3    1.357725 S    
C28   C32   1.406995 A    
C57   C58   1.426567 A    
O14   C62   1.419014 S    
C25   C39   1.404547 A    
C30   F1    1.357352 S    
C26   N2    1.367871 A    
C36   H5    1.076658 S    
C1    C47   1.474679 S    
C7    C8    1.401901 A    
C12   C15   1.413006 A    
C26   O12   1.349349 S    
C61   H20   1.110862 S    
C53   H13   1.083861 S    
Cu1   Cu2   2.693691 S    
C51   H11   1.056730 S    
C65   H28   1.109566 S    
Cu1   O7    1.950297 S    
C63   H24   1.111087 S    
O16   C68   1.413533 S    
O4    C2    1.299782 A    
C21   C22   1.390973 A    
C73   H47   1.110254 S    
C72   H44   1.111679 S    
C23   C24   1.410509 A    
C62   H22   1.114679 S    
O7    C4    1.302148 A    
C5    C13   1.400201 A    
O15   C65   1.417131 S    
Cu1   N4    2.024303 S    
C18   C21   1.417154 A    
C64   H25   1.110395 S    
C62   C63   1.534878 S    
N1    C6    1.366274 A    
C19   C20   1.417516 A    
H9    C49   1.081600 S    
C43   F5    1.356622 S    
O5    C3    1.295562 A    
C19   C35   1.422316 A    
C61   H19   1.110353 S    
C2    C16   1.468265 S    
C76   H53   1.110208 S    
C65   H29   1.117460 S    
C44   C45   1.420564 A    
C70   H41   1.111488 S    
C73   H48   1.111022 S    
C45   C50   1.411033 A    
C46   C47   1.431939 A    
C41   C46   1.420112 A    
C74   H50   1.115273 S    
C6    O11   1.348851 S    
C22   F8    1.358678 S    
C58   N4    1.371329 A    
C12   C34   1.419200 A    
C66   H31   1.111001 S    
C42   C43   1.387649 A    
C51   C56   1.415733 A    
C38   C39   1.389938 A    
C74   H49   1.111261 S    
C9    C10   1.392754 A    
C71   C72   1.530624 S    
C39   F2    1.358176 S    
C62   H21   1.110926 S    
O3    Cu1   1.948826 S    
C10   C11   1.399025 A    
C54   F7    1.335724 S    
C53   C54   1.389167 A    
C61   H18   1.111013 S    
C51   C52   1.376846 A    
C63   C64   1.525925 S    
C33   C36   1.410446 A    
C49   C50   1.394474 A    
C72   H45   1.109652 S    
C43   C44   1.392459 A    
C31   C32   1.402026 A    
C3    C50   1.454530 S    
C37   C40   1.408653 A    
C12   C13   1.410895 A    
C48   C49   1.391780 A    
C15   C37   1.410815 A    
C24   C25   1.411941 A    
C52   C53   1.366724 A    
N3    C57   1.362784 A    
C27   O10   1.349678 S    
C8    C16   1.403347 A    
C60   C61   1.526590 S    
C18   C33   1.420315 A    
C56   N3    1.373114 A    
C9    H1    1.083360 S    
C23   C27   1.406163 A    
C34   C35   1.415208 A    
C48   O16   1.391347 S    
O1    C1    1.293765 A    
C41   C42   1.394423 A    
C69   H38   1.112109 S    
C68   H36   1.116148 S    
C22   C23   1.403979 A    
C59   H15   1.118098 S    
C54   C55   1.445712 A    
N1    C11   1.431492 S    
Cu2   O8    1.948821 S    
C76   H54   1.110844 S    
C33   C34   1.420330 A    
C76   H55   1.111001 S    
C60   H16   1.111805 S    
C17   C29   1.405772 A    
N2    C32   1.438118 S    
C55   C56   1.437635 A    
C74   C75   1.531902 S    
C60   H17   1.111625 S    
H10   C57   1.080072 S    
O3    C2    1.301405 A    
C25   C26   1.407423 A    
C9    C16   1.404190 A    
O8    C4    1.303146 A    
C29   H4    1.083386 S    
C70   H39   1.109777 S    
C71   H43   1.117355 S    
C69   C70   1.525549 S    
N2    C27   1.368123 A    
C8    H6    1.082837 S    
C68   H35   1.112173 S    
C14   C36   1.387437 A    
C58   O17   1.386161 S    
C59   H14   1.110887 S    
C72   C73   1.526207 S    
C28   C29   1.402710 A    
C7    C11   1.403625 A    
C70   H40   1.110544 S    
C66   C67   1.525892 S    
C5    N1    1.364027 A    
C30   C31   1.392990 A    
C75   H51   1.111845 S    
C10   H2    1.082984 S    
O1    Cu1   1.970696 S    
C17   C30   1.409367 A    
C75   C76   1.525588 S    
O2    Cu2   1.962831 S    
C6    C15   1.412820 A    
C4    C17   1.476886 S    
O6    C3    1.298652 A    
O4    Cu2   1.950300 S    
C66   H30   1.111973 S    
C65   C66   1.531342 S    
C37   O14   1.388137 S    
C63   H23   1.111378 S    
C38   H7    1.078792 S    
C28   O18   1.385160 S    
C64   H27   1.110845 S    
C41   H8    1.076134 S    
C67   H34   1.110120 S    
C75   H52   1.109672 S    
C69   H37   1.112043 S    
C13   C14   1.397330 A    
C68   C69   1.529239 S    
C40   O15   1.385173 S    
C7    O13   1.384324 S    
C35   C40   1.419430 A    
O17   C71   1.418330 S    
C59   C60   1.529399 S    
O13   C59   1.417889 S    
C19   C38   1.410348 A    
C42   F4    1.354696 S    
C20   C24   1.420172 A    
C18   C20   1.417110 A    
C64   H26   1.109188 S    
O2    C1    1.309010 A    
Cu2   N3    2.024368 S    
C73   H46   1.111018 S    
C45   C46   1.406980 A    
C52   H12   1.083540 S    
Cu1   O5    1.962831 S    
C14   H3    1.083548 S    
C47   C48   1.415893 A    
O18   C74   1.416372 S    
Cu2   O6    1.970697 S    
C55   N4    1.403314 A    
C21   F9    1.356353 S    
C71   H42   1.109150 S    
C44   F6    1.357402 S    
C67   H32   1.110612 S    
C67   H33   1.110396 S    
C5    O9    1.350041 S    
