data_str_m3_o14_o18_f0_pcu.sym.59
_audit_creation_date              2012-12-10T17:44:36-0500
_audit_creation_method            fapswitch 2.2
_symmetry_space_group_name_H-M    P1
_symmetry_Int_Tables_number       1
_space_group_crystal_system       triclinic
_cell_length_a                    9.936179
_cell_length_b                    10.619456
_cell_length_c                    15.388891
_cell_angle_alpha                 92.008882
_cell_angle_beta                  68.151139
_cell_angle_gamma                 89.99446
_cell_volume                      1506.07073588

loop_
_atom_site_label
_atom_site_type_symbol
_atom_type_description
_atom_site_fract_x
_atom_site_fract_y
_atom_site_fract_z
_atom_type_partial_charge
C1    C     C_R   0.501254 0.739145 0.497718 0.879043
C2    C     C_R   0.668191 0.654193 0.061887 0.128767
C3    C     C_R   0.552892 0.568961 0.102000 0.067060
C4    C     C_R   0.408870 0.501450 0.676387 0.929169
C5    C     C_R   0.770767 0.673148 0.104510 -0.204915
C6    C     C_R   0.754253 0.615190 0.187640 -0.243720
C7    C     C_R   0.549726 0.501146 0.178754 -0.229244
C8    C     C_R   0.481311 0.860781 0.336911 -0.138733
C9    C     C_R   0.471809 0.922734 0.260940 -0.140626
C10   C     C_R   0.472933 0.053781 0.260738 -0.150261
C11   C     C_R   0.483320 0.123260 0.336585 -0.152772
C12   C     C_R   0.382360 0.552063 0.926188 -0.048608
C13   C     C_R   0.492019 0.061760 0.414543 0.022512
C14   C     C_R   0.491402 0.929795 0.414557 0.098471
C15   C     C_R   0.504831 0.871107 0.491791 -0.180554
C16   C     C_R   0.501419 0.260621 0.497667 0.951988
C17   C     C_R   0.523170 0.938530 0.565530 -0.311211
C18   C     C_R   0.522993 0.067217 0.565944 0.627449
C19   C     C_R   0.505089 0.127942 0.492079 -0.258030
C20   C     C_R   0.794745 0.674794 0.616859 -0.034113
C21   C     C_R   0.832688 0.760190 0.674224 -0.144651
C22   C     C_R   0.970484 0.756118 0.676699 -0.208552
C23   C     C_R   0.247099 0.495058 0.975565 0.062966
C24   C     C_R   0.071734 0.667849 0.620757 -0.144384
C25   C     C_R   0.038795 0.583583 0.559011 0.159382
C26   C     C_R   0.895007 0.585174 0.558006 0.162475
C27   C     C_R   0.961100 0.419531 0.443567 -0.110961
C28   C     C_R   0.590512 0.501671 0.324149 0.824281
C29   C     C_R   0.104227 0.419933 0.443298 -0.103732
C30   C     C_R   0.349253 0.506888 0.779217 -0.162047
C31   C     C_R   0.641420 0.530956 0.225667 -0.054997
C32   C     C_R   0.158261 0.458612 0.926011 -0.203948
C33   C     C_R   0.208043 0.467056 0.829035 -0.271248
C34   C     C_R   0.469233 0.597166 0.975046 0.053924
C35   C     C_R   0.435389 0.549518 0.827939 0.540011
C36   C     C_3   0.066277 0.412641 0.130712 -0.430433
C37   C     C_3   0.076103 0.269199 0.119735 -0.850690
C38   C     C_3   0.782181 0.823819 0.941728 -0.411336
C39   C     C_3   0.740275 0.944126 0.003803 -0.869149
C40   C     C_R   0.444111 0.552523 0.064196 0.014878
C41   C     C_R   0.309784 0.495850 0.113509 -0.253502
C42   C     C_R   0.208304 0.472015 0.071832 0.178276
C43   C     C_R   0.578019 0.687510 0.938242 -0.160782
C44   C     C_R   0.674940 0.719599 0.981972 0.116701
F1    F     F_    0.536484 0.133111 0.639558 -0.657540
F2    F     F_    0.576957 0.574079 0.779414 -0.696670
H1    H     H_    0.860537 0.736483 0.076931 0.157416
H2    H     H_    0.470701 0.428593 0.206936 0.136404
H3    H     H_    0.999184 0.821229 0.722508 0.150099
H4    H     H_    0.174308 0.667689 0.627968 0.201127
H5    H     H_    0.184516 0.354477 0.396877 0.141988
H6    H     H_    0.825272 0.640609 0.224253 0.163036
H7    H     H_    0.052407 0.418779 0.960247 0.170385
H8    H     H_    0.139004 0.435192 0.792552 0.195728
H9    H     H_    0.278896 0.474035 0.186371 0.146056
H10   H     H_    0.582995 0.738930 0.877704 0.185424
H11   H     H_    0.101522 0.238184 0.045612 0.266179
H12   H     H_    0.534586 0.891097 0.623773 0.160060
H13   H     H_    0.161728 0.233019 0.142932 0.257642
H14   H     H_    0.970720 0.228516 0.163612 0.249005
H15   H     H_    0.037354 0.439742 0.206031 0.203792
H16   H     H_    0.975819 0.447933 0.112406 0.215265
H17   H     H_    0.630274 0.976870 0.011051 0.261287
H18   H     H_    0.740991 0.928724 0.074535 0.261032
H19   H     H_    0.818860 0.019191 0.971315 0.257622
H20   H     H_    0.894014 0.792624 0.931132 0.202819
H21   H     H_    0.784837 0.847715 0.871505 0.209391
H22   H     H_    0.482358 0.759058 0.333597 0.153516
H23   H     H_    0.464734 0.868859 0.201770 0.149772
H24   H     H_    0.466774 0.101751 0.201370 0.135540
H25   H     H_    0.486493 0.224778 0.332828 0.125662
H26   H     H_    0.934174 0.353769 0.397409 0.143190
H27   H     H_    0.685148 0.680665 0.622196 0.205518
H28   H     H_    0.753606 0.828615 0.718092 0.149064
N1    N     N_R   0.856800 0.501200 0.500850 -0.118019
N2    N     N_R   0.142390 0.501280 0.500880 -0.116915
O1    O     O_R   0.385310 0.683220 0.500000 -0.635169
O2    O     O_R   0.614640 0.683250 0.500010 -0.646223
O3    O     O_R   0.319840 0.499980 0.632240 -0.648969
O4    O     O_R   0.549160 0.500000 0.632250 -0.543709
O5    O     O_R   0.385360 0.316750 0.499990 -0.618328
O6    O     O_R   0.614690 0.316780 0.500000 -0.576988
O7    O     O_R   0.450840 0.500000 0.367750 -0.623639
O8    O     O_R   0.680160 0.500020 0.367760 -0.621613
Zn1   Zn    Zn3+2 0.346880 0.499980 0.499990 0.930319
Zn2   Zn    Zn3+2 0.653120 0.500020 0.500010 0.975291

loop_
_geom_bond_atom_site_label_1
_geom_bond_atom_site_label_2
_ccdc_geom_bond_type
C27   C29   A    
C1    O1    A    
C41   C42   A    
C36   C42   S    
C29   N2    A    
C39   H18   S    
C5    H1    S    
C12   C23   A    
C23   C42   A    
C30   C35   A    
C34   C40   A    
C36   C37   S    
O8    Zn2   S    
C4    O4    A    
C3    C7    A    
C5    C6    A    
C27   N1    A    
C28   O8    A    
C18   C19   A    
C41   H9    S    
O4    Zn2   S    
C38   H20   S    
C2    C44   A    
C8    C9    A    
C1    C15   S    
C9    C10   A    
C17   H12   S    
O2    Zn2   S    
C6    C31   A    
O1    Zn1   S    
C13   C14   A    
C28   O7    A    
C1    O2    A    
C39   H19   S    
C36   H16   S    
C26   N1    A    
C24   H4    S    
C7    C31   A    
C13   C19   A    
C24   C25   A    
C4    O3    A    
C25   C26   A    
O6    Zn2   S    
C21   H28   S    
C43   C44   A    
C38   C44   S    
N1    Zn2   S    
C16   O6    A    
C17   C18   A    
C38   H21   S    
C12   C35   A    
C37   H13   S    
C22   H3    S    
C10   H24   S    
C40   C41   A    
O7    Zn1   S    
C3    C40   A    
C8    H22   S    
C22   C24   A    
C2    C5    A    
C12   C34   A    
C36   H15   S    
C18   F1    S    
C32   H7    S    
O3    Zn1   S    
C29   H5    S    
C33   H8    S    
C15   C17   A    
C8    C14   A    
C30   C33   A    
C28   C31   S    
C34   C43   A    
C23   C32   A    
C9    H23   S    
C37   H11   S    
C39   H17   S    
C25   N2    A    
C32   C33   A    
C2    C3    A    
C7    H2    S    
C11   C13   A    
C38   C39   S    
C20   C26   A    
C16   C19   S    
C16   O5    A    
C20   H27   S    
C11   H25   S    
C4    C30   S    
C37   H14   S    
C10   C11   A    
C43   H10   S    
C20   C21   A    
C14   C15   A    
C6    H6    S    
C21   C22   A    
C35   F2    S    
N2    Zn1   S    
O5    Zn1   S    
C27   H26   S    
