data_str_m9_o10_o29_f0_sra.sym.35
_audit_creation_date              2012-12-11T14:08:38-0500
_audit_creation_method            fapswitch 2.2
_symmetry_space_group_name_H-M    P1
_symmetry_Int_Tables_number       1
_space_group_crystal_system       triclinic
_cell_length_a                    28.212453
_cell_length_b                    7.179801
_cell_length_c                    17.367404
_cell_angle_alpha                 89.815024
_cell_angle_beta                  101.951506
_cell_angle_gamma                 90.018311
_cell_volume                      3441.6621401

loop_
_atom_site_label
_atom_site_type_symbol
_atom_type_description
_atom_site_fract_x
_atom_site_fract_y
_atom_site_fract_z
_atom_type_partial_charge
O1    O     O_R   0.000700 0.436510 0.857920 -0.559457
O2    O     O_R   0.999300 0.563490 0.142080 -0.559448
O3    O     O_R   0.999300 0.936510 0.642080 -0.509106
O4    O     O_R   0.000700 0.063490 0.357920 -0.509094
O5    O     O_R   0.930080 0.766380 0.721890 -0.540609
O6    O     O_R   0.069920 0.233620 0.278110 -0.540634
O7    O     O_R   0.069920 0.266380 0.778110 -0.545899
O8    O     O_R   0.930080 0.733620 0.221890 -0.545882
C1    C     C_R   0.910541 0.597661 0.708962 0.705853
C2    C     C_R   0.089458 0.402340 0.291045 0.705849
C3    C     C_R   0.089452 0.097561 0.791073 0.688835
C4    C     C_R   0.910548 0.902437 0.208928 0.688865
O9    O     O_R   0.996180 0.766230 0.862310 -0.522127
O10   O     O_R   0.003820 0.233770 0.137690 -0.522136
O11   O     O_R   0.003820 0.266230 0.637690 -0.547109
O12   O     O_R   0.996180 0.733770 0.362310 -0.547133
O13   O     O_R   0.065870 0.936460 0.783500 -0.540654
O14   O     O_R   0.934130 0.063540 0.216500 -0.540652
O15   O     O_R   0.934130 0.436460 0.716500 -0.540602
O16   O     O_R   0.065870 0.563540 0.283500 -0.540587
C5    C     C_R   0.998363 0.595511 0.894087 0.769254
C6    C     C_R   0.001636 0.404489 0.105913 0.769276
C7    C     C_R   0.001503 0.096241 0.605678 0.728973
C8    C     C_R   0.998497 0.903759 0.394322 0.728935
O17   O     O_3   0.022790 0.603020 0.723980 -0.370695
O18   O     O_3   0.977210 0.396980 0.276020 -0.370696
O19   O     O_3   0.977210 0.103020 0.776020 -0.381976
O20   O     O_3   0.022790 0.896980 0.223980 -0.381953
V1    V     V_3+5 0.995770 0.877900 0.754830 1.450680
V2    V     V_3+5 0.004230 0.122100 0.245170 1.450719
V3    V     V_3+5 0.004230 0.377900 0.745170 1.399951
V4    V     V_3+5 0.995770 0.622100 0.254830 1.400022
C9    C     C_2   0.002504 0.083299 0.520262 0.011175
C10   C     C_2   0.997496 0.916701 0.479738 0.011158
C11   C     C_2   0.994800 0.581169 0.977860 -0.031072
C12   C     C_2   0.005199 0.418831 0.022139 -0.031083
C13   C     C_R   0.684268 0.024015 0.033183 0.578510
C14   C     C_R   0.315737 0.977443 0.967057 0.578371
C15   C     C_R   0.318610 0.368844 0.464704 0.579443
C16   C     C_R   0.681555 0.627355 0.534415 0.579330
O21   O     O_2   0.714415 0.086949 0.987877 -0.515410
O22   O     O_2   0.285596 0.915927 0.012642 -0.515353
O23   O     O_2   0.291033 0.285840 0.509743 -0.514241
O24   O     O_2   0.709272 0.706638 0.488662 -0.513822
N1    N     N_R   0.702977 0.944579 0.104912 -0.558626
N2    N     N_R   0.297022 0.055432 0.895038 -0.558727
N3    N     N_R   0.297220 0.442813 0.393075 -0.558448
N4    N     N_R   0.702798 0.557184 0.606829 -0.558718
C17   C     C_R   0.672940 0.877445 0.151270 0.576989
C18   C     C_R   0.327050 0.121102 0.848372 0.576981
C19   C     C_R   0.324577 0.529260 0.346835 0.576495
C20   C     C_R   0.675306 0.474524 0.653827 0.576569
C21   C     C_R   0.778208 0.759797 0.144038 -0.078886
C22   C     C_R   0.221824 0.240192 0.855484 -0.079117
C23   C     C_R   0.222049 0.259009 0.351814 -0.080069
C24   C     C_R   0.778036 0.741152 0.646814 -0.080157
C25   C     C_R   0.828613 0.749298 0.169392 -0.197191
C26   C     C_R   0.171418 0.250690 0.830154 -0.197267
C27   C     C_R   0.171605 0.248930 0.327009 -0.191855
C28   C     C_R   0.828476 0.751231 0.671669 -0.191648
C29   C     C_R   0.833092 0.086228 0.171657 -0.192550
C30   C     C_R   0.166881 0.913758 0.828784 -0.192504
C31   C     C_R   0.166803 0.585478 0.331160 -0.195020
C32   C     C_R   0.833117 0.414407 0.670191 -0.194933
C33   C     C_R   0.782746 0.096297 0.146427 -0.085037
C34   C     C_R   0.217226 0.903692 0.854007 -0.085182
C35   C     C_R   0.217188 0.595126 0.355951 -0.084143
C36   C     C_R   0.782731 0.404757 0.645393 -0.084154
C37   C     C_R   0.754904 0.933358 0.132149 0.375599
C38   C     C_R   0.245097 0.066637 0.867818 0.375820
C39   C     C_R   0.245225 0.432144 0.366600 0.374625
C40   C     C_R   0.754784 0.567876 0.633367 0.375047
C41   C     C_R   0.602243 0.971323 0.052709 -0.043725
C42   C     C_R   0.397755 0.028662 0.947221 -0.043678
C43   C     C_R   0.397900 0.470127 0.445865 -0.044069
C44   C     C_R   0.602126 0.529874 0.553999 -0.044071
C45   C     C_R   0.633758 0.039213 0.005994 -0.033378
C46   C     C_R   0.366246 0.962243 0.994242 -0.033415
C47   C     C_R   0.369165 0.380847 0.492224 -0.032420
C48   C     C_R   0.631003 0.615345 0.506867 -0.032669
C49   C     C_R   0.614326 0.120742 0.933186 -0.125684
C50   C     C_R   0.385687 0.882345 0.067383 -0.125722
C51   C     C_R   0.391342 0.306215 0.565158 -0.125242
C52   C     C_R   0.608985 0.685719 0.433059 -0.125106
C53   C     C_R   0.622201 0.889237 0.126012 -0.029722
C54   C     C_R   0.377789 0.109284 0.873617 -0.029917
C55   C     C_R   0.375216 0.544738 0.372376 -0.030421
C56   C     C_R   0.624667 0.459062 0.628273 -0.030679
C57   C     C_R   0.856816 0.912528 0.183336 -0.050534
C58   C     C_R   0.143184 0.087461 0.816662 -0.050519
C59   C     C_R   0.143217 0.412160 0.316448 -0.055267
C60   C     C_R   0.856782 0.587859 0.683571 -0.055201
H1    H     H_    0.853348 0.215068 0.181837 0.133815
H2    H     H_    0.146602 0.784917 0.818973 0.133727
H3    H     H_    0.146398 0.714314 0.323877 0.134785
H4    H     H_    0.853457 0.285458 0.678572 0.134823
H5    H     H_    0.765314 0.231331 0.137912 0.124051
H6    H     H_    0.234638 0.768662 0.862881 0.123746
H7    H     H_    0.234461 0.729804 0.367449 0.125338
H8    H     H_    0.765389 0.269957 0.634955 0.124532
H9    H     H_    0.637702 0.174310 0.896009 0.176062
H10   H     H_    0.362317 0.830383 0.104890 0.176024
H11   H     H_    0.370174 0.236200 0.601980 0.177261
H12   H     H_    0.630310 0.751559 0.395391 0.177657
C61   C     C_R   0.480266 0.082622 0.925330 0.038903
C62   C     C_R   0.519729 0.916702 0.074461 0.038936
C63   C     C_R   0.522415 0.426888 0.575203 0.038502
C64   C     C_R   0.477547 0.574798 0.424993 0.038552
C65   C     C_R   0.468467 0.931843 0.048169 0.036975
C66   C     C_R   0.531534 0.068768 0.951887 0.036980
C67   C     C_R   0.528801 0.588305 0.451803 0.037629
C68   C     C_R   0.471287 0.410038 0.547712 0.037671
C69   C     C_R   0.449057 0.014344 0.973695 0.062398
C70   C     C_R   0.550940 0.985629 0.026231 0.062376
C71   C     C_R   0.550886 0.515010 0.526894 0.062246
C72   C     C_R   0.449140 0.485000 0.472964 0.062276
C73   C     C_R   0.458784 0.162651 0.851620 -0.173163
C74   C     C_R   0.541200 0.834506 0.147725 -0.173414
C75   C     C_R   0.546391 0.358859 0.649853 -0.173128
C76   C     C_R   0.453361 0.648448 0.351488 -0.173729
C77   C     C_R   0.408760 0.175419 0.826543 -0.133538
C78   C     C_R   0.591223 0.821439 0.172742 -0.133534
C79   C     C_R   0.596305 0.374646 0.675563 -0.132655
C80   C     C_R   0.403418 0.633427 0.325948 -0.132998
O25   O     O_2   0.307943 0.195803 0.777328 -0.516244
O26   O     O_2   0.692035 0.801330 0.222039 -0.516408
O27   O     O_2   0.696806 0.408459 0.725374 -0.517614
O28   O     O_2   0.302945 0.599036 0.276025 -0.517985
C81   C     C_R   0.564458 0.135447 0.906627 -0.174347
C82   C     C_R   0.435553 0.867326 0.093875 -0.174411
C83   C     C_R   0.441177 0.320059 0.592368 -0.176798
C84   C     C_R   0.559122 0.672664 0.406002 -0.176279
H13   H     H_    0.154634 0.386873 0.821694 0.132184
H14   H     H_    0.845421 0.613117 0.177494 0.132156
H15   H     H_    0.845211 0.887250 0.681248 0.133122
H16   H     H_    0.154935 0.113017 0.316351 0.133570
H17   H     H_    0.242791 0.367320 0.866178 0.126383
H18   H     H_    0.757269 0.632670 0.132978 0.126716
H19   H     H_    0.756978 0.868402 0.638042 0.127013
H20   H     H_    0.243171 0.131868 0.359493 0.128043
H21   H     H_    0.394441 0.237823 0.769580 0.161032
H22   H     H_    0.605535 0.757411 0.229370 0.160415
H23   H     H_    0.612616 0.319733 0.733152 0.160609
H24   H     H_    0.386952 0.692514 0.269214 0.160724
H25   H     H_    0.479450 0.217196 0.811104 0.109823
H26   H     H_    0.520521 0.777838 0.187800 0.110121
H27   H     H_    0.527781 0.292717 0.690711 0.109438
H28   H     H_    0.471762 0.720118 0.311743 0.110204
H29   H     H_    0.553154 0.200741 0.849976 0.113644
H30   H     H_    0.446867 0.804135 0.150958 0.113743
H31   H     H_    0.454767 0.257279 0.648942 0.114414
H32   H     H_    0.545738 0.729947 0.348302 0.113737
N5    N     N_3   0.009269 0.254429 0.480838 -0.641438
H33   H     H_    0.980637 0.343658 0.484852 0.228299
H34   H     H_    0.041651 0.315388 0.510075 0.219213
N6    N     N_3   0.990731 0.745571 0.519162 -0.641444
H35   H     H_    0.019363 0.656342 0.515147 0.228264
H36   H     H_    0.958349 0.684612 0.489925 0.219261
N7    N     N_3   0.977833 0.747999 0.009164 -0.656623
H37   H     H_    0.005485 0.805679 0.051857 0.270737
H38   H     H_    0.946945 0.719081 0.031555 0.236647
N8    N     N_3   0.022166 0.252000 0.990835 -0.656637
H39   H     H_    0.994514 0.194321 0.948143 0.270737
H40   H     H_    0.053054 0.280917 0.968445 0.236651

loop_
_geom_bond_atom_site_label_1
_geom_bond_atom_site_label_2
_ccdc_geom_bond_type
O17   V3    S    
C61   C66   A    
O1    C5    A    
C34   H6    S    
C23   C27   A    
O19   V1    S    
O13   V1    S    
C63   C68   A    
C64   C76   A    
O3    C7    A    
C11   C12   D    
C48   C52   A    
C21   C37   A    
C75   C79   A    
O4    V2    S    
C49   H9    S    
C33   C37   A    
O7    C3    A    
C17   O26   S    
C79   H23   S    
C25   C57   A    
C62   C70   A    
C19   O28   S    
C32   C36   A    
C73   H25   S    
N6    H35   S    
O10   V2    S    
C14   O22   S    
N4    C20   A    
O16   V4    S    
C55   C80   A    
O4    C8    A    
C29   H1    S    
C22   H17   S    
C75   H27   S    
C31   H3    S    
C27   H16   S    
O1    V3    S    
C44   C71   A    
C66   C81   A    
O2    V4    S    
C74   C78   A    
O3    V1    S    
C73   C77   A    
C83   H31   S    
C1    O15   A    
C82   H30   S    
C2    O16   A    
C24   C40   A    
O2    C6    A    
C16   C48   A    
O14   V2    S    
N1    C17   A    
C50   C82   A    
C44   C56   A    
O5    V1    S    
C65   C69   A    
O11   C7    A    
O15   V3    S    
O12   C8    A    
C62   C74   A    
C12   N8    S    
C61   C73   A    
N4    C40   S    
C56   C79   A    
C1    C60   S    
C63   C75   A    
C20   O27   S    
C29   C57   A    
N8    H40   S    
C28   C60   A    
C26   H13   S    
C31   C35   A    
O7    V3    S    
C30   C34   A    
N1    C37   S    
C21   H18   S    
O8    V4    S    
C17   C53   A    
C4    C57   S    
C20   C56   A    
C32   H4    S    
C19   C55   A    
C24   H19   S    
C21   C25   A    
O18   V4    S    
C74   H26   S    
N3    C19   A    
C14   C46   A    
C7    C9    S    
C42   C69   A    
C13   C45   A    
C52   C84   A    
C8    C10   S    
C23   H20   S    
C24   C28   A    
O9    V1    S    
C36   C40   A    
C15   C47   A    
C18   C54   A    
C36   H8    S    
O5    C1    A    
C77   H21   S    
C46   C50   A    
C49   C81   A    
N7    H37   S    
C22   C38   A    
C45   C49   A    
O8    C4    A    
N3    C39   S    
C54   C77   A    
N7    H38   S    
C9    C10   D    
C50   H10   S    
O9    C5    A    
C53   C78   A    
C18   O25   S    
C27   C59   A    
C42   C54   A    
C26   C58   A    
C28   H15   S    
C41   C53   A    
C51   H11   S    
C43   C55   A    
O6    V2    S    
C2    C59   S    
C76   H28   S    
C10   N6    S    
C30   H2    S    
C52   H12   S    
C25   H14   S    
N5    H34   S    
C78   H22   S    
C13   N1    A    
C68   C72   A    
N2    C38   S    
C15   N3    A    
N8    H39   S    
C22   C26   A    
C61   C69   A    
C16   N4    A    
C66   C70   A    
C3    O13   A    
C44   C48   A    
O6    C2    A    
C15   O23   S    
O11   V3    S    
C5    C11   S    
C35   H7    S    
O12   V4    S    
C6    C12   S    
N2    C18   A    
C64   C67   A    
C64   C72   A    
O20   V2    S    
C51   C83   A    
N5    H33   S    
C9    N5    S    
C33   H5    S    
C47   C51   A    
C3    C58   S    
O10   C6    A    
C34   C38   A    
C84   H32   S    
C30   C58   A    
N6    H36   S    
C63   C71   A    
C35   C39   A    
C68   C83   A    
C13   O21   S    
C11   N7    S    
C14   N2    A    
C41   C70   A    
C29   C33   A    
C67   C84   A    
C16   O24   S    
C31   C59   A    
C42   C46   A    
C4    O14   A    
C65   C82   A    
C41   C45   A    
C80   H24   S    
C67   C71   A    
C43   C72   A    
C32   C60   A    
C81   H29   S    
C43   C47   A    
C23   C39   A    
C76   C80   A    
C62   C65   A    
