data_str_m4_o1_o15_f0_acs.sym.180
_audit_creation_date              2012-12-11T14:46:02-0500
_audit_creation_method            fapswitch 2.2
_symmetry_space_group_name_H-M    P1
_symmetry_Int_Tables_number       1
_space_group_crystal_system       triclinic
_cell_length_a                    10.916982
_cell_length_b                    10.933775
_cell_length_c                    18.82969
_cell_angle_alpha                 89.954821
_cell_angle_beta                  89.973104
_cell_angle_gamma                 119.861123
_cell_volume                      1949.18131067

loop_
_atom_site_label
_atom_site_type_symbol
_atom_type_description
_atom_site_fract_x
_atom_site_fract_y
_atom_site_fract_z
_atom_type_partial_charge
C1    C     C_R   0.864660 0.637336 0.603562 0.550837
C2    C     C_R   0.422095 0.624192 0.777385 -0.111661
C3    C     C_R   0.400784 0.615351 0.705097 -0.131827
C4    C     C_R   0.323930 0.672562 0.675106 0.025378
C5    C     C_R   0.843571 0.170770 0.822813 -0.006013
C6    C     C_R   0.097582 0.242223 0.823246 0.249846
C7    C     C_R   0.214649 0.254830 0.786892 -0.089206
C8    C     C_R   0.204466 0.217894 0.715680 -0.174260
C9    C     C_R   0.079846 0.177522 0.678593 -0.097698
C10   C     C_R   0.962342 0.173618 0.712267 -0.022388
C11   C     C_R   0.966811 0.192587 0.787308 0.004155
C12   C     C_R   0.270528 0.632752 0.603703 0.551134
C13   C     C_R   0.718262 0.123252 0.709825 0.010029
C14   C     C_R   0.728993 0.160741 0.781623 0.015486
C15   C     C_R   0.586769 0.070664 0.674967 -0.068310
C16   C     C_R   0.476947 0.080680 0.706638 -0.122087
C17   C     C_R   0.496152 0.141151 0.773423 -0.140042
C18   C     C_R   0.621642 0.183369 0.810161 -0.072255
C19   C     C_R   0.841748 0.152923 0.672817 -0.038502
C20   C     C_R   0.726124 0.535463 0.713541 -0.138006
C21   C     C_R   0.717031 0.547036 0.786649 -0.153092
C22   C     C_R   0.802752 0.676764 0.819420 0.031284
C23   C     C_R   0.860807 0.221892 0.602019 0.537604
C24   C     C_R   0.887545 0.797136 0.778208 -0.130744
C25   C     C_R   0.894706 0.786320 0.705824 -0.145083
C26   C     C_R   0.819999 0.654572 0.673502 0.024006
C27   C     C_R   0.252395 0.536842 0.275942 -0.115016
C28   C     C_R   0.267118 0.551541 0.203409 -0.133360
C29   C     C_R   0.330874 0.686017 0.173120 0.028740
C30   C     C_R   0.364571 0.804163 0.215678 -0.141120
C31   C     C_R   0.347765 0.788863 0.289057 -0.147878
C32   C     C_R   0.297075 0.655421 0.319490 0.049358
C33   C     C_R   0.719114 0.139629 0.289832 -0.135887
C34   C     C_R   0.868965 0.637071 0.395839 0.577260
C35   C     C_R   0.716033 0.134218 0.217228 -0.132893
C36   C     C_R   0.828941 0.139498 0.178934 0.036225
C37   C     C_R   0.946764 0.152103 0.215290 -0.140980
C38   C     C_R   0.953749 0.167423 0.288963 -0.142231
C39   C     C_R   0.841419 0.166330 0.325995 0.038094
C40   C     C_R   0.962808 0.720695 0.277660 -0.179194
C41   C     C_R   0.948896 0.720923 0.205164 -0.150698
C42   C     C_R   0.814632 0.651731 0.174784 -0.014047
C43   C     C_R   0.695022 0.570495 0.217097 -0.120367
C44   C     C_R   0.709033 0.564118 0.290556 0.252925
C45   C     C_R   0.265747 0.630845 0.394665 0.553130
C46   C     C_R   0.843341 0.646366 0.321088 0.048323
C47   C     C_R   0.808259 0.106915 0.895365 0.589896
C48   C     C_R   0.400381 0.702639 0.895187 0.572453
C49   C     C_R   0.794014 0.696901 0.894823 0.541847
C50   C     C_R   0.804677 0.102021 0.104172 0.563801
C51   C     C_R   0.393054 0.704058 0.102999 0.556996
C52   C     C_R   0.797698 0.692953 0.104059 0.552644
C53   C     C_R   0.861268 0.226438 0.396618 0.542178
C54   C     C_R   0.274378 0.744897 0.717677 -0.126668
C55   C     C_R   0.298639 0.756385 0.790345 -0.122724
C56   C     C_R   0.368495 0.691782 0.820404 0.056573
Cr1   Cr    Cr6+3 0.791660 0.390250 0.499930 1.019235
Cr2   Cr    Cr6+3 0.098520 0.708290 0.500540 0.999842
Cr3   Cr    Cr6+3 0.109770 0.401430 0.499480 1.012819
Cr4   Cr    Cr6+3 0.874790 0.925890 0.000070 1.063798
Cr5   Cr    Cr6+3 0.574120 0.948670 0.999300 1.020657
Cr6   Cr    Cr6+3 0.551420 0.625320 0.000920 1.048897
H1    H     H_    0.211358 0.786860 0.695451 0.138549
H2    H     H_    0.378545 0.045178 0.678520 0.102395
H3    H     H_    0.570768 0.026480 0.622045 0.124414
H4    H     H_    0.412910 0.152818 0.797529 0.104578
H5    H     H_    0.666460 0.432405 0.689263 0.146878
H6    H     H_    0.645799 0.455480 0.817583 0.113215
H7    H     H_    0.949268 0.900639 0.801817 0.147794
H8    H     H_    0.965916 0.879526 0.675820 0.129597
H9    H     H_    0.205094 0.431810 0.297940 0.127844
H10   H     H_    0.237282 0.458356 0.171537 0.133685
H11   H     H_    0.411212 0.908517 0.192803 0.119464
H12   H     H_    0.259738 0.811330 0.823002 0.125232
H13   H     H_    0.376709 0.880467 0.321921 0.108852
H14   H     H_    0.628764 0.133127 0.317127 0.112793
H15   H     H_    0.622085 0.122166 0.191473 0.125223
H16   H     H_    0.032790 0.151347 0.186995 0.124827
H17   H     H_    0.048199 0.185449 0.316538 0.115850
H18   H     H_    0.068431 0.777951 0.299581 0.150585
H19   H     H_    0.042686 0.782948 0.173315 0.146182
H20   H     H_    0.590149 0.518337 0.194127 0.141569
H21   H     H_    0.480347 0.577343 0.799825 0.138019
H22   H     H_    0.438681 0.558459 0.673224 0.129961
H23   H     H_    0.315030 0.296226 0.813852 0.130321
H24   H     H_    0.295076 0.225097 0.688395 0.108731
H25   H     H_    0.075807 0.147385 0.623587 0.134706
H26   H     H_    0.634038 0.234589 0.860908 0.138887
O1    O     O_R   0.766500 0.250040 0.579790 -0.519184
O2    O     O_R   0.218690 0.701900 0.425960 -0.514139
O3    O     O_R   0.249490 0.516440 0.419420 -0.517123
O4    O     O_R   0.982880 0.281910 0.424890 -0.514429
O5    O     O_3   0.999980 0.499990 0.499980 -0.246278
O6    O     O_R   0.895110 0.806860 0.920430 -0.520555
O7    O     O_R   0.872260 0.046970 0.925000 -0.456090
O8    O     O_R   0.691430 0.085060 0.918550 -0.532335
O9    O     O_R   0.451490 0.822460 0.925250 -0.510302
O10   O     O_R   0.413330 0.603360 0.920440 -0.472437
O11   O     O_R   0.676110 0.626250 0.926750 -0.513948
O12   O     O_R   0.798570 0.516780 0.574780 -0.501551
O13   O     O_R   0.895350 0.809870 0.080950 -0.516276
O14   O     O_R   0.872490 0.049760 0.073800 -0.483834
O15   O     O_R   0.691680 0.088070 0.079070 -0.529728
O16   O     O_R   0.451720 0.825250 0.074050 -0.510419
O17   O     O_R   0.413580 0.606370 0.080960 -0.506294
O18   O     O_R   0.676340 0.629040 0.075550 -0.507191
O19   O     O_3   0.666780 0.833290 0.000090 -0.266910
O20   O     O_R   0.984000 0.732950 0.581090 -0.529786
O21   O     O_R   0.218600 0.700890 0.574760 -0.512156
O22   O     O_R   0.249390 0.515350 0.579940 -0.509807
O23   O     O_R   0.982790 0.280900 0.573700 -0.501007
O24   O     O_R   0.766600 0.251130 0.419260 -0.539578
O25   O     O_R   0.798660 0.517790 0.425980 -0.473272
O26   O     O_R   0.984100 0.734040 0.420570 -0.538822
O27   O     O_3   0.590879 0.488535 0.332949 -0.557609
C57   C     C_3   0.529633 0.341849 0.319914 0.024277
H27   H     H_    0.539713 0.291476 0.369143 0.168599
H28   H     H_    0.580888 0.314252 0.276245 0.109269
C58   C     C_3   0.372925 0.278939 0.302575 -0.274671
H29   H     H_    0.319361 0.300404 0.347056 0.182008
H30   H     H_    0.361465 0.329134 0.253618 0.158958
C59   C     C_3   0.301990 0.119839 0.290995 -0.497025
H31   H     H_    0.354796 0.095726 0.247184 0.138997
H32   H     H_    0.189443 0.077376 0.276568 0.151519
H33   H     H_    0.306935 0.066796 0.340351 0.146688
Cl1   Cl    Cl    0.128798 0.313998 0.909647 -0.608920

loop_
_geom_bond_atom_site_label_1
_geom_bond_atom_site_label_2
_ccdc_geom_bond_type
C55   C56   A    
Cr2   O21   S    
C41   C42   A    
C14   C18   A    
C20   H5    S    
C35   C36   A    
C12   O22   A    
Cr5   O8    S    
C27   H9    S    
C7    C8    A    
Cr6   O17   S    
C39   C53   S    
C34   O25   A    
C40   C46   A    
C48   O9    A    
C5    C47   S    
C17   H4    S    
C33   C39   A    
Cr1   O1    S    
C28   C29   A    
Cr5   O15   S    
Cr2   O5    S    
C5    C11   A    
C30   C31   A    
Cr1   O24   S    
C38   H17   S    
C15   C16   A    
C15   H3    S    
Cr3   O22   S    
C57   H27   S    
C32   C45   S    
Cr6   O10   S    
C55   H12   S    
C44   O27   S    
C8    C9    A    
Cr3   O23   S    
C47   O8    A    
C23   O1    A    
C34   C46   S    
C49   O6    A    
C4    C12   S    
C29   C30   A    
C9    C10   A    
C8    H24   S    
C52   O18   A    
C50   O15   A    
Cr1   O5    S    
C21   C22   A    
C2    H21   S    
C28   H10   S    
Cr4   O14   S    
C1    O12   A    
C12   O21   A    
C25   C26   A    
C44   C46   A    
C24   H7    S    
C58   H30   S    
C38   C39   A    
C52   O13   A    
C13   C19   A    
Cr5   O16   S    
C24   C25   A    
C6    Cl1   S    
C6    C11   A    
C30   H11   S    
C16   C17   A    
Cr1   O25   S    
Cr6   O19   S    
C51   O16   A    
Cr1   O12   S    
C35   H15   S    
C18   H26   S    
C19   C23   S    
C43   C44   A    
C37   C38   A    
C16   H2    S    
C49   O11   A    
C33   H14   S    
C31   H13   S    
C31   C32   A    
C10   C19   A    
C51   O17   A    
C41   H19   S    
C53   O4    A    
C40   H18   S    
C17   C18   A    
Cr3   O3    S    
C45   O2    A    
Cr2   O2    S    
C5    C14   A    
Cr4   O19   S    
C22   C49   S    
C53   O24   A    
C40   C41   A    
C50   O14   A    
C13   C15   A    
C21   H6    S    
C1    C26   S    
C22   C24   A    
C42   C43   A    
C59   H32   S    
Cr4   O13   S    
C27   C28   A    
C36   C50   S    
C29   C51   S    
C58   C59   S    
C48   C56   S    
C54   C55   A    
C36   C37   A    
C4    C54   A    
C27   C32   A    
Cr5   O9    S    
C58   H29   S    
C6    C7    A    
Cr6   O18   S    
C34   O26   A    
C48   O10   A    
C37   H16   S    
C57   C58   S    
C59   H33   S    
C2    C3    A    
C23   O23   A    
C2    C56   A    
C9    H25   S    
O27   C57   S    
C7    H23   S    
C20   C26   A    
C33   C35   A    
C57   H28   S    
Cr2   O20   S    
Cr3   O4    S    
C45   O3    A    
C10   C11   A    
C1    O20   A    
Cr6   O11   S    
Cr4   O7    S    
C20   C21   A    
C54   H1    S    
Cr5   O19   S    
C3    H22   S    
Cr2   O26   S    
C43   H20   S    
C47   O7    A    
C25   H8    S    
Cr3   O5    S    
C59   H31   S    
C13   C14   A    
C3    C4    A    
C42   C52   S    
Cr4   O6    S    
