data_str_m3_o12_o18_f0_pcu.sym.177
_audit_creation_date              2012-12-10T17:18:57-0500
_audit_creation_method            fapswitch 2.2
_symmetry_space_group_name_H-M    P1
_symmetry_Int_Tables_number       1
_space_group_crystal_system       triclinic
_cell_length_a                    10.293538
_cell_length_b                    10.35794
_cell_length_c                    13.550547
_cell_angle_alpha                 92.925314
_cell_angle_beta                  101.308131
_cell_angle_gamma                 94.000222
_cell_volume                      1410.1625672

loop_
_atom_site_label
_atom_site_type_symbol
_atom_type_description
_atom_site_fract_x
_atom_site_fract_y
_atom_site_fract_z
_atom_type_partial_charge
C1    C     C_R   0.047196 0.734543 0.488124 0.934150
C2    C     C_R   0.948055 0.264468 0.502526 0.944375
C3    C     C_R   0.434430 0.505696 0.138599 0.114723
C4    C     C_R   0.478677 0.309969 0.913099 0.049001
C5    C     C_R   0.304934 0.543736 0.106857 0.413426
C6    C     C_R   0.614679 0.285977 0.936640 0.440666
C7    C     C_2   0.055731 0.870228 0.463457 -0.377343
C8    C     C_2   0.919001 0.124320 0.488078 -0.389644
C9    C     C_2   0.950285 0.918926 0.404494 0.224774
C10   C     C_2   0.942382 0.059679 0.404856 0.205973
C11   C     C_2   0.432977 0.520503 0.492836 0.270193
C12   C     C_2   0.573233 0.470767 0.517988 0.293576
C13   C     C_R   0.094408 0.514641 0.686208 0.891500
C14   C     C_R   0.905926 0.487052 0.313485 0.881804
C15   C     C_R   0.142788 0.520209 0.795057 -0.113370
C16   C     C_R   0.851449 0.461907 0.205598 -0.096602
C17   C     C_R   0.122719 0.585961 0.965793 0.488638
C18   C     C_R   0.834509 0.325719 0.051657 0.526816
C19   C     C_R   0.071274 0.575520 0.861517 -0.290491
C20   C     C_R   0.908090 0.377855 0.145536 -0.347757
C21   C     C_R   0.262310 0.469347 0.832190 -0.223996
C22   C     C_R   0.727338 0.502757 0.168278 -0.212139
C23   C     C_R   0.309628 0.464862 0.935608 -0.007221
C24   C     C_R   0.641810 0.433309 0.087358 -0.036223
C25   C     C_R   0.244355 0.531396 0.003644 -0.055913
C26   C     C_R   0.697526 0.348560 0.023807 -0.001312
C27   C     C_R   0.429723 0.407740 0.970779 -0.011172
C28   C     C_R   0.503711 0.450928 0.066739 -0.032495
H1    H     H_    0.695523 0.583594 0.208095 0.178849
H2    H     H_    0.320707 0.435767 0.779355 0.188115
H3    H     H_    0.006936 0.348525 0.173160 0.143844
H4    H     H_    0.978466 0.616222 0.831958 0.147696
H5    H     H_    0.897413 0.072165 0.551319 0.129981
H6    H     H_    0.140464 0.934000 0.502576 0.123022
N1    N     N_2   0.322180 0.446120 0.460900 -0.045624
N2    N     N_2   0.677820 0.553880 0.539100 -0.064769
O1    O     O_R   0.935190 0.693030 0.507870 -0.596571
O2    O     O_R   0.064810 0.306970 0.492130 -0.593176
O3    O     O_R   0.142080 0.658430 0.482770 -0.592737
O4    O     O_R   0.857920 0.341570 0.517230 -0.592452
O5    O     O_R   0.969700 0.527180 0.651960 -0.606741
O6    O     O_R   0.030300 0.472820 0.348040 -0.595496
O7    O     O_R   0.176600 0.492580 0.626860 -0.607859
O8    O     O_R   0.823400 0.507420 0.373140 -0.608424
Zn1   Zn    Zn3+2 0.861850 0.523100 0.516760 0.921876
Zn2   Zn    Zn3+2 0.138150 0.476900 0.483240 0.939174
O9    O     O_3   0.241767 0.595675 0.178608 -0.712843
H7    H     H_    0.155375 0.544018 0.171368 0.362595
O10   O     O_3   0.667212 0.198509 0.877709 -0.698897
H8    H     H_    0.613187 0.190102 0.808393 0.333782
O11   O     O_3   0.058217 0.653261 0.029935 -0.750224
H9    H     H_    0.975097 0.683093 0.990880 0.332313
O12   O     O_3   0.892842 0.247465 0.990010 -0.700215
H10   H     H_    0.988402 0.244627 0.020349 0.320346
C29   C     C_3   0.482506 0.502366 0.251144 -0.830907
H11   H     H_    0.554166 0.428124 0.270957 0.237197
H12   H     H_    0.523995 0.600044 0.285078 0.245818
H13   H     H_    0.397684 0.473886 0.285895 0.261633
C30   C     C_3   0.383604 0.213643 0.840490 -0.916648
H14   H     H_    0.278995 0.218980 0.848894 0.262801
H15   H     H_    0.391040 0.229631 0.761308 0.223646
H16   H     H_    0.407854 0.113087 0.856811 0.261902
C31   C     C_3   0.949501 0.125264 0.308771 -0.857364
H17   H     H_    0.959310 0.053722 0.247293 0.251151
H18   H     H_    0.857342 0.174528 0.284023 0.230079
H19   H     H_    0.036399 0.196927 0.320118 0.242399
C32   C     C_3   0.839372 0.834375 0.335914 -0.831410
H20   H     H_    0.774672 0.893646 0.283950 0.235511
H21   H     H_    0.881936 0.763910 0.289203 0.227358
H22   H     H_    0.774588 0.782589 0.380036 0.252231
C33   C     C_3   0.589645 0.336391 0.555341 -0.868900
H23   H     H_    0.503655 0.302219 0.587928 0.210462
H24   H     H_    0.602653 0.267050 0.493592 0.240498
H25   H     H_    0.677692 0.336892 0.617570 0.259934
C34   C     C_3   0.420734 0.664812 0.499441 -0.851839
H26   H     H_    0.516428 0.722310 0.502414 0.212976
H27   H     H_    0.354888 0.692099 0.429850 0.273771
H28   H     H_    0.381058 0.692975 0.567193 0.244351
C35   C     C_3   0.698834 0.617787 0.639898 -0.626123
H29   H     H_    0.740961 0.550976 0.697088 0.215539
H30   H     H_    0.770631 0.703950 0.644798 0.222825
H31   H     H_    0.606438 0.650461 0.660016 0.181362
C36   C     C_3   0.324161 0.316474 0.415414 -0.667966
H32   H     H_    0.241256 0.301273 0.349295 0.213932
H33   H     H_    0.415062 0.302093 0.385423 0.183360
H34   H     H_    0.308975 0.242987 0.469697 0.220917

loop_
_geom_bond_atom_site_label_1
_geom_bond_atom_site_label_2
_ccdc_geom_bond_type
C29   H11   S    
C31   H18   S    
C22   H1    S    
C10   C31   S    
C18   C26   A    
C17   O11   S    
C13   O5    A    
O12   H10   S    
C15   C19   A    
C5    O9    S    
C3    C28   A    
C24   C26   A    
O6    Zn2   S    
C18   O12   S    
C3    C29   S    
O9    H7    S    
C14   C16   S    
C23   C27   A    
C12   N2    D    
C9    C10   S    
C1    O1    A    
C14   O6    A    
C31   H19   S    
C30   H14   S    
C19   H4    S    
C34   H28   S    
C21   C23   A    
O4    Zn1   S    
C30   H15   S    
C32   H20   S    
C4    C6    A    
C35   H30   S    
N1    C36   S    
O11   H9    S    
C32   H21   S    
C34   H26   S    
C9    C32   S    
C33   H25   S    
C2    O2    A    
C36   H32   S    
C16   C20   A    
N2    Zn1   S    
C34   H27   S    
O3    Zn2   S    
C5    C25   A    
C36   H33   S    
C12   C33   S    
C13   C15   S    
C7    H6    S    
C22   C24   A    
O1    Zn1   S    
C13   O7    A    
C4    C27   A    
O8    Zn1   S    
C14   O8    A    
C7    C9    D    
C30   H16   S    
C16   C22   A    
C1    C7    S    
C2    C8    S    
C24   C28   A    
C31   H17   S    
C3    C5    A    
N2    C35   S    
C35   H31   S    
C11   C12   S    
C21   H2    S    
C32   H22   S    
C17   C25   A    
C29   H12   S    
C33   H23   S    
C11   C34   S    
C6    C26   A    
C4    C30   S    
C11   N1    D    
C17   C19   A    
C18   C20   A    
C8    H5    S    
C23   C25   A    
C6    O10   S    
O7    Zn2   S    
O2    Zn2   S    
C1    O3    A    
C35   H29   S    
C2    O4    A    
C15   C21   A    
C36   H34   S    
C8    C10   D    
O10   H8    S    
C29   H13   S    
C33   H24   S    
C27   C28   A    
O5    Zn1   S    
N1    Zn2   S    
C20   H3    S    
