data_str_m4_o11_o15_f0_acs.sym.103
_audit_creation_date              2012-12-11T14:03:47-0500
_audit_creation_method            fapswitch 2.2
_symmetry_space_group_name_H-M    P1
_symmetry_Int_Tables_number       1
_space_group_crystal_system       triclinic
_cell_length_a                    19.071952
_cell_length_b                    10.940584
_cell_length_c                    19.006679
_cell_angle_alpha                 89.999883
_cell_angle_beta                  90.429987
_cell_angle_gamma                 90.00065
_cell_volume                      3965.78951362

loop_
_atom_site_label
_atom_site_type_symbol
_atom_type_description
_atom_site_fract_x
_atom_site_fract_y
_atom_site_fract_z
_atom_type_partial_charge
C1    C     C_R   0.223047 0.525577 0.640470 0.661697
C2    C     C_R   0.776692 0.525012 0.359606 0.673493
C3    C     C_R   0.723308 0.025013 0.640394 0.673490
C4    C     C_R   0.276953 0.025576 0.359530 0.661699
C5    C     C_2   0.291704 0.869237 0.538472 0.213271
C6    C     C_2   0.723758 0.849701 0.468749 0.207132
C7    C     C_2   0.776242 0.349703 0.531251 0.207132
C8    C     C_2   0.208296 0.369236 0.461528 0.213270
C9    C     C_R   0.962023 0.653265 0.437278 0.006476
C10   C     C_R   0.042595 0.647089 0.561929 -0.016764
C11   C     C_R   0.457405 0.147088 0.438071 -0.016772
C12   C     C_R   0.537976 0.153266 0.562721 0.006482
C13   C     C_R   0.969830 0.881189 0.441986 -0.076025
C14   C     C_R   0.076413 0.857315 0.538993 -0.056923
C15   C     C_R   0.423587 0.357313 0.461007 -0.056916
C16   C     C_R   0.530169 0.381189 0.558015 -0.076035
C17   C     C_R   0.010229 0.982656 0.459803 -0.109448
C18   C     C_R   0.065655 0.969649 0.506648 -0.094913
C19   C     C_R   0.434344 0.469647 0.493352 -0.094907
C20   C     C_R   0.489770 0.482655 0.540197 -0.109457
C21   C     C_R   0.033950 0.756632 0.524600 0.013186
C22   C     C_R   0.986832 0.763494 0.467897 0.022608
C23   C     C_R   0.513167 0.263494 0.532103 0.022610
C24   C     C_R   0.466049 0.256631 0.475400 0.013187
C25   C     C_R   0.021171 0.535609 0.529968 0.015456
C26   C     C_R   0.974984 0.539446 0.472320 0.017875
C27   C     C_R   0.525015 0.039446 0.527680 0.017878
C28   C     C_R   0.478828 0.035609 0.470031 0.015452
C29   C     C_R   0.044280 0.419255 0.554340 -0.076611
C30   C     C_R   0.943861 0.427526 0.450771 -0.075095
C31   C     C_R   0.556139 0.927528 0.549228 -0.075104
C32   C     C_R   0.455720 0.919254 0.445660 -0.076605
C33   C     C_R   0.013483 0.311618 0.531397 -0.108408
C34   C     C_R   0.962167 0.316267 0.480247 -0.095434
C35   C     C_R   0.537832 0.816268 0.519752 -0.095441
C36   C     C_R   0.486516 0.811617 0.468602 -0.108400
C37   C     C_2   0.254449 0.924015 0.918601 -0.028447
C38   C     C_2   0.745566 0.923983 0.081390 -0.028504
C39   C     C_2   0.754446 0.424008 0.918602 -0.028308
C40   C     C_2   0.245563 0.423989 0.081392 -0.028645
C41   C     C_2   0.255112 0.938420 0.073683 -0.067926
C42   C     C_2   0.744907 0.938390 0.926308 -0.067783
C43   C     C_2   0.755108 0.438414 0.073685 -0.068017
C44   C     C_2   0.244904 0.438395 0.926309 -0.067692
C45   C     C_R   0.228224 0.878552 0.649887 0.567740
C46   C     C_R   0.773653 0.874757 0.351954 0.579063
C47   C     C_R   0.726347 0.374756 0.648046 0.579065
C48   C     C_R   0.271776 0.378553 0.350113 0.567738
C49   C     C_2   0.235371 0.028865 0.029489 -0.132836
C50   C     C_2   0.764656 0.028831 0.970502 -0.132789
C51   C     C_2   0.735366 0.528859 0.029491 -0.132909
C52   C     C_2   0.264653 0.528837 0.970503 -0.132719
C53   C     C_2   0.219931 0.010166 0.954416 0.215753
C54   C     C_2   0.780082 0.010144 0.045579 0.215767
C55   C     C_2   0.719928 0.510161 0.954417 0.215949
C56   C     C_2   0.280080 0.510148 0.045580 0.215568
C57   C     C_2   0.991399 0.660344 0.913627 0.269539
C58   C     C_2   0.008740 0.660393 0.086443 0.268984
C59   C     C_2   0.491430 0.160328 0.913640 0.269459
C60   C     C_2   0.508768 0.160408 0.086454 0.269051
C61   C     C_2   0.983185 0.590411 0.033724 0.166840
C62   C     C_2   0.017248 0.590656 0.966332 0.166746
C63   C     C_2   0.483298 0.090337 0.033733 0.166681
C64   C     C_2   0.517361 0.090721 0.966341 0.166908
C65   C     C_R   0.062059 0.648898 0.637797 0.523787
C66   C     C_R   0.939442 0.650284 0.362541 0.532005
C67   C     C_R   0.560557 0.150285 0.637459 0.532011
C68   C     C_R   0.437941 0.148897 0.362203 0.523781
C69   C     C_R   0.237980 0.469973 0.852406 0.597248
C70   C     C_R   0.762023 0.469980 0.147591 0.598490
C71   C     C_R   0.737981 0.969970 0.852405 0.598748
C72   C     C_R   0.262024 0.969983 0.147590 0.596992
C73   C     C_R   0.228099 0.874557 0.852379 0.579451
C74   C     C_R   0.771902 0.874554 0.147621 0.581000
C75   C     C_R   0.728099 0.374557 0.852378 0.581041
C76   C     C_R   0.271902 0.374555 0.147621 0.579409
C77   C     C_R   0.026935 0.652624 0.847872 0.667841
C78   C     C_R   0.973052 0.652624 0.152118 0.667766
C79   C     C_R   0.526926 0.152625 0.847864 0.668005
C80   C     C_R   0.473043 0.152623 0.152110 0.667593
C81   C     C_2   0.249128 0.929154 0.582443 -0.045567
C82   C     C_2   0.756947 0.919132 0.421475 -0.050106
C83   C     C_2   0.743053 0.419132 0.578524 -0.050102
C84   C     C_2   0.250872 0.429154 0.417556 -0.045570
C85   C     C_2   0.280331 0.008144 0.435250 0.234682
C86   C     C_2   0.721844 0.999726 0.565945 0.249541
C87   C     C_2   0.778156 0.499727 0.434055 0.249532
C88   C     C_2   0.219669 0.508143 0.564750 0.234692
C89   C     C_2   0.284081 0.892922 0.461676 0.182867
C90   C     C_2   0.730970 0.882985 0.544095 0.187579
C91   C     C_2   0.769030 0.382985 0.455906 0.187580
C92   C     C_2   0.215918 0.392922 0.538324 0.182867
Cr1   Cr    Cr6+3 0.113970 0.508630 0.747920 1.071773
Cr2   Cr    Cr6+3 0.886030 0.508630 0.252080 1.072770
Cr3   Cr    Cr6+3 0.613970 0.008630 0.747920 1.072726
Cr4   Cr    Cr6+3 0.386030 0.008630 0.252080 1.071818
Cr5   Cr    Cr6+3 0.269200 0.666740 0.749850 1.080667
Cr6   Cr    Cr6+3 0.730800 0.666740 0.250150 1.081841
Cr7   Cr    Cr6+3 0.769200 0.166740 0.749850 1.081817
Cr8   Cr    Cr6+3 0.230800 0.166740 0.250150 1.080690
Cr9   Cr    Cr6+3 0.112300 0.820070 0.749800 1.083771
Cr10  Cr    Cr6+3 0.887700 0.820070 0.250200 1.072416
Cr11  Cr    Cr6+3 0.612300 0.320070 0.749800 1.072350
Cr12  Cr    Cr6+3 0.387700 0.320070 0.250200 1.083837
H1    H     H_    0.299314 0.878035 0.942218 0.039567
H2    H     H_    0.700719 0.877966 0.057763 0.038983
H3    H     H_    0.799308 0.378023 0.942222 0.039262
H4    H     H_    0.200713 0.377978 0.057766 0.039286
O1    O     O_R   0.043230 0.549300 0.667990 -0.528120
O2    O     O_R   0.956770 0.549300 0.332010 -0.526079
O3    O     O_R   0.543230 0.049300 0.667990 -0.526096
O4    O     O_R   0.456770 0.049300 0.332010 -0.528101
O5    O     O_R   0.262920 0.788600 0.824420 -0.530785
O6    O     O_R   0.737080 0.788600 0.175580 -0.530837
O7    O     O_R   0.762920 0.288600 0.824420 -0.530832
O8    O     O_R   0.237080 0.288600 0.175580 -0.530790
O9    O     O_R   0.167530 0.905110 0.830340 -0.430289
O10   O     O_R   0.832470 0.905110 0.169660 -0.430149
O11   O     O_R   0.667530 0.405110 0.830340 -0.430163
O12   O     O_R   0.332470 0.405110 0.169660 -0.430275
O13   O     O_R   0.054010 0.748440 0.822860 -0.477124
O14   O     O_R   0.945990 0.748440 0.177140 -0.477070
O15   O     O_R   0.554010 0.248440 0.822860 -0.477243
O16   O     O_R   0.445990 0.248440 0.177140 -0.476951
O17   O     O_3   0.165160 0.665150 0.749190 -0.341773
O18   O     O_3   0.834840 0.665150 0.250810 -0.337450
O19   O     O_3   0.665160 0.165150 0.749190 -0.337299
O20   O     O_3   0.334840 0.165150 0.250810 -0.341924
O21   O     O_R   0.178620 0.457600 0.674100 -0.508465
O22   O     O_R   0.821380 0.457600 0.325900 -0.519473
O23   O     O_R   0.678620 0.957600 0.674100 -0.519505
O24   O     O_R   0.321380 0.957600 0.325900 -0.508433
O25   O     O_R   0.284680 0.542100 0.669460 -0.459060
O26   O     O_R   0.715320 0.542100 0.330540 -0.452399
O27   O     O_R   0.784680 0.042100 0.669460 -0.452439
O28   O     O_R   0.215320 0.042100 0.330540 -0.459021
O29   O     O_R   0.262860 0.790390 0.676650 -0.442145
O30   O     O_R   0.737140 0.790390 0.323350 -0.450040
O31   O     O_R   0.762860 0.290390 0.676650 -0.450053
O32   O     O_R   0.237140 0.290390 0.323350 -0.442133
O33   O     O_R   0.167460 0.907030 0.670940 -0.553172
O34   O     O_R   0.832540 0.907030 0.329060 -0.559441
O35   O     O_R   0.667460 0.407030 0.670940 -0.559454
O36   O     O_R   0.332540 0.407030 0.329060 -0.553157
O37   O     O_R   0.053950 0.750220 0.675100 -0.484892
O38   O     O_R   0.946050 0.750220 0.324900 -0.505687
O39   O     O_R   0.553950 0.250220 0.675100 -0.505727
O40   O     O_R   0.446050 0.250220 0.324900 -0.484850
O41   O     O_R   0.043300 0.547370 0.827390 -0.479612
O42   O     O_R   0.956700 0.547370 0.172610 -0.478993
O43   O     O_R   0.543300 0.047370 0.827390 -0.479272
O44   O     O_R   0.456700 0.047370 0.172610 -0.479331
O45   O     O_R   0.178690 0.455820 0.821860 -0.458118
O46   O     O_R   0.821310 0.455820 0.178140 -0.458037
O47   O     O_R   0.678690 0.955820 0.821860 -0.457895
O48   O     O_R   0.321310 0.955820 0.178140 -0.458262
O49   O     O_R   0.284750 0.540170 0.828860 -0.504190
O50   O     O_R   0.715250 0.540170 0.171140 -0.503426
O51   O     O_R   0.784750 0.040170 0.828860 -0.503560
O52   O     O_R   0.215250 0.040170 0.171140 -0.504055
O53   O     O_3   0.277541 0.795540 0.415435 -0.688682
H5    H     H_    0.281172 0.718199 0.441839 0.355417
O54   O     O_3   0.748723 0.795178 0.593664 -0.685146
H6    H     H_    0.757883 0.717112 0.569538 0.356677
O55   O     O_3   0.751277 0.295178 0.406336 -0.685138
H7    H     H_    0.742118 0.217111 0.430463 0.356678
O56   O     O_3   0.222458 0.295539 0.584565 -0.688689
H8    H     H_    0.218828 0.218199 0.558161 0.355416
O57   O     O_3   0.168993 0.080056 0.921267 -0.649400
H9    H     H_    0.148279 0.136499 0.956248 0.325367
O58   O     O_3   0.831001 0.080064 0.078738 -0.649487
H10   H     H_    0.851717 0.136511 0.043761 0.325341
O59   O     O_3   0.668993 0.580055 0.921267 -0.649558
H11   H     H_    0.648278 0.636498 0.956247 0.325333
O60   O     O_3   0.331001 0.580064 0.078738 -0.649330
H12   H     H_    0.351716 0.636511 0.043761 0.325374
H13   H     H_    0.267346 0.846649 0.055932 0.100602
H14   H     H_    0.732665 0.846621 0.944057 0.100607
H15   H     H_    0.767343 0.346644 0.055934 0.100616
H16   H     H_    0.232662 0.346626 0.944059 0.100593
O61   O     O_3   0.922265 0.522750 0.042062 -0.708812
H17   H     H_    0.912246 0.478150 0.997653 0.325137
O62   O     O_3   0.078364 0.523573 0.957921 -0.709091
H18   H     H_    0.088558 0.479047 0.002315 0.324962
O63   O     O_3   0.422440 0.022498 0.042055 -0.708641
H19   H     H_    0.412473 0.977873 0.997643 0.325185
O64   O     O_3   0.578536 0.023808 0.957913 -0.709248
H20   H     H_    0.588778 0.979301 0.002302 0.324917
O65   O     O_3   0.064365 0.741602 0.081101 -0.713112
H21   H     H_    0.083218 0.742555 0.032791 0.334570
O66   O     O_3   0.935528 0.741022 0.919014 -0.712485
H22   H     H_    0.916934 0.742214 0.967425 0.334516
O67   O     O_3   0.564315 0.241782 0.081119 -0.712263
H23   H     H_    0.583229 0.242689 0.032833 0.334547
O68   O     O_3   0.435488 0.240851 0.919038 -0.713329
H24   H     H_    0.416962 0.242105 0.967475 0.334534
O69   O     O_3   0.333101 0.774500 0.563149 -0.649064
H25   H     H_    0.362611 0.745211 0.524123 0.312082
O70   O     O_3   0.689949 0.743726 0.448058 -0.649009
H26   H     H_    0.670353 0.703748 0.490228 0.321956
O71   O     O_3   0.810052 0.243729 0.551943 -0.649015
H27   H     H_    0.829647 0.203751 0.509773 0.321955
O72   O     O_3   0.166898 0.274497 0.436852 -0.649056
H28   H     H_    0.137388 0.245209 0.475878 0.312083
O73   O     O_3   0.293984 0.112083 0.474303 -0.783810
H29   H     H_    0.324054 0.090964 0.515228 0.314685
O74   O     O_3   0.694806 0.092008 0.524115 -0.789208
H30   H     H_    0.668446 0.056863 0.483920 0.310973
O75   O     O_3   0.805194 0.592010 0.475885 -0.789210
H31   H     H_    0.831554 0.556866 0.516080 0.310972
O76   O     O_3   0.206016 0.612082 0.525696 -0.783807
H32   H     H_    0.175947 0.590962 0.484772 0.314687
H33   H     H_    0.216017 0.001805 0.562134 0.068620
H34   H     H_    0.786059 0.999100 0.439157 0.072056
H35   H     H_    0.713941 0.499099 0.560843 0.072057
H36   H     H_    0.283983 0.501806 0.437866 0.068618
H37   H     H_    0.000454 0.069463 0.434768 0.118398
H38   H     H_    0.100136 0.045681 0.517788 0.109175
H39   H     H_    0.399864 0.545678 0.482212 0.109176
H40   H     H_    0.499546 0.569463 0.565232 0.118384
H41   H     H_    0.926021 0.896642 0.407939 0.168612
H42   H     H_    0.121743 0.842774 0.569733 0.153378
H43   H     H_    0.378257 0.342771 0.430266 0.153375
H44   H     H_    0.573978 0.396644 0.592061 0.168612
H45   H     H_    0.904702 0.422687 0.411074 0.164864
H46   H     H_    0.086047 0.408901 0.591818 0.169546
H47   H     H_    0.413953 0.908899 0.408181 0.169549
H48   H     H_    0.595297 0.922689 0.588926 0.164863
H49   H     H_    0.029704 0.224813 0.553341 0.115734
H50   H     H_    0.937176 0.233690 0.461894 0.103842
H51   H     H_    0.562824 0.733692 0.538106 0.103841
H52   H     H_    0.470295 0.724812 0.446658 0.115746
H53   H     H_    0.224619 0.119631 0.050172 0.132476
H54   H     H_    0.775409 0.119598 0.949821 0.132453
H55   H     H_    0.724615 0.619625 0.050173 0.132377
H56   H     H_    0.275406 0.619603 0.949821 0.132552

loop_
_geom_bond_atom_site_label_1
_geom_bond_atom_site_label_2
_ccdc_geom_bond_type
C19   H39   S    
C7    C83   D    
O72   H28   S    
O55   H7    S    
C72   O48   A    
C87   C91   D    
C87   O75   S    
O71   H27   S    
C14   C18   A    
Cr1   O41   S    
C35   C36   A    
Cr8   O8    S    
Cr5   O25   S    
O58   H10   S    
Cr11  O15   S    
C44   H16   S    
C45   C81   S    
O53   H5    S    
Cr11  O39   S    
C57   C62   D    
C46   O34   A    
Cr3   O19   S    
O73   H29   S    
C15   C19   A    
Cr4   O4    S    
C12   C23   A    
Cr9   O37   S    
C59   C64   D    
Cr2   O22   S    
Cr6   O30   S    
C60   C63   D    
C6    C82   D    
C32   C36   A    
C14   C21   A    
C41   H13   S    
C42   H14   S    
C57   O66   S    
C1    O21   A    
Cr7   O7    S    
C6    O70   S    
Cr1   O21   S    
C9    C22   A    
Cr6   O6    S    
C68   O40   A    
Cr12  O12   S    
C74   O6    A    
C29   C33   A    
C11   C24   A    
C73   O5    A    
C45   O33   A    
C48   O36   A    
O75   H31   S    
C51   H55   S    
C68   O4    A    
C41   C49   D    
C50   H54   S    
Cr12  O40   S    
C9    C66   S    
C55   O59   S    
C49   H53   S    
Cr8   O32   S    
C76   O8    A    
C62   O62   S    
C46   C82   S    
O54   H6    S    
Cr9   O33   S    
C52   H56   S    
C81   H33   S    
Cr6   O50   S    
C63   O63   S    
C88   O76   S    
Cr12  O20   S    
C60   O67   S    
C69   O49   A    
C23   C24   A    
Cr12  O36   S    
C8    C92   S    
C39   C75   S    
Cr11  O19   S    
C51   C55   S    
C61   C62   S    
Cr10  O10   S    
C16   C20   A    
C4    O28   A    
Cr4   O24   S    
C37   C53   D    
C44   C52   D    
C58   C61   D    
C89   O53   S    
C71   O47   A    
O70   H26   S    
C8    C84   D    
C21   C22   A    
C3    C86   S    
Cr3   O23   S    
C20   H40   S    
C30   H45   S    
Cr7   O31   S    
C34   H50   S    
C29   H46   S    
C33   H49   S    
Cr5   O29   S    
C14   H42   S    
C9    C26   A    
C17   C18   A    
Cr2   O18   S    
C10   C21   A    
C25   C29   A    
C74   O10   A    
C12   C67   S    
C39   C55   D    
C1    O25   A    
C73   O9    A    
C30   C34   A    
C56   O60   S    
C85   O73   S    
O74   H30   S    
O57   H9    S    
C88   C92   D    
C28   C32   A    
C75   O11   A    
Cr5   O17   S    
C86   C90   D    
C59   C79   S    
O56   H8    S    
C48   O32   A    
Cr7   O19   S    
C4    C85   S    
C12   C27   A    
C59   O68   S    
C25   C26   A    
O61   H17   S    
C27   C31   A    
Cr2   O2    S    
Cr9   O13   S    
C40   C76   S    
C70   O50   A    
Cr5   O49   S    
C38   H2    S    
C39   H3    S    
O62   H18   S    
C37   H1    S    
C57   C77   S    
Cr4   O20   S    
C5    C81   D    
Cr8   O52   S    
C78   O14   A    
Cr9   O17   S    
O76   H32   S    
C38   C54   D    
C32   H47   S    
C36   H52   S    
C7    C91   S    
C58   O65   S    
C45   O29   A    
Cr7   O51   S    
Cr7   O27   S    
C2    C87   S    
C40   C56   D    
C76   O12   A    
C43   H15   S    
C69   O45   A    
C65   O1    A    
Cr10  O14   S    
C42   C50   D    
C41   C72   S    
C10   C25   A    
C67   O3    A    
C15   C24   A    
C26   C30   A    
C16   C23   A    
C47   C83   S    
C82   H34   S    
C67   O39   A    
C5    O69   S    
C3    O23   A    
C16   H44   S    
Cr3   O43   S    
C65   O37   A    
C18   H38   S    
C70   O46   A    
C17   H37   S    
C11   C68   S    
C78   O42   A    
C79   O43   A    
C38   C74   S    
C10   C65   S    
O65   H21   S    
C80   O44   A    
C37   C73   S    
C60   C80   S    
C85   C89   D    
Cr8   O20   S    
C54   O58   S    
C91   O55   S    
C8    O72   S    
Cr11  O11   S    
C47   O35   A    
C13   H41   S    
C63   C64   S    
Cr10  O18   S    
Cr11  O35   S    
C86   O74   S    
C83   H35   S    
C2    O26   A    
C77   O41   A    
Cr12  O16   S    
C53   O57   S    
C43   C70   S    
C35   H51   S    
C71   O51   A    
Cr6   O26   S    
C61   O61   S    
C72   O52   A    
C46   O30   A    
C90   O54   S    
Cr9   O9    S    
C19   C20   A    
Cr1   O45   S    
O64   H20   S    
C50   C54   S    
O60   H12   S    
C6    C90   S    
O68   H24   S    
Cr10  O38   S    
Cr2   O46   S    
C4    O24   A    
C92   O56   S    
C43   C51   D    
O63   H19   S    
Cr4   O48   S    
C79   O15   A    
C11   C28   A    
C1    C88   S    
C49   C53   S    
C52   C56   S    
C31   C35   A    
C42   C71   S    
C2    O22   A    
C33   C34   A    
C13   C22   A    
C3    O27   A    
Cr3   O47   S    
C15   H43   S    
O69   H25   S    
O66   H22   S    
Cr1   O17   S    
C66   O38   A    
C64   O64   S    
C77   O13   A    
C58   C78   S    
O59   H11   S    
C13   C17   A    
C48   C84   S    
C40   H4    S    
Cr6   O18   S    
C75   O7    A    
C66   O2    A    
C7    O71   S    
O67   H23   S    
C47   O31   A    
Cr8   O28   S    
C44   C69   S    
Cr3   O3    S    
Cr10  O34   S    
C80   O16   A    
Cr2   O42   S    
C31   H48   S    
Cr5   O5    S    
C5    C89   S    
C84   H36   S    
Cr1   O1    S    
C27   C28   A    
Cr4   O44   S    
