data_str_m9_o4_o18_f0_sra.sym.87
_audit_creation_date              2012-12-11T17:02:21-0500
_audit_creation_method            fapswitch 2.2
_symmetry_space_group_name_H-M    P1
_symmetry_Int_Tables_number       1
_space_group_crystal_system       triclinic
_cell_length_a                    21.672982
_cell_length_b                    7.088383
_cell_length_c                    14.824714
_cell_angle_alpha                 90.066708
_cell_angle_beta                  105.888626
_cell_angle_gamma                 90.032214
_cell_volume                      2190.45589319

loop_
_atom_site_label
_atom_site_type_symbol
_atom_type_description
_atom_site_fract_x
_atom_site_fract_y
_atom_site_fract_z
_atom_type_partial_charge
O1    O     O_R   0.585850 0.505770 0.002130 -0.539450
O2    O     O_R   0.414150 0.005770 0.997870 -0.542719
O3    O     O_R   0.467530 0.173560 0.861970 -0.537863
O4    O     O_R   0.532470 0.673560 0.138030 -0.537305
C1    C     C_R   0.455732 0.344203 0.825367 0.688406
C2    C     C_R   0.544268 0.844512 0.174615 0.682737
O5    O     O_R   0.588690 0.175900 0.993250 -0.547975
O6    O     O_R   0.411310 0.675900 0.006750 -0.541676
O7    O     O_R   0.536170 0.007950 0.130090 -0.538142
O8    O     O_R   0.463830 0.507950 0.869910 -0.536628
C3    C     C_R   0.614848 0.345023 0.996733 0.688945
C4    C     C_R   0.385212 0.845042 0.003555 0.688621
O9    O     O_3   0.482630 0.339970 0.044740 -0.376234
O10   O     O_3   0.517370 0.839970 0.955260 -0.378746
V1    V     V_3+5 0.503220 0.064200 0.991700 1.392339
V2    V     V_3+5 0.496780 0.564200 0.008300 1.406202
C5    C     C_R   0.279490 0.016194 0.969491 0.066650
C6    C     C_R   0.720137 0.518260 0.028449 0.100026
C7    C     C_R   0.316365 0.855240 0.001858 -0.116954
C8    C     C_R   0.683780 0.355088 0.998807 -0.067211
C9    C     C_R   0.284744 0.701712 0.029343 -0.199554
C10   C     C_R   0.715564 0.200583 0.972794 -0.197665
H1    H     H_    0.311711 0.578107 0.057925 0.182791
H2    H     H_    0.688588 0.076369 0.945586 0.135021
C11   C     C_R   0.219307 0.711775 0.026663 -0.163893
C12   C     C_R   0.780886 0.210672 0.974944 -0.167093
H3    H     H_    0.197829 0.593716 0.052928 0.149245
H4    H     H_    0.802432 0.091830 0.949412 0.139426
C13   C     C_R   0.183180 0.876723 0.996303 -0.096688
C14   C     C_R   0.816792 0.376723 0.003673 -0.084539
C15   C     C_R   0.214198 0.025452 0.964445 0.047797
C16   C     C_R   0.785443 0.527679 0.033161 0.049334
C17   C     C_3   0.218170 0.227162 0.993585 -0.389576
C18   C     C_3   0.780120 0.725192 0.998250 -0.406808
C19   C     C_3   0.289751 0.215936 0.003520 0.029390
C20   C     C_3   0.708561 0.712446 0.988651 0.026712
H5    H     H_    0.205537 0.248889 0.060692 0.175434
H6    H     H_    0.792894 0.739240 0.930815 0.173960
H7    H     H_    0.192258 0.320207 0.935183 0.144213
H8    H     H_    0.805523 0.824457 0.054230 0.143521
H9    H     H_    0.306450 0.310279 0.955063 0.126343
H10   H     H_    0.690713 0.811019 0.034287 0.107474
C21   C     C_R   0.925486 0.881129 0.723942 -0.021474
C22   C     C_R   0.074678 0.382991 0.276027 -0.020848
C23   C     C_R   0.571902 0.851592 0.276104 -0.025973
C24   C     C_R   0.428240 0.349745 0.723817 -0.028965
C25   C     C_R   0.936101 0.818412 0.569106 -0.166114
C26   C     C_R   0.063537 0.339884 0.432004 -0.166036
C27   C     C_R   0.963234 0.830343 0.665298 -0.235824
C28   C     C_R   0.036369 0.345663 0.335669 -0.237578
C29   C     C_R   0.859300 0.913872 0.687102 0.135072
C30   C     C_R   0.141322 0.408479 0.312086 0.133269
C31   C     C_R   0.829199 0.872550 0.590455 0.039598
C32   C     C_R   0.170982 0.373822 0.409471 0.040142
C33   C     C_R   0.869784 0.840281 0.531190 0.115703
C34   C     C_R   0.130142 0.355233 0.469389 0.115527
C35   C     C_R   0.761202 0.859920 0.550095 0.056387
C36   C     C_R   0.238789 0.355797 0.450027 0.055400
C37   C     C_R   0.735446 0.857362 0.450388 0.065388
C38   C     C_R   0.264681 0.361684 0.549676 0.065034
C39   C     C_R   0.778478 0.844557 0.394288 -0.189711
C40   C     C_R   0.221650 0.362275 0.606032 -0.188447
C41   C     C_R   0.844052 0.829106 0.434328 -0.189954
C42   C     C_R   0.155888 0.351864 0.566400 -0.189803
C43   C     C_R   0.718724 0.830175 0.605780 -0.202744
C44   C     C_R   0.280699 0.312841 0.394978 -0.202950
C45   C     C_R   0.652834 0.821805 0.566780 -0.200163
C46   C     C_R   0.346456 0.299227 0.434028 -0.200985
C47   C     C_R   0.626628 0.836883 0.470206 0.139759
C48   C     C_R   0.373017 0.321954 0.530162 0.139454
C49   C     C_R   0.667445 0.855434 0.410368 0.084245
C50   C     C_R   0.332650 0.354286 0.589624 0.084268
C51   C     C_R   0.559800 0.825909 0.432647 -0.165908
C52   C     C_R   0.439637 0.304252 0.567839 -0.166995
C53   C     C_R   0.532684 0.830805 0.336015 -0.174873
C54   C     C_R   0.466932 0.315195 0.664288 -0.172934
C55   C     C_R   0.638387 0.867255 0.312647 -0.215143
C56   C     C_R   0.362042 0.372976 0.687021 -0.215361
H11   H     H_    0.875046 0.808967 0.388765 0.121106
H12   H     H_    0.124765 0.342232 0.612381 0.121180
H13   H     H_    0.665865 0.887402 0.262804 0.091994
H14   H     H_    0.334974 0.402790 0.736492 0.093504
H15   H     H_    0.481174 0.817477 0.307873 0.105935
H16   H     H_    0.518158 0.295225 0.692648 0.110701
H17   H     H_    0.622179 0.799530 0.612637 0.128759
H18   H     H_    0.376671 0.266491 0.388661 0.128424
H19   H     H_    0.966886 0.787943 0.524306 0.126243
H20   H     H_    0.032463 0.320136 0.477438 0.126214
H21   H     H_    0.014227 0.806134 0.693877 0.116540
H22   H     H_    0.985003 0.327815 0.307682 0.115529
H23   H     H_    0.762863 0.833714 0.318989 0.118474
H24   H     H_    0.237252 0.358465 0.681492 0.118760
H25   H     H_    0.735597 0.801435 0.679662 0.140470
H26   H     H_    0.263318 0.277602 0.321818 0.141266
H27   H     H_    0.528562 0.809760 0.478092 0.119184
H28   H     H_    0.470486 0.277234 0.522742 0.119644
O11   O     O_R   0.036080 0.231270 0.130120 -0.546100
O12   O     O_R   0.963920 0.731270 0.869880 -0.545752
O13   O     O_R   0.911300 0.558970 0.006750 -0.543791
O14   O     O_R   0.088700 0.058970 0.993250 -0.544299
C57   C     C_R   0.884837 0.389866 0.001540 0.692602
C58   C     C_R   0.115146 0.889942 0.998399 0.692498
O15   O     O_R   0.032450 0.561140 0.138040 -0.529228
O16   O     O_R   0.967550 0.061140 0.861960 -0.527638
O17   O     O_R   0.085870 0.728910 0.002130 -0.538154
O18   O     O_R   0.914130 0.228910 0.997870 -0.538577
C59   C     C_R   0.045031 0.392614 0.174880 0.728504
C60   C     C_R   0.954931 0.892308 0.825125 0.727572
O19   O     O_3   0.017320 0.394650 0.955270 -0.375322
O20   O     O_3   0.982680 0.894650 0.044730 -0.376073
V3    V     V_3+5 0.996780 0.670490 0.008300 1.429511
V4    V     V_3+5 0.003220 0.170490 0.991700 1.429649
N1    N     N_3   0.827337 0.014103 0.745785 -0.686065
H29   H     H_    0.788787 0.093585 0.706339 0.245263
H30   H     H_    0.813185 0.919439 0.790297 0.202693
N2    N     N_3   0.174502 0.496865 0.251501 -0.689841
H31   H     H_    0.214040 0.575008 0.289335 0.245594
H32   H     H_    0.187396 0.395111 0.208984 0.207993
N3    N     N_3   0.327474 0.232828 0.101939 -0.680839
H33   H     H_    0.376091 0.222092 0.105443 0.252713
H34   H     H_    0.316291 0.123441 0.142195 0.239666
N4    N     N_3   0.670154 0.708440 0.890386 -0.647278
H35   H     H_    0.622372 0.733736 0.888678 0.245028
H36   H     H_    0.684039 0.819616 0.854004 0.217417

loop_
_geom_bond_atom_site_label_1
_geom_bond_atom_site_label_2
_ccdc_geom_bond_type
C44   C46   A    
C2    C23   S    
C46   H18   S    
C31   C33   A    
C20   H10   S    
O1    C3    A    
O16   C60   A    
O2    C4    A    
C54   H16   S    
C2    O7    A    
C24   C54   A    
C25   C27   A    
C41   H11   S    
O5    C3    A    
C36   C44   A    
C29   N1    S    
C52   C54   A    
C18   H8    S    
O15   V3    S    
C7    C9    A    
O19   V3    S    
C35   C37   A    
C38   C50   A    
C36   C38   A    
O12   C60   A    
N2    H31   S    
C14   C57   S    
C58   O17   A    
C38   C40   A    
C39   C41   A    
O20   V3    S    
C50   C56   A    
C17   C19   S    
C19   N3    S    
C28   H22   S    
C43   C45   A    
C33   C41   A    
C48   C52   A    
C40   C42   A    
C26   H20   S    
C47   C51   A    
C18   C20   S    
C44   H26   S    
C22   C30   A    
C26   C28   A    
O17   V3    S    
C25   C33   A    
C47   C49   A    
O6    V2    S    
C42   H12   S    
O14   C58   A    
C30   C32   A    
C30   N2    S    
C11   C13   A    
C32   C34   A    
C3    C8    S    
C45   H17   S    
C37   C39   A    
C15   C17   S    
C53   H15   S    
C52   H28   S    
O4    C2    A    
O19   V4    S    
C27   H21   S    
O16   V4    S    
O11   V4    S    
C31   C35   A    
C21   C27   A    
O18   V4    S    
C48   C50   A    
C17   H5    S    
C40   H24   S    
C29   C31   A    
C16   C18   S    
O4    V2    S    
C20   N4    S    
C56   H14   S    
C55   H13   S    
O6    C4    A    
O13   V3    S    
C34   C42   A    
O1    V2    S    
C17   H7    S    
O2    V1    S    
N3    H34   S    
O13   C57   A    
C8    C10   A    
O14   V4    S    
C9    H1    S    
C5    C15   A    
C10   H2    S    
C6    C16   A    
C51   C53   A    
N4    H36   S    
C49   C55   A    
O3    V1    S    
C24   C56   A    
N1    H29   S    
C32   C36   A    
C22   C59   S    
C22   C28   A    
C57   O18   A    
C26   C34   A    
C9    C11   A    
O12   V3    S    
C18   H6    S    
C35   C43   A    
O3    C1    A    
O15   C59   A    
N3    H33   S    
C12   C14   A    
C11   H3    S    
C1    C24   S    
C12   H4    S    
C23   C53   A    
O7    V1    S    
C1    O8    A    
C13   C15   A    
O8    V2    S    
C14   C16   A    
C21   C29   A    
C4    C7    S    
O5    V1    S    
C43   H25   S    
C5    C7    A    
N2    H32   S    
C13   C58   S    
C6    C8    A    
C21   C60   S    
C19   H9    S    
O20   V4    S    
O11   C59   A    
C46   C48   A    
C10   C12   A    
O9    V2    S    
C51   H27   S    
O10   V1    S    
C23   C55   A    
C5    C19   S    
C45   C47   A    
N4    H35   S    
C6    C20   S    
C39   H23   S    
C37   C49   A    
N1    H30   S    
C25   H19   S    
