data_str_m9_o13_o16_f0_sra.sym.70
_audit_creation_date              2012-12-11T14:43:37-0500
_audit_creation_method            fapswitch 2.2
_symmetry_space_group_name_H-M    P1
_symmetry_Int_Tables_number       1
_space_group_crystal_system       triclinic
_cell_length_a                    20.918741
_cell_length_b                    7.093218
_cell_length_c                    16.327509
_cell_angle_alpha                 91.309699
_cell_angle_beta                  92.629576
_cell_angle_gamma                 91.38498
_cell_volume                      2418.74038288

loop_
_atom_site_label
_atom_site_type_symbol
_atom_type_description
_atom_site_fract_x
_atom_site_fract_y
_atom_site_fract_z
_atom_type_partial_charge
O1    O     O_R   0.564840 0.505290 0.579830 -0.534982
O2    O     O_R   0.435160 0.005290 0.420170 -0.532643
O3    O     O_R   0.556720 0.179930 0.409350 -0.548170
O4    O     O_R   0.443280 0.679930 0.590650 -0.540677
C1    C     C_R   0.569744 0.344272 0.380496 0.772628
C2    C     C_R   0.429898 0.845124 0.619253 0.768542
O5    O     O_R   0.572280 0.175810 0.578530 -0.540410
O6    O     O_R   0.427720 0.675810 0.421470 -0.542810
O7    O     O_R   0.450830 0.001920 0.590540 -0.540567
O8    O     O_R   0.549170 0.501920 0.409460 -0.535167
C3    C     C_R   0.589663 0.348320 0.605360 0.702222
C4    C     C_R   0.409607 0.840661 0.395088 0.698832
O9    O     O_3   0.460130 0.338030 0.503750 -0.375596
O10   O     O_3   0.539870 0.838030 0.496250 -0.375304
V1    V     V_3+5 0.507400 0.064560 0.499310 1.395098
V2    V     V_3+5 0.492600 0.564560 0.500690 1.412873
C5    C     C_R   0.146164 0.930239 0.165380 -0.075108
C6    C     C_R   0.856290 0.389592 0.832893 -0.062267
C7    C     C_R   0.355238 0.834880 0.332506 -0.115498
C8    C     C_R   0.642776 0.376729 0.668531 -0.126980
C9    C     C_R   0.294148 0.659547 0.221088 0.280127
C10   C     C_R   0.696815 0.588690 0.772133 0.270054
C11   C     C_R   0.347154 0.678532 0.278120 -0.202414
C12   C     C_R   0.644104 0.540292 0.719214 -0.183024
C13   C     C_R   0.309887 0.976985 0.329007 -0.257362
C14   C     C_R   0.694836 0.256414 0.673591 -0.233297
C15   C     C_R   0.255981 0.960598 0.273987 0.105332
C16   C     C_R   0.748486 0.302453 0.726349 0.124470
C17   C     C_R   0.246973 0.800260 0.220611 0.077686
C18   C     C_R   0.750225 0.470114 0.775962 0.083142
C19   C     C_R   0.190803 0.785046 0.168192 -0.235968
C20   C     C_R   0.804546 0.511800 0.829015 -0.245228
C21   C     C_R   0.157071 0.089285 0.217598 -0.137187
C22   C     C_R   0.853950 0.226466 0.781906 -0.154286
C23   C     C_R   0.210688 0.103142 0.271847 -0.135520
C24   C     C_R   0.800874 0.183515 0.729435 -0.174455
H1    H     H_    0.181720 0.662882 0.128137 0.138589
H2    H     H_    0.806139 0.634086 0.869900 0.132730
H3    H     H_    0.123687 0.203698 0.216820 0.123393
H4    H     H_    0.893190 0.129485 0.783388 0.123417
H5    H     H_    0.217137 0.227210 0.311636 0.123365
H6    H     H_    0.800581 0.055652 0.691761 0.117364
H7    H     H_    0.383546 0.572889 0.280037 0.146977
H8    H     H_    0.604249 0.635063 0.716344 0.167382
H9    H     H_    0.315673 0.098219 0.370594 0.133799
H10   H     H_    0.694634 0.130824 0.634444 0.132835
C25   C     C_R   0.377358 0.833226 0.836654 -0.241144
C26   C     C_R   0.621530 0.342031 0.162640 -0.242484
H11   H     H_    0.298573 0.861312 0.957712 0.118065
H12   H     H_    0.700283 0.382552 0.042200 0.118275
H13   H     H_    0.399549 0.818514 0.897452 0.124302
H14   H     H_    0.598917 0.330236 0.101551 0.123588
C27   C     C_R   0.388459 0.854065 0.690165 -0.140878
C28   C     C_R   0.611359 0.350936 0.309777 -0.143017
C29   C     C_R   0.076831 0.894340 0.731644 -0.196482
C30   C     C_R   0.923212 0.387718 0.267605 -0.193959
C31   C     C_R   0.110167 0.864172 0.660491 0.237361
C32   C     C_R   0.889375 0.355449 0.337956 0.237136
C33   C     C_R   0.176786 0.851471 0.665811 -0.138919
C34   C     C_R   0.822504 0.347490 0.332704 -0.138419
C35   C     C_R   0.212309 0.878162 0.741248 0.041803
C36   C     C_R   0.787476 0.380982 0.258446 0.042055
C37   C     C_R   0.177011 0.895069 0.814054 0.055406
C38   C     C_R   0.822922 0.402068 0.186095 0.055424
C39   C     C_R   0.281279 0.874795 0.747588 0.051108
C40   C     C_R   0.718500 0.379000 0.252343 0.052789
C41   C     C_R   0.311280 0.858446 0.826985 0.058407
C42   C     C_R   0.687974 0.368906 0.172691 0.059781
C43   C     C_R   0.275440 0.869345 0.897124 -0.169688
C44   C     C_R   0.723758 0.385839 0.102829 -0.172605
C45   C     C_R   0.209793 0.893312 0.890953 -0.175424
C46   C     C_R   0.789883 0.407986 0.109446 -0.174726
C47   C     C_R   0.322019 0.888522 0.679278 0.156148
C48   C     C_R   0.678268 0.387747 0.321270 0.155894
C49   C     C_R   0.415805 0.827307 0.769087 0.249656
C50   C     C_R   0.583544 0.324731 0.230269 0.246525
C51   C     C_R   0.109178 0.906022 0.808402 -0.116628
C52   C     C_R   0.890969 0.407747 0.191601 -0.117489
H15   H     H_    0.025068 0.901660 0.727630 0.101532
H16   H     H_    0.975114 0.390284 0.271412 0.103480
H17   H     H_    0.198870 0.809976 0.610196 0.176929
H18   H     H_    0.799548 0.303794 0.387029 0.175437
H19   H     H_    0.184579 0.903892 0.947278 0.103289
H20   H     H_    0.815134 0.422391 0.053401 0.104435
O11   O     O_R   0.950790 0.256670 0.090520 -0.531777
O12   O     O_R   0.049210 0.756670 0.909480 -0.533068
O13   O     O_R   0.927720 0.590370 0.921470 -0.540379
O14   O     O_R   0.072280 0.090370 0.078530 -0.541806
C53   C     C_R   0.910224 0.417404 0.894902 0.686430
C54   C     C_R   0.090508 0.925046 0.104689 0.686509
O15   O     O_R   0.943270 0.586180 0.090640 -0.537742
O16   O     O_R   0.056730 0.086180 0.909360 -0.537749
O17   O     O_R   0.064850 0.759970 0.079840 -0.536096
O18   O     O_R   0.935150 0.259970 0.920160 -0.539878
C55   C     C_R   0.930356 0.417809 0.118937 0.699310
C56   C     C_R   0.069798 0.917249 0.881108 0.697192
O19   O     O_3   0.039850 0.428050 0.996240 -0.370737
O20   O     O_3   0.960150 0.928050 0.003760 -0.369891
V3    V     V_3+5 0.992610 0.701540 0.000700 1.418854
V4    V     V_3+5 0.007390 0.201540 0.999300 1.421804
N1    N     N_2   0.298296 0.954355 0.602098 -0.545079
H21   H     H_    0.318674 0.896602 0.551290 0.240567
C57   C     C_3   0.292864 0.156945 0.598562 -0.514823
H22   H     H_    0.270834 0.194545 0.538135 0.185932
H23   H     H_    0.340962 0.226806 0.606216 0.203119
H24   H     H_    0.261940 0.209450 0.647256 0.206478
N2    N     N_2   0.703202 0.451692 0.400072 -0.545268
H25   H     H_    0.681959 0.392478 0.449447 0.240423
C58   C     C_3   0.712027 0.654159 0.408789 -0.515670
H26   H     H_    0.734761 0.690336 0.470107 0.190568
H27   H     H_    0.665082 0.723909 0.403042 0.200967
H28   H     H_    0.743772 0.708079 0.361391 0.206611
N3    N     N_3   0.076867 0.839414 0.581983 -0.666269
H29   H     H_    0.027438 0.847014 0.588037 0.229305
H30   H     H_    0.090143 0.952799 0.546080 0.231164
N4    N     N_3   0.922251 0.322994 0.415278 -0.667002
H31   H     H_    0.971800 0.327593 0.409107 0.229655
H32   H     H_    0.912008 0.434565 0.455140 0.231750
N5    N     N_2   0.287845 0.503431 0.163482 -0.524286
H33   H     H_    0.275746 0.540357 0.104164 0.248151
C59   C     C_3   0.332776 0.351549 0.167604 -0.547558
H34   H     H_    0.316067 0.235567 0.124405 0.201882
H35   H     H_    0.335853 0.293816 0.230164 0.212997
H36   H     H_    0.380633 0.402637 0.149828 0.186588
N6    N     N_2   0.695445 0.761017 0.818314 -0.530539
H37   H     H_    0.737270 0.841124 0.819983 0.259545
C60   C     C_3   0.667771 0.744172 0.897420 -0.575818
H38   H     H_    0.664377 0.886441 0.926463 0.203671
H39   H     H_    0.698155 0.656091 0.938073 0.193570
H40   H     H_    0.618794 0.679884 0.890338 0.204248
N7    N     N_2   0.482814 0.800808 0.781107 -0.532898
H41   H     H_    0.494299 0.708777 0.827237 0.249588
C61   C     C_3   0.520441 0.974721 0.789493 -0.556664
H42   H     H_    0.509313 0.051805 0.846933 0.187422
H43   H     H_    0.510754 0.066455 0.736401 0.209878
H44   H     H_    0.572113 0.942661 0.791833 0.223974
N8    N     N_2   0.516337 0.292499 0.217890 -0.531932
H45   H     H_    0.496786 0.364752 0.169082 0.245846
C62   C     C_3   0.496839 0.095276 0.214237 -0.548570
H46   H     H_    0.515637 0.024795 0.159128 0.186295
H47   H     H_    0.443770 0.082655 0.210550 0.194734
H48   H     H_    0.514574 0.022492 0.269969 0.213575

loop_
_geom_bond_atom_site_label_1
_geom_bond_atom_site_label_2
_ccdc_geom_bond_type
C40   C42   A    
N1    H21   S    
C15   C17   A    
C62   H47   S    
C26   C50   A    
C24   H6    S    
O1    C3    A    
O2    C4    A    
C2    O7    A    
C39   C47   A    
N7    C61   S    
C50   N8    S    
O5    C3    A    
N8    C62   S    
C21   H3    S    
C22   H4    S    
C58   H27   S    
C29   C51   A    
C62   H48   S    
C31   C33   A    
C32   C34   A    
C40   C48   A    
O16   C56   A    
C30   C52   A    
N4    H31   S    
C34   C36   A    
C53   O18   A    
C43   C45   A    
C59   H36   S    
C36   C38   A    
C48   N2    S    
C28   C48   A    
C34   H18   S    
C8    C12   A    
N4    H32   S    
C39   C41   A    
C61   H44   S    
N2    H25   S    
C20   H2    S    
O17   V3    S    
C45   H19   S    
O5    V1    S    
O6    V2    S    
H11   C43   S    
C32   N4    S    
N2    C58   S    
C27   C49   A    
C5    C21   A    
C7    C13   A    
C25   C41   A    
O19   V3    S    
C49   N7    S    
O13   V3    S    
N5    C59   S    
C3    C8    S    
C33   C35   A    
C36   C40   A    
C1    C28   S    
O4    C2    A    
C58   H28   S    
C10   N6    S    
C31   N3    S    
C6    C53   S    
C15   C23   A    
C9    C17   A    
C19   H1    S    
C41   C43   A    
O4    V2    S    
C7    C11   A    
C60   H39   S    
O2    V1    S    
C29   H15   S    
O18   V4    S    
C52   C55   S    
O6    C4    A    
C35   C37   A    
C57   H23   S    
O1    V2    S    
O14   V4    S    
C26   C42   A    
N5    H33   S    
O12   V3    S    
C6    C22   A    
C59   H34   S    
C46   H20   S    
O12   C56   A    
C28   C50   A    
C42   C44   A    
C37   C45   A    
O20   V4    S    
C9    C11   A    
N6    H37   S    
C5    C19   A    
C10   C12   A    
C6    C20   A    
C2    C27   S    
C60   H38   S    
C13   H9    S    
O19   V4    S    
O3    V1    S    
O16   V4    S    
C54   O17   A    
N6    C60   S    
N3    H29   S    
C37   C51   A    
C47   N1    S    
C10   C18   A    
C17   C19   A    
C11   H7    S    
C38   C52   A    
C27   C47   A    
C5    C54   S    
C33   H17   S    
O14   C54   A    
O3    C1    A    
C25   H13   S    
C62   H46   S    
C13   C15   A    
N8    H45   S    
C51   C56   S    
C14   C16   A    
C30   H16   S    
C29   C31   A    
O7    V1    S    
C60   H40   S    
C25   C49   A    
C1    O8    A    
C9    N5    S    
O11   V4    S    
O8    V2    S    
C58   H26   S    
C18   C20   A    
O11   C55   A    
C61   H42   S    
C8    C14   A    
C12   H8    S    
C4    C7    S    
C16   C18   A    
C21   C23   A    
C30   C32   A    
C57   H24   S    
C22   C24   A    
C38   C46   A    
H12   C44   S    
C23   H5    S    
C59   H35   S    
C14   H10   S    
O15   C55   A    
C35   C39   A    
C26   H14   S    
C16   C24   A    
N1    C57   S    
O20   V3    S    
O9    V2    S    
C57   H22   S    
C61   H43   S    
O13   C53   A    
O10   V1    S    
C44   C46   A    
O15   V3    S    
N7    H41   S    
N3    H30   S    
