data_str_m4_o4_o14_f0_acs.sym.8
_audit_creation_date              2012-12-11T15:43:17-0500
_audit_creation_method            fapswitch 2.2
_symmetry_space_group_name_H-M    P1
_symmetry_Int_Tables_number       1
_space_group_crystal_system       triclinic
_cell_length_a                    19.07341
_cell_length_b                    11.002492
_cell_length_c                    18.759287
_cell_angle_alpha                 90.148382
_cell_angle_beta                  89.844954
_cell_angle_gamma                 89.230297
_cell_volume                      3936.34773042

loop_
_atom_site_label
_atom_site_type_symbol
_atom_type_description
_atom_site_fract_x
_atom_site_fract_y
_atom_site_fract_z
_atom_type_partial_charge
C1    C     C_R   0.711560 0.329307 0.138535 0.564519
C2    C     C_R   0.966350 0.992345 0.045923 -0.130421
C3    C     C_R   0.767232 0.485958 0.564960 0.032022
C4    C     C_R   0.730267 0.381919 0.350701 0.621560
C5    C     C_R   0.272392 0.371378 0.645057 0.528688
C6    C     C_R   0.230305 0.881768 0.350716 0.621929
C7    C     C_R   0.770212 0.875301 0.647091 0.531251
C8    C     C_R   0.529212 0.156521 0.351573 0.541515
C9    C     C_R   0.437310 0.153151 0.639133 0.525928
C10   C     C_R   0.028912 0.656528 0.351211 0.545311
C11   C     C_R   0.961752 0.656115 0.642934 0.527771
C12   C     C_R   0.741711 0.974723 0.354969 0.547329
C13   C     C_R   0.477250 0.500510 0.972886 -0.139040
C14   C     C_R   0.272226 0.022966 0.638493 0.541184
C15   C     C_R   0.243076 0.469436 0.352962 0.544683
C16   C     C_R   0.772519 0.522660 0.638526 0.544568
C17   C     C_R   0.497514 0.168569 0.925213 -0.002362
C18   C     C_R   0.503069 0.161788 0.074539 0.002595
C19   C     C_R   0.997525 0.668569 0.925206 -0.001402
C20   C     C_R   0.003080 0.661793 0.074531 0.002767
C21   C     C_R   0.491573 0.279337 0.965034 0.026995
C22   C     C_R   0.488193 0.273588 0.040506 0.011450
C23   C     C_R   0.991588 0.779338 0.965023 0.026558
C24   C     C_R   0.466335 0.492336 0.045942 -0.129845
C25   C     C_R   0.988207 0.773594 0.040496 0.011292
C26   C     C_R   0.510930 0.055774 0.033652 -0.156720
C27   C     C_R   0.510896 0.059781 0.960715 -0.169701
C28   C     C_R   0.010941 0.555777 0.033646 -0.156900
C29   C     C_R   0.010905 0.559780 0.960708 -0.169080
C30   C     C_2   0.949815 0.349636 0.576577 0.318517
C31   C     C_2   0.055582 0.376766 0.422061 0.321109
C32   C     C_2   0.425747 0.844800 0.565613 0.277293
C33   C     C_2   0.558322 0.882363 0.430534 0.297278
C34   C     C_2   0.658758 0.743255 0.557910 0.258910
C35   C     C_R   0.752487 0.907274 0.926513 0.016967
C36   C     C_2   0.318977 0.101212 0.382116 0.219075
C37   C     C_2   0.152159 0.261278 0.559576 0.236827
C38   C     C_2   0.819997 0.601250 0.382514 0.217982
C39   C     C_2   0.832406 0.165215 0.618100 0.264706
C40   C     C_2   0.091362 0.967345 0.460603 0.305105
C41   C     C_2   0.287239 0.647985 0.591160 0.240149
C42   C     C_2   0.588021 0.432113 0.468448 0.296653
C43   C     C_R   0.221434 0.843016 0.061682 0.012271
C44   C     C_R   0.252487 0.407264 0.926516 0.017591
C45   C     C_R   0.721434 0.343013 0.061680 0.012434
C46   C     C_R   0.722824 0.818371 0.970443 0.034826
C47   C     C_R   0.285784 0.818499 0.028463 0.004091
C48   C     C_R   0.222826 0.318359 0.970447 0.033253
C49   C     C_R   0.269934 0.375619 0.854145 0.556424
C50   C     C_R   0.785782 0.318481 0.028456 0.003775
C51   C     C_R   0.722633 0.831188 0.043688 0.013233
C52   C     C_R   0.296159 0.845742 0.957181 0.008916
C53   C     C_R   0.222636 0.331177 0.043693 0.012786
C54   C     C_R   0.796155 0.345717 0.957173 0.009342
C55   C     C_R   0.792355 0.010982 0.031249 -0.141417
C56   C     C_R   0.174785 0.904623 0.946551 -0.155629
C57   C     C_R   0.292351 0.510979 0.031252 -0.141198
C58   C     C_R   0.674783 0.404620 0.946550 -0.156217
C59   C     C_R   0.789775 0.001410 0.958075 -0.144564
C60   C     C_R   0.211559 0.829307 0.138536 0.564896
C61   C     C_R   0.164532 0.877649 0.018639 -0.158799
C62   C     C_R   0.289771 0.501405 0.958079 -0.143757
C63   C     C_R   0.664531 0.377648 0.018638 -0.158421
C64   C     C_3   0.650556 0.767244 0.970961 -0.272000
C65   C     C_3   0.357583 0.858378 0.048551 -0.265022
C66   C     C_3   0.150558 0.267230 0.970967 -0.271479
C67   C     C_3   0.857587 0.358337 0.048537 -0.265215
C68   C     C_3   0.651488 0.779011 0.051715 -0.275475
C69   C     C_3   0.368816 0.888526 0.970560 -0.264306
C70   C     C_3   0.151492 0.278997 0.051722 -0.275470
C71   C     C_R   0.769933 0.875625 0.854143 0.551068
C72   C     C_3   0.868819 0.388471 0.970543 -0.263385
C73   C     C_R   0.754118 0.931446 0.074990 0.025796
C74   C     C_R   0.242510 0.899000 0.916729 0.019215
C75   C     C_R   0.254120 0.431438 0.074994 0.025933
C76   C     C_R   0.742508 0.398989 0.916725 0.018036
C77   C     C_R   0.531106 0.155302 0.147096 0.537223
C78   C     C_R   0.468549 0.156133 0.853160 0.539281
C79   C     C_R   0.031110 0.655302 0.147093 0.536853
C80   C     C_R   0.968552 0.656133 0.853158 0.535292
C81   C     C_R   0.452706 0.159248 0.563215 -0.012702
C82   C     C_R   0.489664 0.395599 0.932647 -0.087338
C83   C     C_R   0.485630 0.159787 0.416022 -0.003510
C84   C     C_R   0.973445 0.662349 0.566205 -0.015904
C85   C     C_R   0.986805 0.660260 0.416439 -0.005192
C86   C     C_R   0.458165 0.052817 0.523794 -0.049359
C87   C     C_R   0.469508 0.051814 0.452223 -0.023471
C88   C     C_R   0.971038 0.555883 0.526803 -0.057582
C89   C     C_R   0.972091 0.553120 0.454127 -0.031469
C90   C     C_R   0.466439 0.268962 0.450496 -0.166105
C91   C     C_R   0.451172 0.268953 0.524422 -0.136471
C92   C     C_R   0.972157 0.770104 0.452048 -0.167966
C93   C     C_R   0.471229 0.379973 0.079657 -0.092130
C94   C     C_R   0.966256 0.771238 0.527322 -0.145624
C95   C     C_3   0.480772 0.924490 0.535068 -0.111465
C96   C     C_3   0.486616 0.917303 0.453838 -0.113521
C97   C     C_3   0.997031 0.429824 0.535976 -0.108935
C98   C     C_3   0.989229 0.418165 0.455569 -0.100358
C99   C     C_R   0.747258 0.911980 0.576878 -0.034379
C100  C     C_R   0.246379 0.922004 0.421874 0.011576
C101  C     C_R   0.261668 0.389004 0.569119 -0.044185
C102  C     C_R   0.746356 0.422499 0.421790 0.037598
C103  C     C_R   0.776641 0.012886 0.546684 -0.045297
C104  C     C_R   0.989677 0.895598 0.932632 -0.086548
C105  C     C_R   0.209965 0.865094 0.476650 -0.092523
C106  C     C_R   0.314312 0.451267 0.534065 -0.027211
C107  C     C_R   0.714003 0.360302 0.477162 -0.051725
C108  C     C_R   0.772504 0.037597 0.475684 -0.009270
C109  C     C_R   0.222363 0.891261 0.547236 0.021570
C110  C     C_R   0.313308 0.466775 0.462003 -0.002765
C111  C     C_R   0.727720 0.385641 0.546981 -0.028960
C112  C     C_R   0.719226 0.842499 0.457301 -0.157084
C113  C     C_R   0.295631 0.056587 0.510139 -0.190557
C114  C     C_R   0.218388 0.327220 0.452545 -0.165019
C115  C     C_R   0.971246 0.879985 0.079643 -0.091958
C116  C     C_R   0.799597 0.553072 0.510554 -0.172670
C117  C     C_R   0.709721 0.832490 0.531323 -0.050768
C118  C     C_R   0.288123 0.023120 0.438004 -0.016420
C119  C     C_R   0.213105 0.322570 0.527519 -0.055326
C120  C     C_R   0.789925 0.521803 0.438155 -0.006610
C121  C     C_3   0.843441 0.074364 0.559402 -0.089665
C122  C     C_3   0.132151 0.858558 0.489135 -0.120849
C123  C     C_3   0.340249 0.575620 0.548846 -0.099767
C124  C     C_3   0.638395 0.333498 0.493538 -0.096674
C125  C     C_R   0.741924 0.970429 0.147536 0.543110
C126  C     C_R   0.977262 0.000512 0.972866 -0.138692
C127  C     C_R   0.258041 0.967372 0.851915 0.557430
C128  C     C_R   0.241925 0.470424 0.147538 0.542678
C129  C     C_R   0.758040 0.467367 0.851913 0.551603
C130  C     C_3   0.838770 0.111340 0.481131 -0.254748
C131  C     C_3   0.147358 0.874171 0.567814 -0.195892
C132  C     C_3   0.337825 0.595690 0.468839 -0.271994
C133  C     C_3   0.657129 0.347623 0.572045 -0.190530
C134  C     C_R   0.750963 0.945114 0.428961 -0.019057
C135  C     C_R   0.265094 0.987796 0.564801 0.032660
C136  C     C_R   0.260881 0.414170 0.420732 -0.024037
Cr1   Cr    Cr6+3 0.772010 0.169670 0.250090 1.040153
Cr2   Cr    Cr6+3 0.383290 0.010760 0.749160 1.089249
Cr3   Cr    Cr6+3 0.116710 0.510760 0.250840 1.057609
Cr4   Cr    Cr6+3 0.883290 0.510760 0.749160 1.078278
Cr5   Cr    Cr6+3 0.227990 0.169670 0.749910 1.022971
Cr6   Cr    Cr6+3 0.272010 0.669670 0.250090 1.032687
Cr7   Cr    Cr6+3 0.727990 0.669670 0.749910 1.014310
Cr8   Cr    Cr6+3 0.615000 0.323260 0.249260 1.018290
Cr9   Cr    Cr6+3 0.385000 0.323260 0.750740 1.037904
Cr10  Cr    Cr6+3 0.115000 0.823260 0.249260 1.023378
Cr11  Cr    Cr6+3 0.885000 0.823260 0.750740 1.054159
Cr12  Cr    Cr6+3 0.616710 0.010760 0.250840 1.060657
H1    H     H_    0.519271 0.967922 0.057943 0.137961
H2    H     H_    0.444847 0.863056 0.427787 0.143663
H3    H     H_    0.051771 0.430280 0.556039 0.119418
H4    H     H_    0.943265 0.363775 0.438453 0.141650
H5    H     H_    0.697067 0.776102 0.421455 0.207043
H6    H     H_    0.322573 0.138989 0.523631 0.091758
H7    H     H_    0.183515 0.275168 0.419523 0.198717
H8    H     H_    0.829151 0.633019 0.524427 0.096228
H9    H     H_    0.887795 0.010904 0.569080 0.186601
H10   H     H_    0.111095 0.768247 0.475042 0.117286
H11   H     H_    0.394146 0.574190 0.571295 0.209138
H12   H     H_    0.516318 0.974526 0.932122 0.132671
H13   H     H_    0.623466 0.239734 0.478206 0.096980
H14   H     H_    0.829299 0.210019 0.473086 0.122295
H15   H     H_    0.122344 0.955560 0.592821 0.227832
H16   H     H_    0.297803 0.663531 0.451470 0.142787
H17   H     H_    0.628088 0.419584 0.601872 0.229915
H18   H     H_    0.882238 0.072732 0.448136 0.175171
H19   H     H_    0.139625 0.789520 0.598867 0.113652
H20   H     H_    0.390706 0.607919 0.445045 0.161591
H21   H     H_    0.659721 0.259117 0.600463 0.103501
H22   H     H_    0.501343 0.408348 0.876862 0.139865
H23   H     H_    0.019283 0.467926 0.057938 0.138184
H24   H     H_    0.461266 0.377194 0.136402 0.140810
H25   H     H_    0.001356 0.908343 0.876846 0.142461
H26   H     H_    0.961284 0.877213 0.136388 0.141437
H27   H     H_    0.975823 0.088500 0.947162 0.109779
H28   H     H_    0.955057 0.073545 0.076777 0.110411
H29   H     H_    0.475813 0.588501 0.947186 0.107056
H30   H     H_    0.455042 0.573534 0.076798 0.109696
H31   H     H_    0.820836 0.086617 0.053017 0.146281
H32   H     H_    0.131322 0.941814 0.916410 0.133376
H33   H     H_    0.320827 0.586621 0.053018 0.146321
H34   H     H_    0.016324 0.474524 0.932116 0.133863
H35   H     H_    0.631320 0.441816 0.916410 0.132669
H36   H     H_    0.818500 0.066184 0.926242 0.146885
H37   H     H_    0.113452 0.893060 0.042000 0.152261
H38   H     H_    0.318492 0.566184 0.926246 0.146165
H39   H     H_    0.613452 0.393061 0.042000 0.152298
H40   H     H_    0.149986 0.171307 0.952418 0.158415
H41   H     H_    0.891180 0.281596 0.067209 0.126864
H42   H     H_    0.649983 0.671321 0.952412 0.158420
H43   H     H_    0.391182 0.781645 0.067222 0.126510
H44   H     H_    0.611547 0.828179 0.944839 0.126493
H45   H     H_    0.467802 0.353986 0.421800 0.148336
H46   H     H_    0.357015 0.939871 0.083776 0.168987
H47   H     H_    0.111548 0.328163 0.944846 0.127856
H48   H     H_    0.857032 0.439834 0.083758 0.169301
H49   H     H_    0.612588 0.845236 0.073045 0.152814
H50   H     H_    0.373831 0.987568 0.960691 0.162494
H51   H     H_    0.112591 0.345219 0.073052 0.153248
H52   H     H_    0.873847 0.487510 0.960670 0.162981
H53   H     H_    0.652980 0.689731 0.079342 0.159123
H54   H     H_    0.409003 0.829456 0.944288 0.133989
H55   H     H_    0.152986 0.189717 0.079349 0.159047
H56   H     H_    0.441607 0.354203 0.551588 0.184125
H57   H     H_    0.908995 0.329383 0.944269 0.135775
H58   H     H_    0.894399 0.349802 0.564801 0.087622
H59   H     H_    0.101818 0.429924 0.431112 0.110236
H60   H     H_    0.376000 0.834548 0.538804 0.106369
H61   H     H_    0.601029 0.941287 0.444387 0.107661
H62   H     H_    0.633270 0.754724 0.609208 0.149698
H63   H     H_    0.339662 0.189034 0.396558 0.118370
H64   H     H_    0.132386 0.285955 0.611811 0.162484
H65   H     H_    0.840940 0.688801 0.397439 0.108456
H66   H     H_    0.791267 0.232039 0.615506 0.108842
H67   H     H_    0.971230 0.854133 0.422435 0.172349
H68   H     H_    0.110148 0.020101 0.416239 0.193073
H69   H     H_    0.233250 0.652151 0.573407 0.086400
H70   H     H_    0.584165 0.455596 0.412895 0.170353
H71   H     H_    0.959566 0.856208 0.555148 0.180990
H72   H     H_    0.531710 0.919163 0.563980 0.140010
O1    O     O_R   0.787520 0.042810 0.170440 -0.539908
O2    O     O_R   0.454050 0.051210 0.669140 -0.486388
O3    O     O_R   0.045950 0.551210 0.330860 -0.496236
O4    O     O_R   0.954050 0.551210 0.669140 -0.496514
O5    O     O_R   0.681390 0.959480 0.325510 -0.482576
O6    O     O_R   0.318610 0.959480 0.674490 -0.439620
O7    O     O_R   0.181390 0.459480 0.325510 -0.495224
O8    O     O_R   0.818610 0.459480 0.674490 -0.494149
O9    O     O_3   0.667900 0.167900 0.250060 -0.287380
O10   O     O_3   0.332100 0.167900 0.749940 -0.307251
O11   O     O_3   0.167900 0.667900 0.250060 -0.285095
O12   O     O_R   0.212480 0.042810 0.829560 -0.525101
O13   O     O_3   0.832100 0.667900 0.749940 -0.285197
O14   O     O_R   0.765640 0.292100 0.175020 -0.487757
O15   O     O_R   0.234360 0.292100 0.824980 -0.497706
O16   O     O_R   0.265640 0.792100 0.175020 -0.487692
O17   O     O_R   0.734360 0.792100 0.824980 -0.501525
O18   O     O_R   0.670190 0.408840 0.168540 -0.504608
O19   O     O_R   0.329810 0.408840 0.831460 -0.506555
O20   O     O_R   0.170190 0.908840 0.168540 -0.504813
O21   O     O_R   0.829810 0.908840 0.831460 -0.501846
O22   O     O_R   0.556620 0.251410 0.175160 -0.530585
O23   O     O_R   0.287520 0.542810 0.170440 -0.540368
O24   O     O_R   0.443380 0.251410 0.824840 -0.507269
O25   O     O_R   0.056620 0.751410 0.175160 -0.531073
O26   O     O_R   0.943380 0.751410 0.824840 -0.508419
O27   O     O_R   0.545960 0.049620 0.170320 -0.515896
O28   O     O_R   0.454040 0.049620 0.829680 -0.519246
O29   O     O_R   0.045960 0.549620 0.170320 -0.514420
O30   O     O_R   0.954040 0.549620 0.829680 -0.516839
O31   O     O_R   0.681390 0.958010 0.176690 -0.497971
O32   O     O_R   0.318610 0.958010 0.823310 -0.483116
O33   O     O_R   0.181390 0.458010 0.176690 -0.497564
O34   O     O_R   0.712480 0.542810 0.829560 -0.527738
O35   O     O_R   0.818610 0.458010 0.823310 -0.483509
O36   O     O_R   0.787510 0.044390 0.330970 -0.514429
O37   O     O_R   0.212490 0.044390 0.669030 -0.511509
O38   O     O_R   0.287510 0.544390 0.330970 -0.515734
O39   O     O_R   0.712490 0.544390 0.669030 -0.511884
O40   O     O_R   0.765630 0.293570 0.323840 -0.483257
O41   O     O_R   0.234370 0.293570 0.676160 -0.545471
O42   O     O_R   0.265630 0.793570 0.323840 -0.485741
O43   O     O_R   0.734370 0.793570 0.676160 -0.546616
O44   O     O_R   0.670190 0.410420 0.329080 -0.525768
O45   O     O_R   0.556610 0.252880 0.323980 -0.527309
O46   O     O_R   0.329810 0.410420 0.670920 -0.484436
O47   O     O_R   0.170190 0.910420 0.329080 -0.531011
O48   O     O_R   0.829810 0.910420 0.670920 -0.477903
O49   O     O_2   0.974099 0.284853 0.623298 -0.436497
O50   O     O_2   0.057069 0.287383 0.383358 -0.485868
O51   O     O_2   0.437468 0.789423 0.620661 -0.449413
O52   O     O_2   0.568029 0.791364 0.394286 -0.476375
O53   O     O_2   0.641975 0.657799 0.520788 -0.458746
O54   O     O_2   0.322194 0.069193 0.319836 -0.495597
O55   O     O_2   0.119879 0.186309 0.525948 -0.473052
O56   O     O_R   0.443390 0.252880 0.676020 -0.502200
O57   O     O_2   0.822007 0.570901 0.319906 -0.493423
O58   O     O_2   0.866645 0.157635 0.672804 -0.433292
O59   O     O_2   0.037362 0.002062 0.489661 -0.503780
O60   O     O_2   0.303339 0.695556 0.647469 -0.438154
O61   O     O_2   0.547879 0.483569 0.509851 -0.497709
O62   O     O_R   0.056610 0.752880 0.323980 -0.514661
O63   O     O_R   0.943390 0.752880 0.676020 -0.508053
O64   O     O_R   0.545950 0.051210 0.330860 -0.491111

loop_
_geom_bond_atom_site_label_1
_geom_bond_atom_site_label_2
_ccdc_geom_bond_type
C44   C49   S    
C83   C87   A    
Cr9   O10   S    
C82   H22   S    
C10   C85   S    
C70   H51   S    
C12   O36   A    
C114  C119  A    
C55   C59   A    
C123  C132  S    
C109  C135  A    
C8    C83   S    
Cr7   O17   S    
C9    O56   A    
C99   C103  A    
C95   C96   S    
C18   C26   A    
C11   O63   A    
C113  H6    S    
C49   O19   A    
C1    C45   S    
C57   H33   S    
C97   C98   S    
Cr6   O11   S    
C58   C76   A    
C57   C62   A    
C93   H24   S    
C98   H4    S    
Cr5   O12   S    
C31   H59   S    
C30   C97   S    
C100  C105  A    
C50   C54   A    
C7    C99   S    
C124  C133  S    
C10   O62   A    
C64   C68   S    
Cr3   O7    S    
C28   C29   A    
Cr3   O33   S    
C44   C62   A    
C67   C72   S    
C115  H26   S    
Cr2   O32   S    
C3    C116  A    
C25   C115  A    
C106  C110  A    
C112  C117  A    
C8    O64   A    
C65   C69   S    
Cr4   O13   S    
C99   C117  A    
C20   C25   A    
Cr11  O21   S    
Cr6   O23   S    
C30   H58   S    
Cr1   O1    S    
C58   C63   A    
C41   C123  S    
C92   H67   S    
C35   C59   A    
C75   C128  S    
Cr6   O38   S    
C31   C98   S    
Cr2   O6    S    
C133  H21   S    
C70   H55   S    
Cr5   O41   S    
C127  O12   A    
C52   C69   S    
C28   H23   S    
C2    H28   S    
C33   H61   S    
C9    O2    A    
C3    C16   S    
C129  O35   A    
C40   O59   D    
C3    C111  A    
Cr7   O34   S    
C4    C102  S    
C106  C123  S    
C109  C131  S    
C78   O28   A    
C19   C80   S    
C110  C132  S    
Cr9   O46   S    
C60   O20   A    
C131  H15   S    
C32   H60   S    
C36   C118  S    
C50   C67   S    
C121  C130  S    
C108  C130  S    
C91   H56   S    
C20   C79   S    
C4    O44   A    
C62   H38   S    
C38   C120  S    
C130  H14   S    
C34   C117  S    
Cr6   O16   S    
C35   C71   S    
C69   H54   S    
C4    O40   A    
C80   O30   A    
C21   C22   A    
C5    O41   A    
C79   O29   A    
Cr3   O29   S    
C30   O49   D    
C107  C111  A    
C107  C124  S    
C31   O50   D    
C53   C70   S    
C36   O54   D    
C64   H44   S    
C85   C92   A    
C61   H37   S    
C66   H47   S    
Cr10  O11   S    
C26   H1    S    
C97   H3    S    
C48   C53   A    
C34   O53   D    
C5    C101  S    
Cr4   O8    S    
C56   C74   A    
C29   H34   S    
C46   C64   S    
C42   C124  S    
C77   O22   A    
C17   C27   A    
Cr2   O2    S    
C84   C88   A    
Cr8   O9    S    
C125  O31   A    
Cr9   O56   S    
Cr4   O30   S    
Cr11  O26   S    
C58   H35   S    
Cr1   O9    S    
C54   C72   S    
C16   O39   A    
C85   C89   A    
C86   C87   A    
C111  C133  S    
C15   C136  S    
C20   C28   A    
C114  H7    S    
C132  H20   S    
Cr5   O10   S    
C46   C51   A    
C45   C63   A    
Cr12  O27   S    
C17   C21   A    
C116  C120  A    
C13   C24   A    
Cr8   O22   S    
C68   H49   S    
C77   O27   A    
C101  C119  A    
C47   C52   A    
C19   C23   A    
C132  H16   S    
C37   H64   S    
C108  C134  A    
C133  H17   S    
C72   H52   S    
Cr11  O63   S    
C2    C115  A    
C130  H18   S    
C38   O57   D    
C64   H42   S    
C74   C127  S    
C37   C119  S    
C12   C134  S    
Cr2   O10   S    
C1    O14   A    
Cr5   O15   S    
C96   H2    S    
C87   C96   S    
C40   H68   S    
C76   C129  S    
C92   C94   A    
C95   H72   S    
C122  H10   S    
C81   C86   A    
Cr8   O18   S    
C102  C107  A    
C6    O42   A    
Cr4   O35   S    
C84   C94   A    
C65   H43   S    
C88   C89   A    
C81   C91   A    
C7    O43   A    
C60   O16   A    
C14   C135  S    
C71   O21   A    
C103  C108  A    
C15   O38   A    
C43   C60   S    
C54   C76   A    
C10   O3    A    
Cr9   O19   S    
Cr10  O20   S    
C63   H39   S    
C112  H5    S    
C33   O52   D    
C26   C27   A    
C69   H50   S    
C11   C84   S    
C22   C93   A    
C80   O26   A    
Cr11  O48   S    
C53   C75   A    
Cr7   O43   S    
C38   H65   S    
C67   H48   S    
Cr8   O44   S    
C33   C96   S    
Cr11  O13   S    
C122  C131  S    
C42   O61   D    
C102  C120  A    
Cr10  O25   S    
C43   C61   A    
C65   H46   S    
C56   H32   S    
Cr1   O40   S    
Cr3   O3    S    
C101  C106  A    
C83   C90   A    
C105  C109  A    
C16   O8    A    
Cr12  O31   S    
C114  C136  A    
C128  O33   A    
Cr12  O64   S    
C39   H66   S    
C68   H53   S    
C18   C22   A    
C55   H31   S    
C66   H40   S    
Cr4   O4    S    
Cr12  O5    S    
C88   C97   S    
C112  C134  A    
C8    O45   A    
C42   H70   S    
C14   O37   A    
Cr10  O62   S    
C11   O4    A    
C110  C136  A    
C41   H69   S    
Cr10  O47   S    
C67   H41   S    
C14   O6    A    
C104  H25   S    
C125  O1    A    
C1    O18   A    
Cr7   O39   S    
C40   C122  S    
C124  H13   S    
C52   C74   A    
C39   C121  S    
C51   C73   A    
C89   C98   S    
C7    O48   A    
C17   C78   S    
C57   C75   A    
Cr8   O45   S    
C27   H12   S    
C49   O15   A    
C41   O60   D    
C24   C93   A    
C37   O55   D    
C121  H9    S    
C24   H30   S    
C21   C82   A    
C39   O58   D    
Cr7   O13   S    
C90   C91   A    
C66   C70   S    
C90   H45   S    
C71   O17   A    
C45   C50   A    
C18   C77   S    
C13   H29   S    
C13   C82   A    
C94   H71   S    
C6    C100  S    
C105  C122  S    
C12   O5    A    
C79   O25   A    
C51   C68   S    
C23   C25   A    
C100  C118  A    
C59   H36   S    
C78   O24   A    
C23   C104  A    
C116  H8    S    
Cr1   O36   S    
Cr2   O28   S    
C86   C95   S    
C2    C126  A    
C36   H63   S    
C131  H19   S    
C113  C118  A    
C55   C73   A    
C5    O46   A    
C32   C95   S    
C104  C126  A    
C129  O34   A    
Cr9   O24   S    
C73   C125  S    
C113  C135  A    
C72   H57   S    
C15   O7    A    
C6    O47   A    
C128  O23   A    
Cr5   O37   S    
C56   C61   A    
C127  O32   A    
C32   O51   D    
Cr3   O11   S    
Cr12  O9    S    
Cr6   O42   S    
C123  H11   S    
C48   C66   S    
Cr1   O14   S    
C35   C46   A    
C43   C47   A    
C47   C65   S    
C103  C121  S    
C126  H27   S    
C44   C48   A    
C9    C81   S    
C34   H62   S    
C19   C29   A    
