data_str_m9_o18_o19_f0_sra.sym.30
_audit_creation_date              2012-12-11T15:27:36-0500
_audit_creation_method            fapswitch 2.2
_symmetry_space_group_name_H-M    P1
_symmetry_Int_Tables_number       1
_space_group_crystal_system       triclinic
_cell_length_a                    22.970562
_cell_length_b                    7.29699
_cell_length_c                    15.139067
_cell_angle_alpha                 90.007009
_cell_angle_beta                  107.486073
_cell_angle_gamma                 89.992354
_cell_volume                      2420.28912476

loop_
_atom_site_label
_atom_site_type_symbol
_atom_type_description
_atom_site_fract_x
_atom_site_fract_y
_atom_site_fract_z
_atom_type_partial_charge
O1    O     O_R   0.711000 0.648610 0.341170 -0.532421
O2    O     O_R   0.289000 0.351390 0.658830 -0.534092
O3    O     O_R   0.789000 0.148610 0.158830 -0.532427
O4    O     O_R   0.211000 0.851390 0.841170 -0.534029
O5    O     O_R   0.829650 0.322030 0.336650 -0.530622
O6    O     O_R   0.170350 0.677970 0.663350 -0.535658
O7    O     O_R   0.670350 0.822030 0.163350 -0.530702
O8    O     O_R   0.329650 0.177970 0.836650 -0.535696
C1    C     C_R   0.854284 0.485831 0.356721 0.707762
C2    C     C_R   0.145709 0.514128 0.643302 0.707890
C3    C     C_R   0.645717 0.985839 0.143275 0.707893
C4    C     C_R   0.354292 0.014121 0.856695 0.707782
O9    O     O_R   0.713950 0.319280 0.352070 -0.535086
O10   O     O_R   0.286050 0.680720 0.647930 -0.533982
O11   O     O_R   0.786050 0.819280 0.147930 -0.535160
O12   O     O_R   0.213950 0.180720 0.852070 -0.533972
O13   O     O_R   0.672470 0.142870 0.174360 -0.534578
O14   O     O_R   0.327530 0.857130 0.825640 -0.530045
O15   O     O_R   0.827530 0.642870 0.325640 -0.534650
O16   O     O_R   0.172470 0.357130 0.674360 -0.530098
C5    C     C_R   0.701185 0.487744 0.375743 0.690680
C6    C     C_R   0.298821 0.512822 0.624251 0.690833
C7    C     C_R   0.798818 0.987713 0.124260 0.690574
C8    C     C_R   0.201180 0.012852 0.875753 0.690926
O17   O     O_3   0.736530 0.478650 0.191680 -0.375625
O18   O     O_3   0.263470 0.521350 0.808320 -0.374814
O19   O     O_3   0.763470 0.978650 0.308320 -0.375550
O20   O     O_3   0.236530 0.021350 0.691680 -0.374900
V1    V     V_3+5 0.752500 0.206170 0.260820 1.506744
V2    V     V_3+5 0.247500 0.793830 0.739180 1.506233
V3    V     V_3+5 0.747500 0.706170 0.239180 1.506448
V4    V     V_3+5 0.252500 0.293830 0.760820 1.506187
C9    C     C_R   0.828390 0.001067 0.051382 -0.046137
C10   C     C_R   0.171522 0.010489 0.948767 -0.046115
C11   C     C_R   0.671606 0.501239 0.448610 -0.046029
C12   C     C_R   0.328474 0.510316 0.551234 -0.046179
C13   C     C_R   0.821639 0.065868 0.892391 -0.063001
C14   C     C_R   0.178144 0.061373 0.108925 -0.063831
C15   C     C_R   0.678294 0.567846 0.607411 -0.062958
C16   C     C_R   0.321787 0.559490 0.390934 -0.063848
C17   C     C_R   0.793380 0.025971 0.959625 -0.150708
C18   C     C_R   0.206461 0.029329 0.040975 -0.148284
C19   C     C_R   0.706593 0.527412 0.540282 -0.150382
C20   C     C_R   0.293509 0.527997 0.458976 -0.148595
C21   C     C_R   0.891819 0.015434 0.075717 -0.140738
C22   C     C_R   0.108044 0.022990 0.924736 -0.141680
C23   C     C_R   0.608158 0.514912 0.424258 -0.140941
C24   C     C_R   0.391934 0.523435 0.575229 -0.141533
C25   C     C_R   0.921270 0.072708 0.010691 0.075419
C26   C     C_R   0.078548 0.074226 0.990719 0.075915
C27   C     C_R   0.578648 0.572809 0.489117 0.075310
C28   C     C_R   0.421371 0.574068 0.509096 0.076011
C29   C     C_R   0.885542 0.090487 0.916554 0.031007
C30   C     C_R   0.114256 0.085709 0.085170 0.031141
C31   C     C_R   0.614362 0.591841 0.583193 0.031091
C32   C     C_R   0.385648 0.584356 0.414614 0.031084
C33   C     C_R   0.985513 0.104940 0.036361 -0.062095
C34   C     C_R   0.014355 0.107545 0.965566 -0.061860
C35   C     C_R   0.514372 0.604535 0.463356 -0.062067
C36   C     C_R   0.485531 0.607872 0.534146 -0.061888
C37   C     C_R   0.978109 0.150235 0.873339 -0.087798
C38   C     C_R   0.021801 0.141219 0.129308 -0.088160
C39   C     C_R   0.521737 0.651714 0.626246 -0.087786
C40   C     C_R   0.478046 0.639647 0.370305 -0.088166
C41   C     C_R   0.913819 0.139150 0.849211 0.325928
C42   C     C_R   0.086041 0.128831 0.153326 0.325456
C43   C     C_R   0.586038 0.641150 0.650395 0.326049
C44   C     C_R   0.413818 0.626794 0.346328 0.325340
H1    H     H_    0.082572 0.994016 0.853698 0.111025
H2    H     H_    0.917366 0.981100 0.146065 0.110975
H3    H     H_    0.417443 0.495296 0.646343 0.110914
H4    H     H_    0.582645 0.479691 0.354014 0.111085
H5    H     H_    0.255812 0.022118 0.060180 0.148807
H6    H     H_    0.744063 0.016611 0.940210 0.150940
H7    H     H_    0.244167 0.520255 0.439793 0.149183
H8    H     H_    0.755923 0.518666 0.559702 0.150510
H9    H     H_    0.792589 0.080368 0.821849 0.191962
H10   H     H_    0.207191 0.071362 0.179691 0.191172
H11   H     H_    0.707334 0.583327 0.677900 0.191756
H12   H     H_    0.292728 0.568565 0.320139 0.191352
C45   C     C_1   0.416776 0.006680 0.918625 -0.142891
C46   C     C_1   0.583237 0.993052 0.081318 -0.144730
C47   C     C_1   0.083226 0.506696 0.581369 -0.143300
C48   C     C_1   0.916765 0.493033 0.418675 -0.144295
C49   C     C_1   0.469160 0.002063 0.969892 0.085293
C50   C     C_1   0.530854 0.997426 0.030041 0.084889
C51   C     C_1   0.030842 0.502070 0.530100 0.085087
C52   C     C_1   0.969149 0.497416 0.469950 0.085122
Cl1   Cl    Cl    0.868391 0.195566 0.735127 -0.613597
Cl2   Cl    Cl    0.131511 0.177144 0.268446 -0.612689
Cl3   Cl    Cl    0.631410 0.699027 0.764307 -0.613943
Cl4   Cl    Cl    0.368299 0.673632 0.231068 -0.612371
C53   C     C_2   0.006023 0.239393 0.807338 0.834217
O21   O     O_2   0.992607 0.188898 0.726665 -0.520997
O22   O     O_R   0.048925 0.379208 0.838701 -0.657398
H13   H     H_    0.065440 0.427681 0.788196 0.284907
C54   C     C_2   0.994029 0.225580 0.196718 0.835180
O23   O     O_2   0.007247 0.169755 0.276481 -0.520725
O24   O     O_R   0.951469 0.367051 0.167654 -0.657462
H14   H     H_    0.935027 0.411989 0.218893 0.283710
C55   C     C_2   0.493736 0.741469 0.692001 0.834209
O25   O     O_2   0.507206 0.691875 0.772814 -0.521070
O26   O     O_R   0.450696 0.880805 0.660255 -0.657354
H15   H     H_    0.434137 0.929747 0.710631 0.284907
C56   C     C_2   0.505731 0.723340 0.302644 0.835227
O27   O     O_2   0.492571 0.666570 0.223049 -0.520654
O28   O     O_R   0.548142 0.865296 0.331286 -0.657488
H16   H     H_    0.564536 0.909711 0.279912 0.283722

loop_
_geom_bond_atom_site_label_1
_geom_bond_atom_site_label_2
_ccdc_geom_bond_type
O17   V3    S    
C47   C51   T    
C51   C52   S    
O1    C5    A    
C55   O25   D    
O19   V1    S    
C9    C21   A    
O3    C7    A    
O22   H13   S    
C10   C18   A    
C39   C55   S    
O15   V3    S    
C54   O23   D    
C25   C33   A    
C40   C56   S    
C42   Cl2   S    
C49   C50   S    
O7    C3    A    
C56   O28   S    
C35   C40   A    
C53   O21   D    
C36   C39   A    
C40   C44   A    
O9    V1    S    
C14   C18   A    
O4    C8    A    
C37   C53   S    
C2    C47   S    
O1    V3    S    
O13   V1    S    
O2    V4    S    
O3    V1    S    
C22   H1    S    
C28   C36   A    
C17   H6    S    
C1    O15   A    
C15   C31   A    
C2    O16   A    
C7    C9    S    
O2    C6    A    
O28   H16   S    
C16   H12   S    
C10   C22   A    
C11   C19   A    
C16   C20   A    
C13   C29   A    
C34   C37   A    
O11   C7    A    
C11   C23   A    
C35   C36   A    
O12   C8    A    
O10   V2    S    
C54   O24   S    
O5    V1    S    
C3    C46   S    
C39   C43   A    
O7    V3    S    
C38   C42   A    
O8    V4    S    
C33   C38   A    
O18   V4    S    
C23   C27   A    
C14   H10   S    
C16   C32   A    
C46   C50   T    
C13   H9    S    
C8    C10   S    
C26   C34   A    
C20   H7    S    
C41   Cl1   S    
O5    C1    A    
C38   C54   S    
C31   C43   A    
O24   H14   S    
C14   C30   A    
C21   C25   A    
O8    C4    A    
C43   Cl3   S    
O9    C5    A    
C26   C30   A    
O14   V2    S    
O6    V2    S    
C12   C20   A    
C27   C35   A    
C24   H3    S    
C29   C41   A    
O16   V4    S    
C19   H8    S    
C3    O13   A    
C18   H5    S    
C21   H2    S    
C48   C52   T    
O6    C2    A    
C15   C19   A    
O11   V3    S    
C30   C42   A    
O12   V4    S    
C6    C12   S    
C56   O27   D    
C22   C26   A    
C9    C17   A    
O10   C6    A    
O20   V2    S    
C5    C11   S    
C32   C44   A    
C33   C34   A    
C53   O22   S    
C25   C29   A    
C44   Cl4   S    
C4    C45   S    
C12   C24   A    
C27   C31   A    
C13   C17   A    
O4    V2    S    
C23   H4    S    
C1    C48   S    
C37   C41   A    
C24   C28   A    
C55   O26   S    
C4    O14   A    
O26   H15   S    
C45   C49   T    
C28   C32   A    
C15   H11   S    
