data_str_m2_o10_o28_f0_pcu.sym.77
_audit_creation_date              2012-12-10T16:50:18-0500
_audit_creation_method            fapswitch 2.2
_symmetry_space_group_name_H-M    P1
_symmetry_Int_Tables_number       1
_space_group_crystal_system       triclinic
_cell_length_a                    23.575869
_cell_length_b                    8.717482
_cell_length_c                    7.477293
_cell_angle_alpha                 103.060519
_cell_angle_beta                  95.013825
_cell_angle_gamma                 93.510593
_cell_volume                      1486.06705211

loop_
_atom_site_label
_atom_site_type_symbol
_atom_type_description
_atom_site_fract_x
_atom_site_fract_y
_atom_site_fract_z
_atom_type_partial_charge
C1    C     C_R   0.496680 0.200300 0.454511 0.871379
C2    C     C_R   0.503320 0.799700 0.545489 0.871355
C3    C     C_R   0.243169 0.549324 0.661106 -0.184590
C4    C     C_R   0.756826 0.450367 0.338929 -0.184698
C5    C     C_R   0.302736 0.551022 0.669121 0.126378
C6    C     C_R   0.697261 0.448825 0.330901 0.126285
C7    C     C_R   0.328493 0.505050 0.503254 -0.087118
C8    C     C_R   0.671506 0.494916 0.496756 -0.086988
C9    C     C_R   0.293806 0.463441 0.333896 -0.279058
C10   C     C_R   0.706192 0.536600 0.666117 -0.279039
C11   C     C_R   0.234451 0.465692 0.326447 0.211909
C12   C     C_R   0.765543 0.534232 0.673586 0.211814
C13   C     C_R   0.208906 0.506067 0.492434 0.343326
C14   C     C_R   0.791087 0.493657 0.507610 0.343282
C15   C     C_2   0.486332 0.033957 0.436797 -0.025670
C16   C     C_2   0.513668 0.966043 0.563203 -0.025665
C17   C     C_R   0.391046 0.501585 0.501538 0.807505
C18   C     C_R   0.608954 0.498420 0.498463 0.807542
C19   C     C_R   0.884469 0.636274 0.561939 0.542114
C20   C     C_R   0.115531 0.363417 0.438138 0.542031
C21   C     C_R   0.875731 0.356791 0.445959 0.537776
C22   C     C_R   0.124262 0.642899 0.554143 0.537815
C23   C     C_R   0.935061 0.355361 0.432116 -0.094892
C24   C     C_R   0.064935 0.644314 0.568026 -0.094887
C25   C     C_R   0.969936 0.499008 0.501050 -0.067293
C26   C     C_R   0.030062 0.500665 0.499090 -0.067270
C27   C     C_R   0.944647 0.641047 0.571670 -0.101250
C28   C     C_R   0.055351 0.358628 0.428460 -0.101268
C29   C     C_R   0.960530 0.216424 0.350360 0.169287
C30   C     C_R   0.039468 0.783241 0.649824 0.169283
C31   C     C_R   0.019735 0.218044 0.348585 0.175249
C32   C     C_R   0.980263 0.781621 0.651590 0.175286
Cu1   Cu    Cu3+1 0.506340 0.517380 0.684380 0.973778
Cu2   Cu    Cu3+1 0.493660 0.482620 0.315620 0.973803
H1    H     H_    0.222880 0.584594 0.786435 0.141607
H2    H     H_    0.777110 0.414992 0.213600 0.141672
H3    H     H_    0.312898 0.429952 0.205444 0.175788
H4    H     H_    0.687101 0.570238 0.794558 0.175729
N1    N     N_R   0.852093 0.495508 0.507019 -0.448084
N2    N     N_R   0.147902 0.504190 0.493050 -0.448089
N3    N     N_2   0.484110 0.456420 0.038520 0.002542
N4    N     N_2   0.515890 0.543580 0.961480 0.002541
O1    O     O_R   0.504120 0.286130 0.619770 -0.567488
O2    O     O_R   0.495880 0.713870 0.380230 -0.567492
O3    O     O_R   0.493410 0.256770 0.308360 -0.601111
O4    O     O_R   0.506590 0.743230 0.691640 -0.601126
O5    O     O_R   0.423230 0.514630 0.655730 -0.537200
O6    O     O_R   0.576770 0.485370 0.344270 -0.537146
O7    O     O_R   0.412530 0.485280 0.344320 -0.606765
O8    O     O_R   0.587470 0.514720 0.655680 -0.606791
O9    O     O_2   0.857795 0.770126 0.605486 -0.553281
O10   O     O_2   0.142211 0.229579 0.394529 -0.553195
O11   O     O_2   0.841376 0.221467 0.401128 -0.556799
O12   O     O_2   0.158612 0.778234 0.598961 -0.556789
N5    N     N_3   0.927552 0.071435 0.258993 -0.542769
H5    H     H_    0.907173 0.023849 0.355086 0.269577
H6    H     H_    0.897972 0.092505 0.156522 0.253887
N6    N     N_3   0.072447 0.928213 0.741247 -0.542773
H7    H     H_    0.092819 0.975850 0.645179 0.269557
H8    H     H_    0.102035 0.907101 0.843670 0.253906
N7    N     N_3   0.041680 0.074770 0.254995 -0.531351
H9    H     H_    0.065851 0.097854 0.151849 0.261546
H10   H     H_    0.066048 0.027709 0.349738 0.260980
N8    N     N_3   0.958318 0.924879 0.745228 -0.531374
H11   H     H_    0.934134 0.901758 0.848323 0.261491
H12   H     H_    0.933964 0.971992 0.650504 0.260977
N9    N     N_3   0.336752 0.602266 0.844360 -0.565003
H13   H     H_    0.356530 0.714056 0.849372 0.227133
H14   H     H_    0.310940 0.616409 0.952802 0.208775
N10   N     N_3   0.663245 0.397659 0.155660 -0.565009
H15   H     H_    0.643515 0.285774 0.150473 0.227129
H16   H     H_    0.689050 0.383797 0.047223 0.208769
C33   C     C_3   0.200372 0.428456 0.139786 -0.793771
H17   H     H_    0.203847 0.303392 0.069124 0.250319
H18   H     H_    0.154608 0.448761 0.146940 0.231980
H19   H     H_    0.217768 0.506190 0.055888 0.205272
C34   C     C_3   0.799625 0.571674 0.860261 -0.793442
H20   H     H_    0.845347 0.550710 0.853131 0.231857
H21   H     H_    0.796343 0.697010 0.930423 0.250473
H22   H     H_    0.782083 0.494537 0.944656 0.205173
C35   C     C_3   0.438764 0.949413 0.290380 -0.845665
H23   H     H_    0.413677 0.034397 0.233094 0.222307
H24   H     H_    0.456846 0.872701 0.173264 0.259116
H25   H     H_    0.408145 0.878437 0.350576 0.231575
C36   C     C_3   0.561236 0.050587 0.709619 -0.845671
H26   H     H_    0.586323 0.965603 0.766904 0.222300
H27   H     H_    0.591855 0.121562 0.649421 0.231580
H28   H     H_    0.543154 0.127299 0.826735 0.259122
N11   N     N_3   0.443593 0.349830 0.921641 -0.399271
H29   H     H_    0.403899 0.375320 0.967591 0.226094
H30   H     H_    0.451163 0.237984 0.942262 0.201194
N12   N     N_3   0.556407 0.650168 0.078359 -0.399281
H31   H     H_    0.596101 0.624671 0.032413 0.226066
H32   H     H_    0.548839 0.762014 0.057732 0.201194

loop_
_geom_bond_atom_site_label_1
_geom_bond_atom_site_label_2
_ccdc_geom_bond_type
N3    N11   S    
N5    H5    S    
C4    H2    S    
N3    N4    D    
C31   N7    S    
C5    N9    S    
C35   H23   S    
C22   O12   S    
C34   H20   S    
C2    O4    A    
Cu1   N4    S    
C23   C29   A    
C24   C26   A    
C20   N2    A    
C36   H28   S    
N6    H8    S    
C15   C16   D    
C7    C9    A    
C33   H17   S    
N7    H10   S    
C13   N2    S    
Cu1   O8    S    
C14   N1    S    
C1    O1    A    
C2    O2    A    
C7    C17   S    
N10   H15   S    
C1    C15   S    
N11   H30   S    
C2    C16   S    
C3    C13   A    
C36   H27   S    
Cu1   O4    S    
C33   H18   S    
Cu2   N3    S    
N12   H32   S    
C35   H24   S    
C34   H21   S    
C15   C35   S    
N9    H13   S    
Cu1   O1    S    
Cu2   O2    S    
C32   N8    S    
C4    C6    A    
C11   C33   S    
C17   O7    A    
C5    C7    A    
C6    C8    A    
C29   N5    S    
C25   C26   A    
C36   H26   S    
C8    C18   S    
N9    H14   S    
N8    H12   S    
C21   O11   S    
C21   N1    A    
C3    H1    S    
C29   C31   A    
C22   N2    A    
C12   C34   S    
C9    H3    S    
Cu1   Cu2   S    
Cu2   O3    S    
C9    C11   A    
C10   C12   A    
C8    C10   A    
C12   C14   A    
C21   C23   A    
C16   C36   S    
Cu1   O5    S    
C33   H19   S    
C22   C24   A    
Cu2   O6    S    
C35   H25   S    
C19   C27   A    
C18   O8    A    
C34   H22   S    
C6    N10   S    
Cu2   O7    S    
C27   C32   A    
C28   C31   A    
C17   O5    A    
C3    C5    A    
C18   O6    A    
C25   C27   A    
C20   C28   A    
C26   C28   A    
C10   H4    S    
N8    H11   S    
N5    H6    S    
N6    H7    S    
C20   O10   S    
C30   C32   A    
C11   C13   A    
C1    O3    A    
C30   N6    S    
N12   H31   S    
N4    N12   S    
C23   C25   A    
C4    C14   A    
N7    H9    S    
C24   C30   A    
C19   O9    S    
C19   N1    A    
N10   H16   S    
N11   H29   S    
