data_str_m2_o4_o16_f0_pcu.sym.139
_audit_creation_date              2012-12-10T19:00:12-0500
_audit_creation_method            fapswitch 2.2
_symmetry_space_group_name_H-M    P1
_symmetry_Int_Tables_number       1
_space_group_crystal_system       triclinic
_cell_length_a                    9.595851
_cell_length_b                    10.866263
_cell_length_c                    13.444912
_cell_angle_alpha                 92.847479
_cell_angle_beta                  73.459385
_cell_angle_gamma                 90.003992
_cell_volume                      1342.09684841

loop_
_atom_site_label
_atom_site_type_symbol
_atom_type_description
_atom_site_fract_x
_atom_site_fract_y
_atom_site_fract_z
_atom_type_partial_charge
C1    C     C_R   0.498303 0.737700 0.504270 0.788662
C2    C     C_R   0.444432 0.472201 0.975893 0.102787
C3    C     C_R   0.490697 0.457016 0.866248 0.068469
C4    C     C_R   0.548483 0.501189 0.030625 0.077651
C5    C     C_R   0.698322 0.491527 0.975968 0.094992
C6    C     C_R   0.741893 0.450230 0.871960 -0.155494
C7    C     C_R   0.639738 0.432117 0.817940 -0.190308
C8    C     C_R   0.510237 0.543328 0.136671 -0.076528
C9    C     C_R   0.763931 0.556177 0.131851 0.001005
C10   C     C_R   0.384750 0.462278 0.810387 -0.102352
C11   C     C_R   0.363725 0.937268 0.531343 0.124706
C12   C     C_R   0.424180 0.487635 0.698620 0.803767
C13   C     C_R   0.492333 0.871172 0.520220 -0.131031
C14   C     C_R   0.613033 0.936837 0.532962 -0.157500
C15   C     C_R   0.610761 0.065839 0.536490 -0.149708
C16   C     C_R   0.490526 0.130447 0.523452 -0.137289
C17   C     C_R   0.362963 0.064150 0.532915 0.153055
C18   C     C_3   0.246042 0.069580 0.479967 -0.246542
C19   C     C_3   0.249653 0.927775 0.475261 -0.277066
C20   C     C_R   0.962490 0.465262 0.412070 0.088516
C21   C     C_R   0.891425 0.549557 0.581823 -0.058337
C22   C     C_R   0.039737 0.552012 0.582112 0.045595
C23   C     C_R   0.497678 0.262547 0.505594 0.839524
C24   C     C_R   0.109455 0.469073 0.411374 0.195767
C25   C     C_3   0.148398 0.353660 0.345757 -0.554295
C26   C     C_3   0.987835 0.343575 0.350399 -0.073911
C27   C     C_R   0.576298 0.515931 0.302047 0.807779
C28   C     C_R   0.803223 0.528359 0.024697 -0.118428
C29   C     C_R   0.617929 0.539369 0.189686 -0.223295
C30   C     C_R   0.238007 0.446583 0.864112 -0.157603
C31   C     C_R   0.196903 0.432451 0.970645 -0.085952
C32   C     C_R   0.297688 0.449514 0.026659 -0.053456
Cu1   Cu    Cu3+1 0.359330 0.500020 0.500010 0.961357
Cu2   Cu    Cu3+1 0.640670 0.499980 0.499990 0.952264
H1    H     H_    0.705061 0.113402 0.545074 0.162816
H2    H     H_    0.284667 0.106348 0.401527 0.134988
H3    H     H_    0.293681 0.886865 0.394791 0.138476
H4    H     H_    0.222889 0.371000 0.268317 0.171494
H5    H     H_    0.855760 0.433117 0.831765 0.178735
H6    H     H_    0.914694 0.537903 0.978309 0.182829
H7    H     H_    0.155288 0.442517 0.823580 0.177173
H8    H     H_    0.261069 0.442290 0.109433 0.111994
H9    H     H_    0.085613 0.411700 0.010416 0.149388
H10   H     H_    0.679916 0.392635 0.739759 0.178445
H11   H     H_    0.711193 0.889393 0.535407 0.176926
N1    N     N_R   0.852320 0.499070 0.499340 -0.226661
N2    N     N_R   0.148230 0.499110 0.499340 -0.208677
O1    O     O_R   0.381190 0.680360 0.500000 -0.623483
O2    O     O_R   0.618780 0.680320 0.499990 -0.583414
O3    O     O_R   0.323230 0.500000 0.650990 -0.597525
O4    O     O_R   0.560820 0.499960 0.650980 -0.602446
O5    O     O_R   0.381220 0.319680 0.500010 -0.540206
O6    O     O_R   0.618810 0.319640 0.500000 -0.593389
O7    O     O_R   0.439180 0.500040 0.349020 -0.595267
O8    O     O_R   0.676770 0.500000 0.349010 -0.576137
C33   C     C_2   0.869573 0.618265 0.179105 0.357570
H12   H     H_    0.835956 0.654926 0.258884 0.098170
O9    O     O_2   0.994837 0.634572 0.127923 -0.516014
C34   C     C_2   0.109098 0.130591 0.550075 0.472604
H13   H     H_    0.003854 0.095500 0.549040 0.083979
O10   O     O_2   0.114503 0.220065 0.607444 -0.541706
C35   C     C_2   0.113326 0.865380 0.535238 0.358561
H14   H     H_    0.058388 0.802531 0.494211 0.066161
O11   O     O_2   0.061936 0.886442 0.628705 -0.525834
H15   H     H_    0.807912 0.590794 0.646841 0.190658
C36   C     C_2   0.073072 0.622307 0.669193 0.437825
H16   H     H_    0.174531 0.670142 0.657704 0.148491
O12   O     O_2   0.983762 0.633762 0.754436 -0.568361
H17   H     H_    0.189805 0.283169 0.386472 0.215115
C37   C     C_2   0.959374 0.350343 0.246227 0.457989
H18   H     H_    0.020078 0.413868 0.191747 0.045788
O13   O     O_2   0.868014 0.286400 0.222368 -0.497608
C38   C     C_2   0.919035 0.236862 0.412024 0.474380
H19   H     H_    0.875708 0.250159 0.495530 0.044653
O14   O     O_2   0.921161 0.134076 0.370412 -0.535980
C39   C     C_2   0.380276 0.625514 0.182537 0.345103
H20   H     H_    0.340478 0.646638 0.265329 0.095719
O15   O     O_2   0.322571 0.679809 0.127007 -0.480121

loop_
_geom_bond_atom_site_label_1
_geom_bond_atom_site_label_2
_ccdc_geom_bond_type
C36   O12   D    
C27   C29   S    
C38   H19   S    
C4    C8    A    
C27   O7    A    
Cu1   O5    S    
C11   C19   S    
Cu2   O4    S    
C31   H9    S    
C8    C29   A    
C39   O15   D    
C3    C7    A    
C5    C6    A    
C27   O8    A    
C28   H6    S    
C19   C35   S    
C15   C16   A    
C8    C39   S    
C26   C38   S    
C33   H12   S    
C2    C32   A    
C18   C19   S    
C22   C36   S    
C35   O11   D    
C19   H3    S    
C20   C24   A    
C33   O9    D    
C16   C17   A    
C30   H7    S    
C37   H18   S    
Cu2   N1    S    
C9    C29   A    
C36   H16   S    
Cu2   O8    S    
C13   C14   A    
C38   O14   D    
C15   H1    S    
C23   O6    A    
C14   H11   S    
C34   O10   D    
C24   C25   S    
C25   C26   S    
C2    C4    A    
C35   H14   S    
C25   H4    S    
C5    C28   A    
C10   C30   A    
C31   C32   A    
C17   C18   S    
C9    C33   S    
C7    H10   S    
C39   H20   S    
C10   C12   S    
C16   C23   S    
C26   C37   S    
C25   H17   S    
C12   O4    A    
C21   N1    A    
Cu1   O7    S    
C11   C17   A    
Cu2   O2    S    
C21   H15   S    
C14   C15   A    
C24   N2    A    
C4    C5    A    
C12   O3    A    
C1    O1    A    
C6    C7    A    
C2    C3    A    
Cu1   O3    S    
C3    C10   A    
C11   C13   A    
C18   H2    S    
C23   O5    A    
C30   C31   A    
C20   C26   S    
Cu1   N2    S    
Cu1   Cu2   S    
C22   N2    A    
C18   C34   S    
C34   H13   S    
C1    C13   S    
Cu2   O6    S    
Cu1   O1    S    
C32   H8    S    
C6    H5    S    
C37   O13   D    
C21   C22   A    
C1    O2    A    
C20   N1    A    
C9    C28   A    
