data_str_m2_o22_o22_f0_pcu.sym.201
_audit_creation_date              2012-12-10T18:09:34-0500
_audit_creation_method            fapswitch 2.2
_symmetry_space_group_name_H-M    P1
_symmetry_Int_Tables_number       1
_space_group_crystal_system       triclinic
_cell_length_a                    15.018453
_cell_length_b                    15.672738
_cell_length_c                    9.395683
_cell_angle_alpha                 90.133533
_cell_angle_beta                  90.028589
_cell_angle_gamma                 89.945479
_cell_volume                      2211.55120592

loop_
_atom_site_label
_atom_site_type_symbol
_atom_type_description
_atom_site_fract_x
_atom_site_fract_y
_atom_site_fract_z
_atom_type_partial_charge
C1    C     C_R   0.122072 0.381807 0.499755 0.724137
C2    C     C_R   0.122953 0.617219 0.500123 0.843264
C3    C     C_R   0.622379 0.882394 0.499823 0.801217
C4    C     C_R   0.622366 0.117664 0.499983 0.782901
C5    C     C_3   0.093055 0.495715 0.084024 -0.190639
C6    C     C_3   0.093077 0.496108 0.916111 -0.185641
C7    C     C_3   0.592827 0.007289 0.084021 -0.193442
C8    C     C_3   0.592838 0.007219 0.916118 -0.189430
C9    C     C_R   0.881116 0.378338 0.500300 0.823647
C10   C     C_R   0.882221 0.622670 0.499753 0.825565
C11   C     C_R   0.381136 0.878466 0.499959 0.866646
C12   C     C_R   0.381480 0.121697 0.500032 0.779324
C13   C     C_3   0.828079 0.244598 0.624010 -0.428963
C14   C     C_3   0.813985 0.257728 0.360419 -0.443388
C15   C     C_3   0.821020 0.749610 0.630446 -0.405280
C16   C     C_3   0.819116 0.747506 0.363590 -0.381177
C17   C     C_3   0.334778 0.739380 0.611686 -0.426555
C18   C     C_3   0.308711 0.763244 0.353469 -0.425895
C19   C     C_3   0.302225 0.230945 0.649608 -0.390782
C20   C     C_3   0.336169 0.261441 0.394313 -0.355149
C21   C     C_3   0.270130 0.663024 0.598355 -0.466797
C22   C     C_3   0.231086 0.699330 0.349018 -0.401614
C23   C     C_3   0.223874 0.294021 0.652290 -0.388451
C24   C     C_3   0.271805 0.337954 0.409330 -0.381987
C25   C     C_3   0.750310 0.180527 0.633672 -0.456310
C26   C     C_3   0.752414 0.179729 0.369383 -0.350413
C27   C     C_3   0.761698 0.829123 0.614260 -0.490070
C28   C     C_3   0.739782 0.809432 0.354117 -0.376524
C29   C     C_3   0.714833 0.350255 0.524011 0.272695
C30   C     C_3   0.713988 0.649398 0.498824 0.227882
C31   C     C_3   0.216226 0.849264 0.534210 0.228593
C32   C     C_3   0.216315 0.150065 0.457812 0.286551
C33   C     C_3   0.810511 0.309873 0.501760 0.133872
C34   C     C_3   0.810397 0.690216 0.498808 0.093214
C35   C     C_3   0.311132 0.809767 0.500587 0.119558
C36   C     C_3   0.310232 0.189078 0.499210 0.078558
C37   C     C_3   0.189994 0.687603 0.500806 0.064509
C38   C     C_3   0.189004 0.311098 0.498217 -0.015328
C39   C     C_3   0.688577 0.188417 0.500247 0.056278
C40   C     C_3   0.688682 0.811815 0.498904 0.048271
C41   C     C_3   0.145392 0.773859 0.555086 0.003256
C42   C     C_3   0.147227 0.226547 0.433443 0.063157
C43   C     C_3   0.639518 0.278530 0.501225 -0.000708
C44   C     C_3   0.641267 0.722607 0.525930 0.048403
C45   C     C_3   0.959327 0.578230 0.084042 -0.185481
C46   C     C_3   0.958954 0.578004 0.916580 -0.191569
C47   C     C_3   0.951556 0.426178 0.083370 -0.186163
C48   C     C_3   0.951998 0.425884 0.915911 -0.187126
C49   C     C_3   0.448778 0.072132 0.083891 -0.179163
C50   C     C_3   0.448895 0.072204 0.916449 -0.184556
C51   C     C_3   0.462436 0.920386 0.083360 -0.186811
C52   C     C_3   0.462376 0.920390 0.915881 -0.192318
Cu1   Cu    Cu3+1 0.000100 0.500000 0.642410 0.919169
Cu2   Cu    Cu3+1 0.000100 0.500000 0.357590 0.917781
Cu3   Cu    Cu3+1 0.500100 0.000000 0.642410 0.900328
Cu4   Cu    Cu3+1 0.500100 0.000000 0.357590 0.944241
H1    H     H_    0.838982 0.275968 0.728708 0.171220
H2    H     H_    0.795310 0.296976 0.267057 0.171571
H3    H     H_    0.802701 0.714889 0.729308 0.199706
H4    H     H_    0.822855 0.709287 0.263950 0.193080
H5    H     H_    0.333990 0.764185 0.722212 0.169878
H6    H     H_    0.303132 0.808144 0.262635 0.176480
H7    H     H_    0.292251 0.182726 0.734732 0.194032
H8    H     H_    0.336000 0.237221 0.283096 0.228408
H9    H     H_    0.889574 0.208451 0.602856 0.221410
H10   H     H_    0.883067 0.235607 0.339412 0.202297
H11   H     H_    0.891211 0.770331 0.641864 0.219076
H12   H     H_    0.880819 0.785742 0.369712 0.215791
H13   H     H_    0.403572 0.716402 0.593587 0.204317
H14   H     H_    0.372145 0.728148 0.336433 0.211064
H15   H     H_    0.364853 0.265091 0.676392 0.219153
H16   H     H_    0.404778 0.283557 0.417009 0.182636
H17   H     H_    0.306242 0.607630 0.551306 0.185721
H18   H     H_    0.256519 0.637062 0.308535 0.158047
H19   H     H_    0.246691 0.354579 0.702632 0.183095
H20   H     H_    0.306718 0.391576 0.463675 0.173121
H21   H     H_    0.777887 0.114674 0.640988 0.180827
H22   H     H_    0.793808 0.121189 0.381766 0.172984
H23   H     H_    0.803603 0.884131 0.580704 0.187783
H24   H     H_    0.764928 0.874203 0.326824 0.146448
H25   H     H_    0.248812 0.641409 0.705483 0.167360
H26   H     H_    0.181107 0.720966 0.270170 0.223244
H27   H     H_    0.170021 0.268202 0.720841 0.186427
H28   H     H_    0.253179 0.362320 0.302453 0.198119
H29   H     H_    0.712884 0.191418 0.733886 0.162163
H30   H     H_    0.717991 0.171013 0.266221 0.213840
H31   H     H_    0.734825 0.848061 0.719583 0.169541
H32   H     H_    0.695944 0.789588 0.265009 0.237190
H33   H     H_    0.994717 0.635852 0.123976 0.185048
H34   H     H_    0.993909 0.635545 0.876876 0.199561
H35   H     H_    0.980650 0.365594 0.123117 0.138446
H36   H     H_    0.981960 0.365349 0.876341 0.140778
H37   H     H_    0.475754 0.133731 0.123776 0.194599
H38   H     H_    0.476127 0.133793 0.877132 0.146505
H39   H     H_    0.499970 0.864066 0.122846 0.198475
H40   H     H_    0.499695 0.863974 0.875546 0.153358
H41   H     H_    0.889286 0.583327 0.121308 0.145661
H42   H     H_    0.888803 0.582786 0.879511 0.157592
H43   H     H_    0.881270 0.427875 0.120585 0.142733
H44   H     H_    0.881840 0.426922 0.877972 0.158881
H45   H     H_    0.378673 0.068251 0.121427 0.163612
H46   H     H_    0.378833 0.068367 0.878575 0.152955
H47   H     H_    0.392615 0.912963 0.120342 0.141560
H48   H     H_    0.392502 0.913032 0.878943 0.148101
H49   H     H_    0.133140 0.550449 0.123565 0.139796
H50   H     H_    0.132718 0.551323 0.877752 0.138888
H51   H     H_    0.127171 0.437033 0.121852 0.159523
H52   H     H_    0.127692 0.437866 0.877239 0.149834
H53   H     H_    0.624702 0.067018 0.122175 0.160321
H54   H     H_    0.624879 0.066833 0.878110 0.142547
H55   H     H_    0.634947 0.953882 0.123158 0.139397
H56   H     H_    0.634821 0.953663 0.876901 0.136655
N1    N     N_3   0.001260 0.500000 0.143650 -0.125013
N2    N     N_3   0.001260 0.500000 0.856350 -0.126378
N3    N     N_3   0.501260 0.000000 0.143650 -0.130168
N4    N     N_3   0.501260 0.000000 0.856350 -0.121545
O1    O     O_R   0.091250 0.408820 0.620260 -0.602203
O2    O     O_R   0.091250 0.408820 0.379740 -0.607419
O3    O     O_R   0.091250 0.591180 0.620260 -0.595820
O4    O     O_R   0.091250 0.591180 0.379740 -0.564028
O5    O     O_R   0.591250 0.908820 0.620260 -0.622310
O6    O     O_R   0.591250 0.908820 0.379740 -0.556459
O7    O     O_R   0.591250 0.091180 0.620260 -0.620643
O8    O     O_R   0.591250 0.091180 0.379740 -0.554739
O9    O     O_R   0.908940 0.408800 0.620260 -0.590264
O10   O     O_R   0.908940 0.408800 0.379740 -0.604941
O11   O     O_R   0.908940 0.591200 0.620260 -0.584028
O12   O     O_R   0.908940 0.591200 0.379740 -0.586095
O13   O     O_R   0.408940 0.908800 0.620260 -0.592757
O14   O     O_R   0.408940 0.908800 0.379740 -0.583507
O15   O     O_R   0.408940 0.091200 0.620260 -0.601397
O16   O     O_R   0.408940 0.091200 0.379740 -0.584056
N5    N     N_3   0.711801 0.387213 0.669411 -0.588663
H57   H     H_    0.708885 0.340519 0.748153 0.206342
H58   H     H_    0.654292 0.423646 0.682956 0.261833
N6    N     N_3   0.703177 0.421145 0.423790 -0.643785
H59   H     H_    0.639666 0.446659 0.438368 0.205021
H60   H     H_    0.708241 0.401900 0.317781 0.207810
N7    N     N_3   0.707598 0.584485 0.611022 -0.590166
H61   H     H_    0.753889 0.536239 0.593288 0.257658
H62   H     H_    0.644896 0.556162 0.604245 0.253798
N8    N     N_3   0.699558 0.609125 0.357746 -0.598644
H63   H     H_    0.749702 0.565152 0.334979 0.239156
H64   H     H_    0.639588 0.575736 0.354632 0.213782
N9    N     N_3   0.221441 0.904312 0.661756 -0.611734
H65   H     H_    0.247491 0.873035 0.750206 0.195450
H66   H     H_    0.157877 0.926437 0.688682 0.226905
N10   N     N_3   0.191620 0.905188 0.414009 -0.620845
H67   H     H_    0.133533 0.938723 0.437983 0.206685
H68   H     H_    0.177197 0.870773 0.321711 0.235196
N11   N     N_3   0.187246 0.096159 0.577944 -0.615453
H69   H     H_    0.237870 0.053653 0.604198 0.242672
H70   H     H_    0.132082 0.059610 0.549940 0.256352
N12   N     N_3   0.222941 0.096932 0.328211 -0.562503
H71   H     H_    0.260309 0.042293 0.348338 0.241981
H72   H     H_    0.159490 0.074751 0.300969 0.241153
C53   C     C_2   0.120139 0.763840 0.713266 0.258016
H73   H     H_    0.170478 0.748906 0.791904 0.086848
O17   O     O_2   0.044186 0.774596 0.756135 -0.603450
C54   C     C_2   0.058855 0.794573 0.474948 0.299115
H74   H     H_    0.015418 0.844552 0.515155 0.101537
O18   O     O_2   0.038652 0.759479 0.363551 -0.606287
C55   C     C_2   0.058808 0.206476 0.505470 0.183388
H75   H     H_    0.038491 0.240026 0.601096 0.089620
O19   O     O_2   0.010940 0.149824 0.458934 -0.607510
C56   C     C_2   0.123663 0.240535 0.275572 0.392581
H76   H     H_    0.055473 0.254703 0.245271 0.072030
O20   O     O_2   0.179768 0.238926 0.181564 -0.579120
C57   C     C_2   0.569907 0.282640 0.620637 0.190726
H77   H     H_    0.569877 0.237139 0.707061 0.115860
O21   O     O_2   0.515660 0.340774 0.625938 -0.597660
C58   C     C_2   0.584972 0.293968 0.364231 0.311856
H78   H     H_    0.544202 0.350934 0.355784 0.106744
O22   O     O_2   0.583182 0.244629 0.263903 -0.593805
C59   C     C_2   0.604049 0.720450 0.678945 0.274750
H79   H     H_    0.623581 0.766524 0.758574 0.100461
O23   O     O_2   0.551396 0.665522 0.716579 -0.579016
C60   C     C_2   0.559855 0.707778 0.429760 0.288666
H80   H     H_    0.515730 0.654659 0.452280 0.098492
O24   O     O_2   0.544844 0.750014 0.323637 -0.586216

loop_
_geom_bond_atom_site_label_1
_geom_bond_atom_site_label_2
_ccdc_geom_bond_type
C12   O16   A    
C18   H14   S    
C29   N5    S    
Cu3   Cu4   S    
Cu3   O5    S    
C17   H13   S    
C53   H73   S    
C12   O15   A    
Cu2   O4    S    
C57   H77   S    
C19   H15   S    
C55   H75   S    
C44   C59   S    
C13   C25   S    
C14   C33   S    
N9    H65   S    
C43   C57   S    
C7    C8    S    
C59   O23   D    
C5    H49   S    
C45   C46   S    
C58   H78   S    
Cu2   O10   S    
C26   H22   S    
C23   H27   S    
C25   H21   S    
C32   C36   S    
C55   O19   D    
N10   H68   S    
C38   C42   S    
C27   H23   S    
C19   C36   S    
C8    H56   S    
C49   H45   S    
C5    C6    S    
Cu1   O1    S    
C26   C39   S    
C13   H1    S    
Cu3   N4    S    
C28   C40   S    
C51   H47   S    
Cu2   N1    S    
C21   H17   S    
C47   H43   S    
C4    O8    A    
C16   H4    S    
C7    N3    S    
C6    N2    S    
Cu1   O11   S    
C16   C34   S    
C20   C24   S    
C29   C33   S    
C19   H7    S    
Cu3   O13   S    
C28   H32   S    
C24   C38   S    
N11   H69   S    
C16   H12   S    
C12   C36   S    
C45   H33   S    
C18   C35   S    
C15   C34   S    
N12   H72   S    
C16   C28   S    
Cu4   O8    S    
C3    O6    A    
C26   H30   S    
C17   H5    S    
C46   H42   S    
C53   O17   D    
C29   C43   S    
C56   O20   D    
C57   O21   D    
C30   C44   S    
C15   H3    S    
C10   O12   A    
C11   O13   A    
N9    H66   S    
C58   O22   D    
C60   H80   S    
C52   N4    S    
C6    H50   S    
C28   H24   S    
C14   H2    S    
N7    H61   S    
Cu3   O7    S    
C31   N9    S    
C30   C34   S    
C51   C52   S    
C47   C48   S    
C48   H44   S    
N10   H67   S    
N6    H60   S    
C44   C60   S    
C2    O4    A    
C42   C55   S    
C50   H38   S    
C39   C43   S    
Cu1   Cu2   S    
C22   C37   S    
Cu2   O12   S    
C51   N3    S    
C7    H53   S    
C4    O7    A    
C54   O18   D    
C20   H8    S    
C19   C23   S    
C13   C33   S    
C8    H54   S    
C41   C54   S    
C15   C27   S    
C59   H79   S    
C4    C39   S    
C27   C40   S    
C2    O3    A    
C15   H11   S    
C25   H29   S    
C14   H10   S    
C10   C34   S    
C1    O1    A    
C14   C26   S    
C27   H31   S    
N12   H71   S    
Cu4   O16   S    
Cu1   O9    S    
C1    C38   S    
C9    C33   S    
C41   C53   S    
C31   N10   S    
C49   N3    S    
C21   H25   S    
C3    C40   S    
C50   H46   S    
Cu3   O15   S    
Cu2   O2    S    
C56   H76   S    
C31   C35   S    
C22   H18   S    
C32   N12   S    
C10   O11   A    
C11   O14   A    
C22   H26   S    
N8    H64   S    
Cu1   N2    S    
C48   N2    S    
C5    H51   S    
C47   N1    S    
C52   H48   S    
C32   C42   S    
C30   N7    S    
C31   C41   S    
C5    N1    S    
C18   C22   S    
C47   H35   S    
C24   H20   S    
C46   N2    S    
C23   H19   S    
N6    H59   S    
C60   O24   D    
C43   C58   S    
Cu1   O3    S    
C46   H34   S    
C23   C38   S    
C9    O10   A    
C30   N8    S    
C54   H74   S    
C11   C35   S    
C24   H28   S    
C45   H41   S    
C25   C39   S    
N7    H62   S    
C2    C37   S    
N5    H57   S    
C32   N11   S    
Cu4   N3    S    
C7    H55   S    
C52   H40   S    
C50   N4    S    
C1    O2    A    
N11   H70   S    
C37   C41   S    
C13   H9    S    
C9    O9    A    
C8    N4    S    
C20   C36   S    
C45   N1    S    
C40   C44   S    
C29   N6    S    
C21   C37   S    
C49   C50   S    
C48   H36   S    
C51   H39   S    
N5    H58   S    
C6    H52   S    
N8    H63   S    
C20   H16   S    
C18   H6    S    
C17   C35   S    
C49   H37   S    
Cu4   O14   S    
C3    O5    A    
Cu4   O6    S    
C42   C56   S    
C17   C21   S    
