data_str_m3_o14_o14_f0_pcu.sym.8
_audit_creation_date              2012-12-10T17:41:04-0500
_audit_creation_method            fapswitch 2.2
_symmetry_space_group_name_H-M    P1
_symmetry_Int_Tables_number       1
_space_group_crystal_system       triclinic
_cell_length_a                    14.803898
_cell_length_b                    15.319179
_cell_length_c                    9.97361
_cell_angle_alpha                 89.442854
_cell_angle_beta                  90.456839
_cell_angle_gamma                 89.989329
_cell_volume                      2261.67190689

loop_
_atom_site_label
_atom_site_type_symbol
_atom_type_description
_atom_site_fract_x
_atom_site_fract_y
_atom_site_fract_z
_atom_type_partial_charge
C1    C     C_R   0.382570 0.878279 0.500362 0.895364
C2    C     C_R   0.679110 0.254376 0.423676 -0.196388
C3    C     C_R   0.182934 0.248030 0.582241 -0.182311
C4    C     C_R   0.178700 0.754757 0.424501 -0.196545
C5    C     C_R   0.694478 0.822458 0.503165 -0.045743
C6    C     C_R   0.693216 0.178663 0.498902 -0.037968
C7    C     C_R   0.194392 0.322373 0.503130 -0.045604
C8    C     C_R   0.193096 0.678782 0.498942 -0.037718
C9    C     C_R   0.329990 0.000095 0.129981 0.638169
C10   C     C_R   0.829992 0.500093 0.129979 0.637922
C11   C     C_R   0.250814 0.999103 0.053973 -0.213140
C12   C     C_R   0.382859 0.121982 0.499176 0.898690
C13   C     C_R   0.750815 0.499084 0.053973 -0.213239
C14   C     C_R   0.253873 0.998477 0.916530 -0.304706
C15   C     C_R   0.753874 0.498451 0.916531 -0.304613
C16   C     C_R   0.336418 0.998852 0.853308 -0.142401
C17   C     C_R   0.836418 0.498838 0.853308 -0.142546
C18   C     C_R   0.418789 0.999532 0.925254 0.112666
C19   C     C_R   0.918789 0.499525 0.925254 0.112652
C20   C     C_R   0.417599 0.999861 0.069683 0.029168
C21   C     C_R   0.917600 0.499857 0.069682 0.029251
C22   C     C_R   0.577653 0.000225 0.072321 -0.087068
C23   C     C_R   0.882620 0.378232 0.500370 0.895524
C24   C     C_R   0.077653 0.500227 0.072321 -0.087233
C25   C     C_R   0.621855 0.117414 0.499822 0.828498
C26   C     C_R   0.622252 0.882934 0.500825 0.828604
C27   C     C_R   0.121801 0.617468 0.499825 0.828419
C28   C     C_R   0.122218 0.382898 0.500821 0.828608
C29   C     C_R   0.577588 0.000316 0.929726 -0.075319
C30   C     C_R   0.077588 0.500319 0.929726 -0.075508
C31   C     C_R   0.416847 0.282783 0.346944 -0.288142
C32   C     C_R   0.421429 0.715019 0.642636 -0.281257
C33   C     C_R   0.916599 0.782595 0.346134 -0.288857
C34   C     C_R   0.882887 0.622009 0.499171 0.898785
C35   C     C_R   0.921048 0.215345 0.644183 -0.281977
C36   C     C_R   0.431681 0.361166 0.278347 -0.210688
C37   C     C_R   0.438273 0.635729 0.708058 -0.213204
C38   C     C_R   0.931304 0.860878 0.277216 -0.210939
C39   C     C_R   0.937673 0.136244 0.710288 -0.213553
C40   C     C_R   0.868087 0.927855 0.283659 0.711120
C41   C     C_R   0.873603 0.069860 0.706196 0.713912
C42   C     C_R   0.368412 0.428105 0.284675 0.710938
C43   C     C_R   0.374149 0.569385 0.704102 0.713867
C44   C     C_R   0.789579 0.916365 0.358005 -0.297225
C45   C     C_R   0.246051 0.183223 0.579340 -0.180114
C46   C     C_R   0.792438 0.082704 0.636874 -0.298365
C47   C     C_R   0.289735 0.416484 0.358601 -0.296996
C48   C     C_R   0.292726 0.582452 0.635583 -0.298107
C49   C     C_R   0.772837 0.836650 0.426457 0.027869
C50   C     C_R   0.774023 0.163123 0.571012 0.025083
C51   C     C_R   0.272891 0.336685 0.426774 0.028050
C52   C     C_R   0.274131 0.663035 0.570340 0.025097
C53   C     C_R   0.337471 0.269709 0.422498 0.108054
C54   C     C_R   0.339344 0.729491 0.572600 0.109584
C55   C     C_R   0.837389 0.769648 0.422118 0.108020
C56   C     C_R   0.242326 0.819151 0.425789 -0.187036
C57   C     C_R   0.839211 0.229607 0.573349 0.109582
C58   C     C_R   0.321298 0.192736 0.497960 -0.058782
C59   C     C_R   0.320920 0.807629 0.500961 -0.084324
C60   C     C_R   0.821358 0.692796 0.497948 -0.058929
C61   C     C_R   0.821018 0.307533 0.500977 -0.084665
C62   C     C_R   0.746298 0.683455 0.579739 -0.180172
C63   C     C_R   0.742712 0.318776 0.425001 -0.186899
C64   C     C_R   0.683207 0.748277 0.582680 -0.182386
F1    F     F_    0.883262 0.004592 0.218773 -0.655173
F2    F     F_    0.890442 0.992435 0.768579 -0.656185
F3    F     F_    0.383693 0.504928 0.220079 -0.655509
F4    F     F_    0.391179 0.491792 0.765844 -0.656556
F5    F     F_    0.314232 0.002060 0.260986 -0.670964
F6    F     F_    0.814238 0.502087 0.260981 -0.670906
H1    H     H_    0.235174 0.124498 0.638668 0.145111
H2    H     H_    0.141306 0.500602 0.877325 0.163478
H3    H     H_    0.468545 0.233531 0.341235 0.175301
H4    H     H_    0.473469 0.764082 0.646237 0.177282
H5    H     H_    0.968284 0.733337 0.340314 0.175670
H6    H     H_    0.973085 0.264407 0.647911 0.177874
H7    H     H_    0.493015 0.370272 0.221476 0.168543
H8    H     H_    0.501676 0.625513 0.760762 0.164080
H9    H     H_    0.992512 0.869885 0.220021 0.168867
H10   H     H_    0.000882 0.126198 0.763610 0.164476
H11   H     H_    0.743585 0.971003 0.363573 0.165683
H12   H     H_    0.229067 0.879028 0.370505 0.202932
H13   H     H_    0.745492 0.028707 0.633379 0.165328
H14   H     H_    0.243677 0.471078 0.364056 0.165564
H15   H     H_    0.245704 0.528514 0.632228 0.165072
H16   H     H_    0.624398 0.739365 0.644822 0.144212
H17   H     H_    0.617860 0.264636 0.365980 0.144859
H18   H     H_    0.123967 0.238992 0.644023 0.143990
H19   H     H_    0.117222 0.765210 0.367466 0.144638
H20   H     H_    0.641365 0.000393 0.126227 0.164992
H21   H     H_    0.141365 0.500396 0.126229 0.164830
H22   H     H_    0.185766 0.999160 0.103042 0.190692
H23   H     H_    0.735531 0.624845 0.639366 0.145342
H24   H     H_    0.685768 0.499139 0.103044 0.190723
H25   H     H_    0.729628 0.378459 0.369112 0.203236
H26   H     H_    0.191812 0.998002 0.858263 0.191830
H27   H     H_    0.691813 0.497969 0.858264 0.191924
H28   H     H_    0.332240 0.998714 0.747391 0.220613
H29   H     H_    0.832241 0.498706 0.747391 0.220708
H30   H     H_    0.641306 0.000596 0.877326 0.163643
N1    N     N_R   0.498810 0.000000 0.142780 -0.111267
N2    N     N_R   0.998810 0.500000 0.142780 -0.111223
N3    N     N_R   0.498740 0.000000 0.857170 -0.113508
N4    N     N_R   0.998740 0.500000 0.857170 -0.113485
O1    O     O_R   0.408390 0.908380 0.614690 -0.656504
O2    O     O_R   0.591620 0.908390 0.614640 -0.628026
O3    O     O_R   0.091620 0.591610 0.614640 -0.611667
O4    O     O_R   0.091620 0.408390 0.614640 -0.627970
O5    O     O_R   0.591610 0.091610 0.385310 -0.633683
O6    O     O_R   0.591610 0.908390 0.385310 -0.616680
O7    O     O_R   0.091610 0.591610 0.385310 -0.633545
O8    O     O_R   0.091610 0.408390 0.385310 -0.616749
O9    O     O_R   0.408390 0.091620 0.614690 -0.642568
O10   O     O_R   0.908390 0.408380 0.614690 -0.656602
O11   O     O_R   0.908390 0.591620 0.614690 -0.642671
O12   O     O_R   0.408370 0.908380 0.385360 -0.534816
O13   O     O_R   0.408370 0.091620 0.385360 -0.546869
O14   O     O_R   0.908370 0.408380 0.385360 -0.535022
O15   O     O_R   0.908370 0.591620 0.385360 -0.546821
O16   O     O_R   0.591620 0.091610 0.614640 -0.611676
Zn1   Zn    Zn3+2 0.500010 0.000000 0.653130 0.949561
Zn2   Zn    Zn3+2 0.000010 0.500000 0.653130 0.949456
Zn3   Zn    Zn3+2 0.499980 0.000000 0.346870 1.001678
Zn4   Zn    Zn3+2 0.999980 0.500000 0.346870 1.001620

loop_
_geom_bond_atom_site_label_1
_geom_bond_atom_site_label_2
_ccdc_geom_bond_type
C44   C49   A    
C33   C55   A    
C24   H21   S    
O12   Zn3   S    
C45   H1    S    
C36   C42   A    
C4    C8    A    
C26   O2    A    
C23   O14   A    
C39   C41   A    
C22   C29   A    
O15   Zn4   S    
C28   O8    A    
N1    Zn3   S    
C22   N1    A    
C19   C21   A    
C9    F5    S    
O8    Zn4   S    
C3    C7    A    
C36   H7    S    
C1    C59   S    
C32   H4    S    
C11   C14   A    
C31   H3    S    
C6    C25   S    
N4    Zn2   S    
C38   H9    S    
C63   H25   S    
C29   N3    A    
C60   C62   A    
C14   H26   S    
C61   C63   A    
C62   C64   A    
C11   H22   S    
C33   H5    S    
C43   F4    S    
C41   C46   A    
C1    O12   A    
C43   C48   A    
C8    C52   A    
C40   C44   A    
C24   N2    A    
C25   O5    A    
C18   N3    A    
C12   C58   S    
O7    Zn4   S    
C27   O7    A    
O11   Zn2   S    
C55   C60   A    
C4    C56   A    
C34   C60   S    
C5    C49   A    
C2    C6    A    
C15   H27   S    
N2    Zn4   S    
C64   H16   S    
C52   C54   A    
C54   C59   A    
C10   C21   A    
C35   H6    S    
C45   C58   A    
C47   H14   S    
C44   H11   S    
O5    Zn3   S    
C47   C51   A    
C20   N1    A    
C34   O11   A    
C49   C55   A    
C3    C45   A    
C6    C50   A    
C7    C28   S    
C5    C26   S    
C5    C64   A    
C51   C53   A    
C37   C43   A    
C35   C39   A    
O6    Zn3   S    
C9    C11   A    
C19   N4    A    
C9    C20   A    
C27   O3    A    
C22   H20   S    
O1    Zn1   S    
C2    H17   S    
O14   Zn4   S    
C32   C37   A    
C31   C53   A    
C57   C61   A    
C17   H29   S    
C21   N2    A    
C10   F6    S    
C40   F1    S    
C13   C15   A    
C42   F3    S    
C14   C16   A    
N3    Zn1   S    
C25   O16   A    
O16   Zn1   S    
C4    H19   S    
C23   C61   S    
C34   O15   A    
C15   C17   A    
C26   O6    A    
C2    C63   A    
C29   H30   S    
C3    H18   S    
C31   C36   A    
C50   C57   A    
O4    Zn2   S    
C10   C13   A    
C30   H2    S    
C53   C58   A    
C56   H12   S    
C41   F2    S    
C37   H8    S    
C46   C50   A    
C33   C38   A    
C32   C54   A    
C56   C59   A    
C13   H24   S    
C35   C57   A    
C39   H10   S    
O13   Zn3   S    
C7    C51   A    
C23   O10   A    
C38   C40   A    
C16   H28   S    
C28   O4    A    
O2    Zn1   S    
C17   C19   A    
C12   O9    A    
C18   C20   A    
C42   C47   A    
C24   C30   A    
C46   H13   S    
O10   Zn2   S    
C48   C52   A    
O9    Zn1   S    
C16   C18   A    
C62   H23   S    
C30   N4    A    
C8    C27   S    
C48   H15   S    
C12   O13   A    
O3    Zn2   S    
C1    O1    A    
