data_str_m2_o10_o17_f0_pcu.sym.17
_audit_creation_date              2012-10-26T19:40:01-0400
_audit_creation_method            fapswitch 2.2
_symmetry_space_group_name_H-M    P1
_symmetry_Int_Tables_number       1
_space_group_crystal_system       triclinic
_cell_length_a                    14.961652
_cell_length_b                    8.675483
_cell_length_c                    7.451608
_cell_angle_alpha                 102.836108
_cell_angle_beta                  93.869501
_cell_angle_gamma                 92.321248
_cell_volume                      939.362178756

loop_
_atom_site_label
_atom_site_type_symbol
_atom_type_description
_atom_site_fract_x
_atom_site_fract_y
_atom_site_fract_z
_atom_type_partial_charge
Br1   Br    Br    0.082606 0.027070 0.213292 -0.508405
Br2   Br    Br    0.917394 0.972931 0.786708 -0.508407
C1    C     C_R   0.497307 0.199819 0.453383 0.547390
C2    C     C_R   0.181082 0.362282 0.416637 -0.101154
C3    C     C_R   0.767056 0.502450 0.491230 -0.003003
C4    C     C_R   0.232944 0.497551 0.508770 -0.003004
C5    C     C_R   0.806731 0.367479 0.400100 -0.107470
C6    C     C_R   0.193269 0.632522 0.599891 -0.107470
C7    C     C_R   0.899868 0.365018 0.404900 -0.004923
C8    C     C_R   0.100131 0.634982 0.595094 -0.004923
C9    C     C_R   0.953106 0.501349 0.497653 0.027677
C10   C     C_R   0.046894 0.498651 0.502346 0.027677
C11   C     C_R   0.912477 0.640089 0.585681 0.036209
C12   C     C_R   0.502693 0.800181 0.546616 0.547390
C13   C     C_R   0.087523 0.359911 0.414321 0.036209
C14   C     C_R   0.940311 0.227582 0.320833 -0.047319
C15   C     C_R   0.059689 0.772419 0.679160 -0.047319
C16   C     C_R   0.033506 0.223584 0.325775 0.186460
C17   C     C_R   0.966494 0.776416 0.674224 0.186460
C18   C     C_2   0.495993 0.031944 0.427114 -0.145426
C19   C     C_2   0.504006 0.968056 0.572886 -0.145426
C20   C     C_R   0.329111 0.499425 0.502895 0.543742
C21   C     C_R   0.670888 0.500575 0.497105 0.543742
C22   C     C_R   0.818918 0.637718 0.583370 -0.101154
Cu1   Cu    Cu3+1 0.510010 0.517380 0.684380 0.981801
Cu2   Cu    Cu3+1 0.489990 0.482620 0.315620 0.981802
H1    H     H_    0.785259 0.739877 0.652339 0.161680
H2    H     H_    0.569861 0.622110 0.051123 0.244249
H3    H     H_    0.214741 0.260122 0.347676 0.161679
H4    H     H_    0.764990 0.263348 0.330486 0.123394
H5    H     H_    0.235010 0.736653 0.669497 0.123393
H6    H     H_    0.899363 0.122386 0.252116 0.176901
H7    H     H_    0.100637 0.877614 0.747873 0.176900
H8    H     H_    0.488422 0.960572 0.286558 0.138788
H9    H     H_    0.511578 0.039428 0.713442 0.138788
H10   H     H_    0.430139 0.377890 0.948877 0.244249
N1    N     N_2   0.474890 0.456420 0.038520 -0.253402
N2    N     N_2   0.525110 0.543580 0.961480 -0.253403
O1    O     O_R   0.506510 0.286130 0.619770 -0.506041
O2    O     O_R   0.493490 0.713870 0.380230 -0.506041
O3    O     O_R   0.489600 0.256770 0.308360 -0.499170
O4    O     O_R   0.510400 0.743230 0.691640 -0.499170
O5    O     O_R   0.378710 0.514640 0.655720 -0.502458
O6    O     O_R   0.621290 0.485360 0.344280 -0.502459
O7    O     O_R   0.361800 0.485290 0.344300 -0.489516
O8    O     O_R   0.638200 0.514710 0.655700 -0.489517

loop_
_geom_bond_atom_site_label_1
_geom_bond_atom_site_label_2
_ccdc_geom_bond_type
Cu1   O4    S    
C13   C16   A    
C9    C10   A    
C22   H1    S    
Cu2   N1    S    
N1    N2    D    
C19   H9    S    
Cu1   N2    S    
C14   H6    S    
C7    C9    A    
C2    H3    S    
C3    C21   S    
C10   C13   A    
H2    N2    S    
C12   O4    A    
C18   H8    S    
Cu1   O5    S    
C2    C13   A    
Cu1   Cu2   S    
Cu2   O6    S    
C1    C18   S    
C21   O8    A    
Cu1   O1    S    
C9    C11   A    
Cu2   O2    S    
Br1   C16   S    
C3    C22   A    
C15   H7    S    
C8    C10   A    
C12   C19   S    
C2    C4    A    
H10   N1    S    
C15   C17   A    
C7    C14   A    
C11   C17   A    
C8    C15   A    
C1    O1    A    
C4    C20   S    
C5    C7    A    
C20   O7    A    
C18   C19   D    
Cu2   O3    S    
C14   C16   A    
C3    C5    A    
C1    O3    A    
C4    C6    A    
Cu2   O7    S    
Br2   C17   S    
C6    H5    S    
C12   O2    A    
Cu1   O8    S    
C6    C8    A    
C21   O6    A    
C20   O5    A    
C11   C22   A    
C5    H4    S    
