data_str_m3_o1_o18_f0_pcu.sym.107
_audit_creation_date              2012-12-10T18:47:40-0500
_audit_creation_method            fapswitch 2.2
_symmetry_space_group_name_H-M    P1
_symmetry_Int_Tables_number       1
_space_group_crystal_system       triclinic
_cell_length_a                    9.844468
_cell_length_b                    10.652912
_cell_length_c                    15.544435
_cell_angle_alpha                 89.918931
_cell_angle_beta                  66.839202
_cell_angle_gamma                 89.760383
_cell_volume                      1498.78183805

loop_
_atom_site_label
_atom_site_type_symbol
_atom_type_description
_atom_site_fract_x
_atom_site_fract_y
_atom_site_fract_z
_atom_type_partial_charge
C1    C     C_R   0.500414 0.739743 0.498955 0.912019
C2    C     C_R   0.500134 0.259946 0.500891 0.947013
C3    C     C_R   0.330194 0.458826 0.104198 -0.324432
C4    C     C_R   0.668088 0.546469 0.896650 -0.320452
C5    C     C_R   0.228440 0.433066 0.064485 0.428555
C6    C     C_R   0.769913 0.571678 0.936388 0.428693
C7    C     C_R   0.568324 0.932790 0.549112 -0.349448
C8    C     C_R   0.438247 0.066225 0.446028 -0.364882
C9    C     C_R   0.575577 0.061371 0.547778 0.499936
C10   C     C_R   0.442366 0.937366 0.441132 0.499910
C11   C     C_R   0.503932 0.127372 0.499107 -0.211391
C12   C     C_R   0.502730 0.871847 0.496238 -0.210578
C13   C     C_R   0.964812 0.422534 0.441468 -0.110729
C14   C     C_R   0.035488 0.578058 0.558118 -0.054823
C15   C     C_R   0.108436 0.422165 0.441744 -0.065667
C16   C     C_R   0.891625 0.577955 0.558173 -0.060873
C17   C     C_R   0.407231 0.500521 0.676172 0.872464
C18   C     C_R   0.592699 0.499679 0.323874 0.834894
C19   C     C_R   0.348298 0.495673 0.777819 -0.088895
C20   C     C_R   0.651225 0.506028 0.222377 -0.097118
C21   C     C_R   0.168452 0.427081 0.926705 -0.149569
C22   C     C_R   0.830159 0.576855 0.074013 -0.152963
C23   C     C_R   0.209824 0.445131 0.830931 -0.158337
C24   C     C_R   0.789175 0.557642 0.169601 -0.171955
C25   C     C_R   0.442576 0.530445 0.820523 -0.220231
C26   C     C_R   0.556530 0.472394 0.179700 -0.234863
C27   C     C_R   0.411690 0.499523 0.913489 0.062929
C28   C     C_R   0.586827 0.504864 0.087144 0.052807
C29   C     C_R   0.268789 0.452837 0.968698 0.043156
C30   C     C_R   0.729680 0.551559 0.032055 0.043627
C31   C     C_R   0.519557 0.513861 0.952135 0.009886
C32   C     C_R   0.478727 0.491297 0.048633 0.006594
H1    H     H_    0.457698 0.422140 0.221349 0.145819
H2    H     H_    0.541590 0.580166 0.778509 0.140547
H3    H     H_    0.863494 0.584895 0.202305 0.184627
H4    H     H_    0.135408 0.417691 0.798338 0.182627
H5    H     H_    0.060135 0.388768 0.966935 0.186118
H6    H     H_    0.938211 0.615752 0.033942 0.185818
H7    H     H_    0.287682 0.455242 0.179446 0.156530
H8    H     H_    0.710766 0.550330 0.821424 0.155807
H9    H     H_    0.611865 0.880388 0.592533 0.173132
H10   H     H_    0.387023 0.118457 0.406718 0.180328
H11   H     H_    0.939673 0.360319 0.394902 0.121066
H12   H     H_    0.060844 0.640647 0.604418 0.125460
H13   H     H_    0.191926 0.359635 0.395288 0.117918
H14   H     H_    0.808076 0.640389 0.604693 0.113050
N1    N     N_R   0.142780 0.500030 0.500020 -0.074189
N2    N     N_R   0.857220 0.499970 0.499980 -0.076731
O1    O     O_R   0.385370 0.683250 0.500010 -0.579353
O2    O     O_R   0.614630 0.316750 0.499990 -0.609741
O3    O     O_R   0.614700 0.683220 0.500000 -0.629747
O4    O     O_R   0.385300 0.316780 0.500000 -0.625840
O5    O     O_R   0.319830 0.500020 0.632250 -0.626924
O6    O     O_R   0.680170 0.499980 0.367750 -0.620490
O7    O     O_R   0.549160 0.499990 0.632240 -0.608413
O8    O     O_R   0.450840 0.500010 0.367760 -0.617886
Zn1   Zn    Zn3+2 0.346870 0.500020 0.500000 0.948576
Zn2   Zn    Zn3+2 0.653130 0.499980 0.500000 0.939883
O9    O     O_3   0.083848 0.402848 0.120958 -0.658880
C33   C     C_3   0.078593 0.280255 0.156848 0.065498
H15   H     H_    0.134599 0.276697 0.206641 0.130748
H16   H     H_    0.131987 0.211605 0.099094 0.140554
C34   C     C_3   0.916891 0.242986 0.209293 -0.315595
H17   H     H_    0.861681 0.311885 0.265966 0.233871
H18   H     H_    0.859506 0.244726 0.160349 0.228712
C35   C     C_3   0.902942 0.112272 0.252225 -0.994779
H19   H     H_    0.950577 0.040656 0.196400 0.272789
H20   H     H_    0.784515 0.090363 0.292515 0.262769
H21   H     H_    0.961275 0.107998 0.300506 0.257781
O10   O     O_3   0.914724 0.600873 0.879924 -0.658989
C36   C     C_3   0.921128 0.723616 0.844215 0.056552
H22   H     H_    0.868760 0.792387 0.902066 0.143157
H23   H     H_    0.864847 0.728100 0.794596 0.133208
C37   C     C_3   0.083190 0.759409 0.791605 -0.322651
H24   H     H_    0.140222 0.758512 0.840749 0.227028
H25   H     H_    0.137906 0.689297 0.735740 0.234705
C38   C     C_3   0.098387 0.889100 0.747117 -0.961898
H26   H     H_    0.042253 0.891343 0.697629 0.263279
H27   H     H_    0.217161 0.910921 0.707916 0.274760
H28   H     H_    0.048845 0.961738 0.801894 0.267437
O11   O     O_3   0.637547 0.121511 0.602525 -0.636803
C39   C     C_3   0.791529 0.136954 0.551063 0.149180
H29   H     H_    0.823114 0.226802 0.574203 0.182113
H30   H     H_    0.822980 0.145484 0.473996 0.119240
C40   C     C_3   0.880370 0.030921 0.571370 -0.432400
H31   H     H_    0.845792 0.020453 0.648217 0.235083
H32   H     H_    0.859702 0.941144 0.542547 0.223392
C41   C     C_3   0.045848 0.057864 0.526642 -0.900238
H33   H     H_    0.082421 0.070238 0.449822 0.261422
H34   H     H_    0.107899 0.977874 0.539564 0.288941
H35   H     H_    0.072017 0.144098 0.557146 0.266943
O12   O     O_3   0.378599 0.876935 0.387517 -0.637495
C42   C     C_3   0.489950 0.833651 0.302881 0.123824
H36   H     H_    0.446735 0.748808 0.280811 0.183578
H37   H     H_    0.593755 0.803934 0.310222 0.101276
C43   C     C_3   0.524173 0.933204 0.226061 -0.381499
H38   H     H_    0.420316 0.961205 0.218775 0.230337
H39   H     H_    0.571752 0.017607 0.245437 0.213897
C44   C     C_3   0.633963 0.883577 0.132298 -0.951178
H40   H     H_    0.739169 0.855918 0.137827 0.266441
H41   H     H_    0.657732 0.957961 0.078286 0.261934
H42   H     H_    0.587194 0.801157 0.109939 0.268682

loop_
_geom_bond_atom_site_label_1
_geom_bond_atom_site_label_2
_ccdc_geom_bond_type
C35   H20   S    
C34   H18   S    
C42   H36   S    
C27   C29   A    
C15   N1    A    
C16   N2    A    
O11   C39   S    
C40   H31   S    
C37   H25   S    
C33   C34   S    
C22   C24   A    
C8    H10   S    
C40   C41   S    
C35   H21   S    
C22   H6    S    
C43   C44   S    
O1    Zn1   S    
O8    Zn1   S    
C33   H16   S    
C2    O2    A    
C20   C24   A    
C37   C38   S    
C43   H39   S    
O10   C36   S    
C17   O7    A    
C18   O8    A    
C25   H2    S    
C40   H32   S    
C35   H19   S    
C34   C35   S    
C10   O12   S    
O9    C33   S    
C42   H37   S    
C1    C12   S    
C2    C11   S    
C10   C12   A    
C5    C29   A    
C38   H27   S    
C7    C12   A    
C24   H3    S    
C37   H24   S    
C5    O9    S    
C27   C31   A    
O2    Zn2   S    
C4    H8    S    
C28   C32   A    
C4    C6    A    
C16   H14   S    
C36   H23   S    
O5    Zn1   S    
C38   H26   S    
C21   C29   A    
C33   H15   S    
C13   N2    A    
C19   C23   A    
N1    Zn1   S    
C1    O3    A    
C26   H1    S    
C44   H40   S    
C41   H35   S    
C43   H38   S    
O3    Zn2   S    
C9    C11   A    
C2    O4    A    
C6    C30   A    
C41   H34   S    
C39   H29   S    
C42   C43   S    
C39   H30   S    
C13   C15   A    
C14   C16   A    
C15   H13   S    
C17   O5    A    
C13   H11   S    
C14   H12   S    
O6    Zn2   S    
C38   H28   S    
C6    O10   S    
C22   C30   A    
C44   H41   S    
C31   C32   A    
C3    C5    A    
C36   C37   S    
N2    Zn2   S    
C14   N1    A    
C25   C27   A    
C39   C40   S    
C26   C28   A    
C21   C23   A    
C36   H22   S    
C20   C26   A    
C8    C11   A    
C28   C30   A    
O12   C42   S    
C17   C19   S    
C18   C20   S    
C7    H9    S    
C3    C32   A    
C19   C25   A    
C4    C31   A    
O4    Zn1   S    
C18   O6    A    
C3    H7    S    
C34   H17   S    
C7    C9    A    
C44   H42   S    
C21   H5    S    
C41   H33   S    
C8    C10   A    
C23   H4    S    
O7    Zn2   S    
C1    O1    A    
C9    O11   S    
