data_str_m9_o2_o19_f0_sra.sym.82
_audit_creation_date              2012-12-11T16:28:32-0500
_audit_creation_method            fapswitch 2.2
_symmetry_space_group_name_H-M    P1
_symmetry_Int_Tables_number       1
_space_group_crystal_system       triclinic
_cell_length_a                    16.492868
_cell_length_b                    7.258809
_cell_length_c                    15.274305
_cell_angle_alpha                 90.011862
_cell_angle_beta                  94.665389
_cell_angle_gamma                 90.002642
_cell_volume                      1822.5592856

loop_
_atom_site_label
_atom_site_type_symbol
_atom_type_description
_atom_site_fract_x
_atom_site_fract_y
_atom_site_fract_z
_atom_type_partial_charge
O1    O     O_R   0.663460 0.361760 0.165970 -0.529448
O2    O     O_R   0.336540 0.638240 0.834030 -0.529447
O3    O     O_R   0.836540 0.861760 0.334030 -0.529414
O4    O     O_R   0.163460 0.138240 0.665970 -0.529414
O5    O     O_R   0.827100 0.689870 0.163730 -0.525746
O6    O     O_R   0.172900 0.310130 0.836270 -0.525746
O7    O     O_R   0.672900 0.189870 0.336270 -0.525737
O8    O     O_R   0.327100 0.810130 0.663730 -0.525737
H1    H     H_    0.211471 0.920176 0.506211 0.130493
H2    H     H_    0.788529 0.079824 0.493789 0.130493
H3    H     H_    0.288359 0.422532 0.993764 0.130127
H4    H     H_    0.711641 0.577468 0.006236 0.130127
C1    C     C_R   0.853244 0.522931 0.143593 0.718124
C2    C     C_R   0.146756 0.477069 0.856407 0.718124
C3    C     C_R   0.646759 0.022946 0.356412 0.718158
C4    C     C_R   0.353241 0.977054 0.643588 0.718158
O9    O     O_R   0.663490 0.691370 0.155500 -0.533469
O10   O     O_R   0.336510 0.308630 0.844500 -0.533469
O11   O     O_R   0.836510 0.191370 0.344500 -0.533514
O12   O     O_R   0.163490 0.808630 0.655500 -0.533514
O13   O     O_R   0.671770 0.863320 0.325740 -0.522768
O14   O     O_R   0.328230 0.136680 0.674260 -0.522769
O15   O     O_R   0.828230 0.363320 0.174260 -0.522764
O16   O     O_R   0.171770 0.636680 0.825740 -0.522764
C5    C     C_R   0.634186 0.523325 0.136077 0.714281
C6    C     C_R   0.365814 0.476675 0.863923 0.714281
C7    C     C_R   0.865800 0.023355 0.363948 0.714210
C8    C     C_R   0.134200 0.976645 0.636052 0.714210
H5    H     H_    0.136762 0.935692 0.235633 0.200023
H6    H     H_    0.863238 0.064308 0.764367 0.200023
H7    H     H_    0.362987 0.438905 0.264352 0.200514
H8    H     H_    0.637013 0.561095 0.735648 0.200514
O17   O     O_3   0.752910 0.528800 0.305860 -0.366523
O18   O     O_3   0.247090 0.471200 0.694140 -0.366523
O19   O     O_3   0.747090 0.028800 0.194140 -0.366545
O20   O     O_3   0.252910 0.971200 0.805860 -0.366545
V1    V     V_3+5 0.749460 0.803010 0.239640 1.536407
V2    V     V_3+5 0.250540 0.196990 0.760360 1.536407
V3    V     V_3+5 0.750540 0.303010 0.260360 1.536469
V4    V     V_3+5 0.249460 0.696990 0.739640 1.536469
C9    C     C_1   0.468801 0.994723 0.530092 0.114328
C10   C     C_1   0.531199 0.005276 0.469908 0.114328
C11   C     C_1   0.031198 0.494737 0.969907 0.114766
C12   C     C_1   0.968802 0.505263 0.030093 0.114766
C13   C     C_R   0.039660 0.978605 0.319910 0.047852
C14   C     C_R   0.960340 0.021395 0.680090 0.047852
C15   C     C_R   0.460236 0.480021 0.180092 0.047621
C16   C     C_R   0.539764 0.519979 0.819908 0.047621
C17   C     C_R   0.120145 0.943220 0.302717 -0.093002
C18   C     C_R   0.879855 0.056780 0.697283 -0.093002
C19   C     C_R   0.379647 0.445886 0.197273 -0.092745
C20   C     C_R   0.620353 0.554114 0.802727 -0.092745
C21   C     C_R   0.180355 0.920901 0.370160 0.428005
C22   C     C_R   0.819644 0.079099 0.629840 0.428005
C23   C     C_R   0.319402 0.423968 0.129829 0.427887
C24   C     C_R   0.680597 0.576032 0.870170 0.427887
C25   C     C_R   0.161419 0.935534 0.456542 -0.201867
C26   C     C_R   0.838581 0.064466 0.543458 -0.201867
C27   C     C_R   0.338419 0.437692 0.043447 -0.201734
C28   C     C_R   0.661581 0.562308 0.956553 -0.201735
C29   C     C_R   0.080683 0.968600 0.478275 -0.013964
C30   C     C_R   0.919317 0.031399 0.521725 -0.013964
C31   C     C_R   0.419242 0.469644 0.021722 -0.013938
C32   C     C_R   0.580758 0.530356 0.978278 -0.013938
C33   C     C_R   0.017148 0.987153 0.409030 0.022858
C34   C     C_R   0.982852 0.012847 0.590970 0.022858
C35   C     C_R   0.482793 0.487944 0.090975 0.022705
C36   C     C_R   0.517207 0.512056 0.909025 0.022704
C37   C     C_R   0.064301 0.984536 0.568091 -0.106389
C38   C     C_R   0.935699 0.015464 0.431909 -0.106389
C39   C     C_R   0.435696 0.484679 0.931901 -0.106366
C40   C     C_R   0.564304 0.515321 0.068099 -0.106366
C41   C     C_1   0.415931 0.986125 0.581439 -0.091976
C42   C     C_1   0.584069 0.013875 0.418561 -0.091976
C43   C     C_1   0.084067 0.486155 0.918556 -0.091873
C44   C     C_1   0.915933 0.513845 0.081444 -0.091873
Cl1   Cl    Cl    0.718921 0.121391 0.653807 -0.610417
Cl2   Cl    Cl    0.281079 0.878609 0.346193 -0.610417
Cl3   Cl    Cl    0.781435 0.616856 0.846206 -0.610191
Cl4   Cl    Cl    0.218565 0.383144 0.153794 -0.610191
I1    I     I_    0.967163 0.028868 0.200171 -0.317200
I2    I     I_    0.032836 0.971132 0.799829 -0.317199
I3    I     I_    0.532883 0.528926 0.299879 -0.317237
I4    I     I_    0.467116 0.471073 0.700121 -0.317237

loop_
_geom_bond_atom_site_label_1
_geom_bond_atom_site_label_2
_ccdc_geom_bond_type
C26   C30   A    
O5    V1    S    
C9    C10   S    
C8    C37   S    
O10   C6    A    
H5    C17   S    
C16   I4    S    
C30   C38   A    
C18   C22   A    
C24   Cl3   S    
O18   V4    S    
C32   C36   A    
O19   V1    S    
C14   C34   A    
C23   C27   A    
O12   V4    S    
C17   C21   A    
C34   C37   A    
C33   C38   A    
O14   V2    S    
C1    O15   A    
C35   C40   A    
C2    O16   A    
C12   C44   T    
H8    C20   S    
C14   I2    S    
O17   V3    S    
O6    V2    S    
C15   I3    S    
O11   C7    A    
O5    C1    A    
C22   Cl1   S    
O7    C3    A    
H6    C18   S    
O8    C4    A    
O1    C5    A    
C6    C39   S    
H3    C27   S    
C15   C35   A    
O4    C8    A    
C11   C43   T    
C31   C35   A    
C10   C42   T    
C30   C34   A    
C4    C41   S    
H7    C19   S    
C21   C25   A    
C15   C19   A    
O12   C8    A    
C19   C23   A    
C24   C28   A    
C11   C12   S    
C29   C33   A    
O6    C2    A    
C1    C44   S    
C13   C17   A    
O2    C6    A    
C5    C40   S    
O9    V1    S    
C16   C36   A    
C7    C38   S    
O11   V3    S    
O4    V2    S    
C13   C33   A    
C22   C26   A    
C29   C37   A    
C4    O14   A    
H2    C26   S    
C13   I1    S    
C31   C39   A    
C25   C29   A    
C14   C18   A    
C27   C31   A    
C28   C32   A    
O9    C5    A    
C2    C43   S    
O20   V2    S    
C21   Cl2   S    
O10   V2    S    
C23   Cl4   S    
C3    O13   A    
C36   C39   A    
O15   V3    S    
O3    C7    A    
O16   V4    S    
H1    C25   S    
C32   C40   A    
O1    V3    S    
C9    C41   T    
H4    C28   S    
O2    V4    S    
C16   C20   A    
C3    C42   S    
O13   V1    S    
O3    V1    S    
O7    V3    S    
O8    V4    S    
C20   C24   A    
