data_str_m9_o2_o19_f0_sra.sym.17
_audit_creation_date              2012-12-11T16:28:23-0500
_audit_creation_method            fapswitch 2.2
_symmetry_space_group_name_H-M    P1
_symmetry_Int_Tables_number       1
_space_group_crystal_system       triclinic
_cell_length_a                    16.920037
_cell_length_b                    7.248998
_cell_length_c                    14.949227
_cell_angle_alpha                 90.0
_cell_angle_beta                  94.382767
_cell_angle_gamma                 90.000042
_cell_volume                      1828.21047412

loop_
_atom_site_label
_atom_site_type_symbol
_atom_type_description
_atom_site_fract_x
_atom_site_fract_y
_atom_site_fract_z
_atom_type_partial_charge
O1    O     O_R   0.663460 0.361760 0.165970 -0.518769
O2    O     O_R   0.336540 0.638240 0.834030 -0.518768
O3    O     O_R   0.836540 0.861760 0.334030 -0.518769
O4    O     O_R   0.163460 0.138240 0.665970 -0.518769
O5    O     O_R   0.827100 0.689870 0.163730 -0.554004
O6    O     O_R   0.172900 0.310130 0.836270 -0.554003
O7    O     O_R   0.672900 0.189870 0.336270 -0.554004
O8    O     O_R   0.327100 0.810130 0.663730 -0.554004
C1    C     C_R   0.854588 0.523289 0.145194 0.741511
C2    C     C_R   0.145412 0.476711 0.854806 0.741510
C3    C     C_R   0.645412 0.023289 0.354806 0.741510
C4    C     C_R   0.354588 0.976711 0.645194 0.741512
O9    O     O_R   0.663490 0.691370 0.155500 -0.549170
O10   O     O_R   0.336510 0.308630 0.844500 -0.549170
O11   O     O_R   0.836510 0.191370 0.344500 -0.549170
O12   O     O_R   0.163490 0.808630 0.655500 -0.549170
O13   O     O_R   0.671770 0.863320 0.325740 -0.512352
O14   O     O_R   0.328230 0.136680 0.674260 -0.512352
O15   O     O_R   0.828230 0.363320 0.174260 -0.512352
O16   O     O_R   0.171770 0.636680 0.825740 -0.512352
C5    C     C_R   0.636868 0.522013 0.132551 0.723660
C6    C     C_R   0.363132 0.477987 0.867449 0.723661
C7    C     C_R   0.863132 0.022013 0.367449 0.723659
C8    C     C_R   0.136868 0.977986 0.632551 0.723659
H1    H     H_    0.084382 0.737123 0.230166 0.130038
H2    H     H_    0.915617 0.262867 0.769836 0.130038
H3    H     H_    0.415618 0.237114 0.269832 0.130038
H4    H     H_    0.584383 0.762882 0.730167 0.130037
O17   O     O_3   0.752910 0.528800 0.305860 -0.371688
O18   O     O_3   0.247090 0.471200 0.694140 -0.371689
O19   O     O_3   0.747090 0.028800 0.194140 -0.371688
O20   O     O_3   0.252910 0.971200 0.805860 -0.371688
V1    V     V_3+5 0.749460 0.803010 0.239640 1.482985
V2    V     V_3+5 0.250540 0.196990 0.760360 1.482984
V3    V     V_3+5 0.750540 0.303010 0.260360 1.482985
V4    V     V_3+5 0.249460 0.696990 0.739640 1.482983
C9    C     C_1   0.469347 0.994545 0.530742 0.003893
C10   C     C_1   0.530653 0.005455 0.469257 0.003892
C11   C     C_1   0.030653 0.494545 0.969258 0.003892
C12   C     C_1   0.969347 0.505455 0.030742 0.003891
H5    H     H_    0.794027 0.233129 0.672262 0.117969
H6    H     H_    0.205972 0.766857 0.327741 0.117969
H7    H     H_    0.705973 0.733140 0.827740 0.117969
H8    H     H_    0.294027 0.266856 0.172259 0.117969
C13   C     C_R   0.011341 0.866034 0.323150 -0.148585
C14   C     C_R   0.988659 0.133963 0.676851 -0.148585
C15   C     C_R   0.488659 0.366028 0.176849 -0.148586
C16   C     C_R   0.511341 0.633971 0.823150 -0.148585
C17   C     C_R   0.081883 0.794464 0.296791 -0.125155
C18   C     C_R   0.918116 0.205529 0.703210 -0.125155
C19   C     C_R   0.418116 0.294457 0.203208 -0.125153
C20   C     C_R   0.581884 0.705540 0.796792 -0.125154
C21   C     C_R   0.150295 0.808446 0.353047 -0.158274
C22   C     C_R   0.849704 0.191545 0.646954 -0.158274
C23   C     C_R   0.349704 0.308444 0.146952 -0.158275
C24   C     C_R   0.650296 0.691554 0.853048 -0.158275
C25   C     C_R   0.148819 0.892467 0.437076 0.010932
C26   C     C_R   0.851181 0.107527 0.562925 0.010931
C27   C     C_R   0.351181 0.392469 0.062924 0.010930
C28   C     C_R   0.648819 0.607531 0.937076 0.010930
C29   C     C_R   0.074842 0.940294 0.471730 0.061295
C30   C     C_R   0.925158 0.059704 0.528270 0.061295
C31   C     C_R   0.425158 0.440294 0.028269 0.061297
C32   C     C_R   0.574842 0.559706 0.971730 0.061297
C33   C     C_R   0.005312 0.936977 0.410871 0.044800
C34   C     C_R   0.994688 0.063022 0.589129 0.044800
C35   C     C_R   0.494688 0.436974 0.089128 0.044799
C36   C     C_R   0.505312 0.563025 0.910872 0.044799
C37   C     C_R   0.068339 0.994035 0.562941 -0.156588
C38   C     C_R   0.931661 0.005965 0.437059 -0.156588
C39   C     C_R   0.431661 0.494036 0.937059 -0.156586
C40   C     C_R   0.568339 0.505964 0.062941 -0.156586
C41   C     C_1   0.417223 0.985730 0.582907 -0.175446
C42   C     C_1   0.582777 0.014270 0.417093 -0.175447
C43   C     C_1   0.082777 0.485730 0.917093 -0.175449
C44   C     C_1   0.917223 0.514270 0.082907 -0.175449
H9    H     H_    0.961941 0.862912 0.273127 0.118648
H10   H     H_    0.038059 0.137087 0.726873 0.118648
H11   H     H_    0.538059 0.362903 0.226872 0.118649
H12   H     H_    0.461941 0.637096 0.773128 0.118648
C45   C     C_2   0.226411 0.956874 0.475897 0.322186
H13   H     H_    0.277320 0.865776 0.476687 0.038852
O21   O     O_2   0.235505 0.117453 0.499033 -0.526734
C46   C     C_2   0.773589 0.043118 0.524103 0.322186
H14   H     H_    0.722680 0.134214 0.523314 0.038851
O22   O     O_2   0.764496 0.882540 0.500966 -0.526733
C47   C     C_2   0.273590 0.456883 0.024104 0.322186
H15   H     H_    0.222679 0.365792 0.023317 0.038852
O23   O     O_2   0.264498 0.617460 0.000966 -0.526733
C48   C     C_2   0.726410 0.543117 0.975896 0.322186
H16   H     H_    0.777321 0.634208 0.976683 0.038851
O24   O     O_2   0.735502 0.382539 0.999034 -0.526733

loop_
_geom_bond_atom_site_label_1
_geom_bond_atom_site_label_2
_ccdc_geom_bond_type
C26   C30   A    
C47   H15   S    
O1    C5    A    
C23   C27   A    
O3    C7    A    
C15   H11   S    
C45   H13   S    
O7    C3    A    
O5    C1    A    
C18   C22   A    
C32   C36   A    
C46   O22   D    
C14   C34   A    
H2    C18   S    
H6    C21   S    
C10   C42   T    
O4    C8    A    
C34   C37   A    
O3    V1    S    
O2    V4    S    
C33   C38   A    
C30   C38   A    
C35   C40   A    
O8    V4    S    
O11   V3    S    
C9    C41   T    
C1    O15   A    
C2    O16   A    
H1    C17   S    
O5    V1    S    
O2    C6    A    
O19   V1    S    
C1    C44   S    
C11   C43   T    
O11   C7    A    
O12   C8    A    
C4    C41   S    
C7    C38   S    
O13   V1    S    
C15   C35   A    
C45   O21   D    
H3    C19   S    
C8    C37   S    
O4    V2    S    
C31   C35   A    
C30   C34   A    
C5    C40   S    
C46   H14   S    
C11   C12   S    
C14   H10   S    
C21   C25   A    
C15   C19   A    
O6    V2    S    
O20   V2    S    
O9    V1    S    
C9    C10   S    
C26   C46   S    
C2    C43   S    
C48   O24   D    
C13   C17   A    
O8    C4    A    
O9    C5    A    
C16   C36   A    
O14   V2    S    
C31   C39   A    
C47   O23   D    
C13   C33   A    
C25   C45   S    
C6    C39   S    
O1    V3    S    
C22   C26   A    
C29   C37   A    
C14   C18   A    
C3    O13   A    
O7    V3    S    
C3    C42   S    
O10   V2    S    
C25   C29   A    
C28   C48   S    
O17   V3    S    
C27   C31   A    
O18   V4    S    
C28   C32   A    
O10   C6    A    
O15   V3    S    
O12   V4    S    
H4    C20   S    
H8    C23   S    
C16   H12   S    
C48   H16   S    
C36   C39   A    
C17   C21   A    
C19   C23   A    
C32   C40   A    
C29   C33   A    
C27   C47   S    
H5    C22   S    
O6    C2    A    
O16   V4    S    
C12   C44   T    
H7    C24   S    
C16   C20   A    
C24   C28   A    
C4    O14   A    
C13   H9    S    
C20   C24   A    
