data_str_m3_o10_o17_f0_pcu.sym.93
_audit_creation_date              2012-12-10T16:52:10-0500
_audit_creation_method            fapswitch 2.2
_symmetry_space_group_name_H-M    P1
_symmetry_Int_Tables_number       1
_space_group_crystal_system       triclinic
_cell_length_a                    7.772172
_cell_length_b                    8.554376
_cell_length_c                    14.951935
_cell_angle_alpha                 90.921837
_cell_angle_beta                  86.042649
_cell_angle_gamma                 93.709918
_cell_volume                      989.579669144

loop_
_atom_site_label
_atom_site_type_symbol
_atom_type_description
_atom_site_fract_x
_atom_site_fract_y
_atom_site_fract_z
_atom_type_partial_charge
C1    C     C_R   0.545800 0.794696 0.497807 0.954592
C2    C     C_R   0.561226 0.638253 0.811692 -0.087581
C3    C     C_R   0.492093 0.500625 0.232504 -0.166169
C4    C     C_R   0.507907 0.499375 0.767496 -0.166170
C5    C     C_R   0.540404 0.640138 0.187070 -0.056321
C6    C     C_R   0.459596 0.359862 0.812930 -0.056321
C7    C     C_R   0.539620 0.641223 0.093809 0.082412
C8    C     C_R   0.460380 0.358777 0.906191 0.082412
C9    C     C_R   0.496386 0.500313 0.047112 0.036451
C10   C     C_R   0.503613 0.499687 0.952888 0.036451
C11   C     C_R   0.446880 0.359932 0.094301 0.104303
C12   C     C_R   0.454200 0.205304 0.502193 0.954592
C13   C     C_R   0.553119 0.640069 0.905699 0.104303
C14   C     C_R   0.582123 0.779890 0.046175 -0.213513
C15   C     C_R   0.417876 0.220111 0.953825 -0.213513
C16   C     C_2   0.376761 0.221174 0.242161 0.393065
C17   C     C_2   0.623238 0.778826 0.757839 0.393066
C18   C     C_1   0.590559 0.781429 0.236981 0.189680
C19   C     C_1   0.409442 0.218571 0.763019 0.189680
C20   C     C_R   0.587067 0.779610 0.953801 -0.159993
C21   C     C_R   0.412931 0.220390 0.046199 -0.159994
C22   C     C_2   0.569912 0.958300 0.496899 -0.342264
C23   C     C_2   0.430088 0.041700 0.503101 -0.342263
C24   C     C_R   0.502445 0.499677 0.672372 0.869710
C25   C     C_R   0.497555 0.500323 0.327628 0.869710
C26   C     C_R   0.438773 0.361748 0.188308 -0.087581
H1    H     H_    0.611606 0.890449 0.079793 0.160951
H2    H     H_    0.555670 0.809520 0.700125 0.066474
H3    H     H_    0.388393 0.109552 0.920207 0.160951
H4    H     H_    0.615569 0.890976 0.921220 0.191181
H5    H     H_    0.384429 0.109024 0.078780 0.191181
H6    H     H_    0.701943 0.009517 0.490992 0.190779
H7    H     H_    0.298057 0.990483 0.509007 0.190779
H8    H     H_    0.013756 0.382935 0.432244 0.206708
H9    H     H_    0.986243 0.617065 0.567756 0.206708
H10   H     H_    0.444330 0.190480 0.299874 0.066474
N1    N     N_2   0.950330 0.457950 0.475660 -0.166849
N2    N     N_2   0.049670 0.542050 0.524340 -0.166849
N3    N     N_1   0.630689 0.893860 0.276465 -0.205390
N4    N     N_1   0.369313 0.106140 0.723535 -0.205390
O1    O     O_R   0.389250 0.738570 0.505970 -0.615486
O2    O     O_2   0.755311 0.855757 0.774421 -0.562351
O3    O     O_R   0.610750 0.261430 0.494030 -0.615486
O4    O     O_R   0.678390 0.711620 0.490370 -0.624034
O5    O     O_R   0.321610 0.288380 0.509630 -0.624034
O6    O     O_R   0.355420 0.513510 0.639950 -0.609808
O7    O     O_R   0.644580 0.486490 0.360050 -0.609808
O8    O     O_R   0.644560 0.486560 0.624350 -0.616858
O9    O     O_R   0.355440 0.513440 0.375650 -0.616858
O10   O     O_2   0.244687 0.144244 0.225579 -0.562351
Zn1   Zn    Zn3+2 0.306940 0.517990 0.510420 0.980313
Zn2   Zn    Zn3+2 0.693060 0.482010 0.489580 0.980313

loop_
_geom_bond_atom_site_label_1
_geom_bond_atom_site_label_2
_ccdc_geom_bond_type
C2    C4    A    
C18   N3    T    
N1    N2    D    
N2    Zn1   S    
C14   H1    S    
C8    C15   A    
H8    N1    S    
C9    C11   A    
C9    C10   A    
C25   O7    A    
C1    O4    A    
C3    C26   A    
N1    Zn2   S    
C11   C26   A    
C3    C25   S    
C3    C5    A    
C24   O6    A    
O4    Zn2   S    
C1    C22   S    
C20   H4    S    
C16   H10   S    
C2    C17   S    
C6    C19   S    
C21   H5    S    
C12   C23   S    
O7    Zn2   S    
C22   H6    S    
C8    C10   A    
O1    Zn1   S    
C15   H3    S    
C12   O3    A    
C5    C7    A    
C22   C23   D    
C16   C26   S    
C4    C24   S    
C25   O9    A    
O3    Zn2   S    
C19   N4    T    
O5    Zn1   S    
C24   O8    A    
C14   C20   A    
C15   C21   A    
H9    N2    S    
C4    C6    A    
C1    O1    A    
C7    C9    A    
C2    C13   A    
C17   O2    D    
C6    C8    A    
C5    C18   S    
C13   C20   A    
C23   H7    S    
O8    Zn2   S    
C17   H2    S    
O6    Zn1   S    
C11   C21   A    
C7    C14   A    
C16   O10   D    
C12   O5    A    
O9    Zn1   S    
C10   C13   A    
