data_str_m3_o11_o28_f0_pcu.sym.38
_audit_creation_date              2012-12-10T17:12:43-0500
_audit_creation_method            fapswitch 2.2
_symmetry_space_group_name_H-M    P1
_symmetry_Int_Tables_number       1
_space_group_crystal_system       triclinic
_cell_length_a                    23.485033
_cell_length_b                    10.698307
_cell_length_c                    9.999938
_cell_angle_alpha                 85.281704
_cell_angle_beta                  90.657266
_cell_angle_gamma                 90.90612
_cell_volume                      2503.5274413

loop_
_atom_site_label
_atom_site_type_symbol
_atom_type_description
_atom_site_fract_x
_atom_site_fract_y
_atom_site_fract_z
_atom_type_partial_charge
C1    C     C_R   0.498144 0.261452 0.506909 0.881922
C2    C     C_R   0.119644 0.578720 0.555423 0.499377
C3    C     C_R   0.234797 0.556492 0.406352 -0.097264
C4    C     C_R   0.389405 0.498597 0.499545 0.997586
C5    C     C_R   0.294683 0.562048 0.401266 -0.150178
C6    C     C_R   0.327039 0.490743 0.500124 -0.262638
C7    C     C_R   0.299592 0.411783 0.601393 -0.150605
C8    C     C_R   0.240182 0.411760 0.609413 0.441452
C9    C     C_R   0.208218 0.481361 0.510934 0.111628
C10   C     C_R   0.762814 0.440074 0.396262 0.454586
C11   C     C_R   0.702952 0.437800 0.394255 -0.234378
C12   C     C_R   0.969506 0.249602 0.478971 -0.230449
C13   C     C_R   0.673138 0.482460 0.503907 -0.315866
C14   C     C_R   0.703998 0.515641 0.618342 0.453361
C15   C     C_R   0.762274 0.498756 0.625718 -0.254647
C16   C     C_R   0.501772 0.737159 0.493725 0.875979
C17   C     C_R   0.791952 0.466300 0.514581 0.117144
C18   C     C_2   0.458252 0.931312 0.451313 -0.223929
C19   C     C_2   0.507010 0.868877 0.471558 -0.075573
C20   C     C_2   0.457326 0.067375 0.439388 -0.064402
C21   C     C_2   0.489524 0.126994 0.528150 0.313366
C22   C     C_2   0.499790 0.600077 0.919762 0.377837
C23   C     C_R   0.028808 0.251762 0.469045 0.495050
C24   C     C_2   0.518014 0.592566 0.066218 0.324427
C25   C     C_R   0.610752 0.495556 0.500918 0.943837
C26   C     C_R   0.880974 0.575364 0.542605 0.472392
C27   C     C_R   0.880747 0.357029 0.507645 0.612917
C28   C     C_R   0.940084 0.357229 0.506286 -0.119326
C29   C     C_R   0.970234 0.467919 0.531422 -0.016920
C30   C     C_R   0.940580 0.577447 0.557781 -0.044663
C31   C     C_2   0.673404 0.381793 0.280637 1.019710
C32   C     C_3   0.680090 0.698252 0.705495 0.124667
C33   C     C_3   0.725624 0.749983 0.797655 -0.403172
C34   C     C_R   0.059694 0.361592 0.496147 -0.161979
C35   C     C_3   0.724811 0.892836 0.790381 -0.857638
C36   C     C_2   0.565185 0.921457 0.441491 0.918313
C37   C     C_2   0.419126 0.128726 0.334578 0.937705
C38   C     C_3   0.551243 0.107719 0.726344 0.093698
C39   C     C_3   0.608469 0.141490 0.657855 -0.376212
C40   C     C_3   0.648532 0.207936 0.751209 -0.911134
C41   C     C_3   0.452625 0.788528 0.932102 0.141540
C42   C     C_3   0.409836 0.861495 0.840996 -0.395689
C43   C     C_3   0.377349 0.955129 0.917171 -0.824160
C44   C     C_3   0.601527 0.702276 0.061430 0.089124
C45   C     C_R   0.030119 0.469035 0.529150 -0.071462
C46   C     C_3   0.636795 0.800090 0.130282 -0.340379
C47   C     C_3   0.615121 0.932233 0.093678 -0.758987
C48   C     C_3   0.048495 0.124494 0.304264 0.077644
C49   C     C_3   0.085089 0.015142 0.269342 -0.279718
C50   C     C_3   0.077674 0.990055 0.122028 -0.928045
C51   C     C_2   0.944969 0.798002 0.640724 1.050040
C52   C     C_2   0.199553 0.632553 0.305874 0.997156
C53   C     C_2   0.322899 0.639417 0.290009 1.012307
C54   C     C_2   0.332074 0.322358 0.694281 1.014506
C55   C     C_3   0.198519 0.396981 0.815589 0.124145
C56   C     C_R   0.060352 0.578244 0.558448 0.034899
C57   C     C_3   0.181644 0.301986 0.931491 -0.337303
C58   C     C_3   0.168087 0.366310 0.057694 -0.843656
C59   C     C_3   0.812313 0.512951 0.210635 0.129019
C60   C     C_3   0.835506 0.474777 0.077953 -0.336588
C61   C     C_3   0.860067 0.587401 0.992888 -0.890805
C62   C     C_R   0.031133 0.684334 0.591169 -0.252222
C63   C     C_R   0.971766 0.685269 0.592716 -0.145087
C64   C     C_R   0.119361 0.368958 0.489266 0.649076
H1    H     H_    0.946539 0.163653 0.462087 0.225771
H2    H     H_    0.718244 0.711307 0.902578 0.220513
H3    H     H_    0.768415 0.721165 0.767223 0.263959
H4    H     H_    0.735133 0.932928 0.687342 0.293171
H5    H     H_    0.756864 0.927453 0.861557 0.276884
H6    H     H_    0.682209 0.925044 0.817569 0.246619
H7    H     H_    0.614392 0.060618 0.355419 0.363838
H8    H     H_    0.365352 0.269313 0.278978 0.353427
H9    H     H_    0.560339 0.034383 0.808242 0.158817
H10   H     H_    0.533561 0.184330 0.780456 0.169802
H11   H     H_    0.628976 0.054486 0.630778 0.249923
H12   H     H_    0.785319 0.517328 0.716548 0.179116
H13   H     H_    0.602689 0.203576 0.564722 0.239228
H14   H     H_    0.656381 0.147914 0.845308 0.254987
H15   H     H_    0.629861 0.297659 0.776502 0.288124
H16   H     H_    0.689889 0.228605 0.700720 0.283133
H17   H     H_    0.481033 0.855806 0.980890 0.189702
H18   H     H_    0.427924 0.731807 0.010862 0.127346
H19   H     H_    0.432401 0.912906 0.756007 0.277249
H20   H     H_    0.379088 0.794509 0.799159 0.232682
H21   H     H_    0.355148 0.906408 0.004525 0.285534
H22   H     H_    0.345091 0.002623 0.849588 0.275776
H23   H     H_    0.417459 0.881595 0.453661 0.188776
H24   H     H_    0.407117 0.027293 0.952763 0.285462
H25   H     H_    0.598932 0.730724 0.952029 0.149684
H26   H     H_    0.624217 0.611465 0.076643 0.141910
H27   H     H_    0.635449 0.778547 0.240796 0.255871
H28   H     H_    0.681891 0.795912 0.098954 0.175190
H29   H     H_    0.616551 0.954427 0.983824 0.211979
H30   H     H_    0.642761 0.001236 0.141462 0.256067
H31   H     H_    0.570591 0.940665 0.127514 0.300020
H32   H     H_    0.061451 0.209774 0.239291 0.144852
H33   H     H_    0.003102 0.100913 0.283137 0.131795
H34   H     H_    0.514518 0.419907 0.903603 0.092715
H35   H     H_    0.130649 0.037183 0.289485 0.266769
H36   H     H_    0.072796 0.929271 0.333385 0.231047
H37   H     H_    0.032434 0.967149 0.099739 0.274353
H38   H     H_    0.104097 0.909401 0.099741 0.273916
H39   H     H_    0.091331 0.073579 0.056206 0.265540
H40   H     H_    0.984893 0.917702 0.504349 0.304593
H41   H     H_    0.187785 0.798899 0.199573 0.342126
H42   H     H_    0.330264 0.678322 0.090038 0.333999
H43   H     H_    0.392993 0.191227 0.716171 0.334935
H44   H     H_    0.161770 0.458946 0.790205 0.141252
H45   H     H_    0.475201 0.434193 0.107743 0.124332
H46   H     H_    0.235001 0.455253 0.849051 0.174060
H47   H     H_    0.143643 0.247263 0.901452 0.224867
H48   H     H_    0.217147 0.235824 0.954276 0.269070
H49   H     H_    0.205974 0.419573 0.090796 0.298886
H50   H     H_    0.156176 0.294607 0.139603 0.273088
H51   H     H_    0.131939 0.431245 0.038219 0.274314
H52   H     H_    0.847153 0.559504 0.265224 0.138882
H53   H     H_    0.777300 0.581088 0.187909 0.147412
H54   H     H_    0.869453 0.404316 0.098604 0.232984
H55   H     H_    0.800630 0.431335 0.020661 0.256032
H56   H     H_    0.054610 0.766945 0.617860 0.202916
H57   H     H_    0.827208 0.660214 0.972942 0.269041
H58   H     H_    0.874648 0.557110 0.895501 0.277609
H59   H     H_    0.896973 0.628358 0.045358 0.274494
H60   H     H_    0.666870 0.370359 0.080578 0.333901
H61   H     H_    0.637874 0.733824 0.732031 0.186542
H62   H     H_    0.688181 0.735784 0.599672 0.178082
N1    N     N_R   0.852698 0.465786 0.521528 -0.335402
N2    N     N_R   0.147551 0.476083 0.518955 -0.335545
N3    N     N_2   0.500610 0.501330 0.852150 -0.221605
N4    N     N_2   0.500630 0.501360 0.147810 -0.213326
O1    O     O_R   0.499990 0.319060 0.613040 -0.638419
O2    O     O_R   0.583840 0.500020 0.613040 -0.583315
O3    O     O_R   0.583850 0.500060 0.386900 -0.590648
O4    O     O_2   0.851228 0.682141 0.543443 -0.552689
O5    O     O_2   0.635785 0.302811 0.302913 -0.643330
O6    O     O_R   0.689855 0.415836 0.148579 -0.819701
O7    O     O_3   0.677570 0.565505 0.724345 -0.635228
O8    O     O_2   0.606887 0.862351 0.482246 -0.717781
O9    O     O_R   0.572787 0.035063 0.363881 -0.806575
O10   O     O_2   0.410709 0.079336 0.229958 -0.613174
O11   O     O_R   0.390601 0.238467 0.357372 -0.772239
O12   O     O_2   0.851124 0.249581 0.493835 -0.512609
O13   O     O_3   0.510366 0.053846 0.641831 -0.674974
O14   O     O_3   0.486047 0.714722 0.852919 -0.594908
O15   O     O_3   0.546742 0.691769 0.118200 -0.587042
O16   O     O_3   0.056497 0.143656 0.441412 -0.582107
O17   O     O_2   0.912004 0.786388 0.734624 -0.560087
O18   O     O_R   0.958616 0.918357 0.583923 -0.760310
O19   O     O_2   0.156750 0.586893 0.257510 -0.660667
O20   O     O_R   0.214885 0.757278 0.268475 -0.765011
O21   O     O_2   0.357672 0.720862 0.314555 -0.635162
O22   O     O_R   0.308930 0.619375 0.157081 -0.805751
O23   O     O_2   0.149328 0.271141 0.452221 -0.487521
O24   O     O_2   0.322454 0.313654 0.814591 -0.636626
O25   O     O_R   0.373418 0.247178 0.643483 -0.785836
O26   O     O_3   0.212795 0.330990 0.704161 -0.606547
O27   O     O_3   0.792594 0.404291 0.287306 -0.592803
O28   O     O_2   0.149524 0.680913 0.588140 -0.558452
O29   O     O_R   0.500010 0.319100 0.386900 -0.583513
O30   O     O_R   0.416150 0.499940 0.613100 -0.611959
O31   O     O_R   0.416160 0.499980 0.386960 -0.586188
O32   O     O_R   0.499990 0.680900 0.613100 -0.542780
O33   O     O_R   0.500010 0.680940 0.386960 -0.570001
Zn1   Zn    Zn3+2 0.499990 0.499970 0.650990 1.004688
Zn2   Zn    Zn3+2 0.500010 0.500030 0.349010 1.048844

loop_
_geom_bond_atom_site_label_1
_geom_bond_atom_site_label_2
_ccdc_geom_bond_type
C8    C9    A    
C1    C21   S    
C59   O27   S    
C38   O13   S    
H40   O18   S    
C7    C8    A    
C57   H47   S    
H41   O20   S    
C12   C23   A    
C29   C30   A    
C37   O11   S    
C12   C28   A    
C3    C9    A    
C43   H24   S    
O30   Zn1   S    
C5    C53   S    
C28   C29   A    
O33   Zn2   S    
C19   C36   S    
C5    C6    A    
C57   H48   S    
C46   H28   S    
C10   C17   A    
C27   O12   S    
C35   H4    S    
C60   H55   S    
C61   H57   S    
C18   C19   D    
C41   C42   S    
C32   H62   S    
C27   N1    A    
C45   C56   A    
C59   H52   S    
C64   N2    A    
C37   O10   D    
C48   O16   S    
C58   H49   S    
C40   H16   S    
C60   H54   S    
C39   H11   S    
C25   O3    A    
C62   H56   S    
C56   C62   A    
C15   H12   S    
C11   C31   S    
C50   H39   S    
C59   H53   S    
C30   C63   A    
C13   C25   S    
C55   O26   S    
C44   C46   S    
C33   H2    S    
O32   Zn1   S    
C16   O33   A    
H8    O11   S    
C23   O16   S    
C9    N2    S    
H42   O22   S    
H60   O6    S    
C43   H21   S    
C1    O29   A    
C51   C63   S    
C21   O13   S    
C41   O14   S    
C4    C6    S    
C54   O25   S    
C17   N1    S    
H7    O9    S    
C46   H27   S    
C3    C5    A    
C64   O23   S    
O29   Zn2   S    
N3    Zn1   S    
C29   C45   A    
C61   H58   S    
C38   C39   S    
C32   H61   S    
O2    Zn1   S    
C62   C63   A    
C26   O4    S    
O3    Zn2   S    
C53   O22   S    
C52   O19   D    
C14   O7    S    
C51   O17   D    
C2    O28   S    
C23   C34   A    
C41   H17   S    
C34   C64   A    
C44   O15   S    
C47   H29   S    
C40   H15   S    
C42   H20   S    
C34   C45   A    
C10   O27   S    
C40   H14   S    
C31   O5    D    
C48   C49   S    
C26   C30   A    
C35   H6    S    
C22   N3    D    
C58   H51   S    
C22   C24   S    
C42   C43   S    
C39   H13   S    
C39   C40   S    
C44   H26   S    
C33   H3    S    
C58   H50   S    
C38   H10   S    
C15   C17   A    
C46   C47   S    
C48   H32   S    
C14   C15   A    
C43   H22   S    
H45   N4    S    
C42   H19   S    
C31   O6    S    
C1    O1    A    
C54   O24   D    
C3    C52   S    
C50   H38   S    
C6    C7    A    
C12   H1    S    
C18   H23   S    
C61   H59   S    
C55   H44   S    
C24   O15   S    
C16   O32   A    
C32   C33   S    
C55   C57   S    
C32   O7    S    
C55   H46   S    
C2    C56   A    
C49   H36   S    
C20   C37   S    
C11   C13   A    
N4    Zn2   S    
C49   H35   S    
C57   C58   S    
C4    O30   A    
O1    Zn1   S    
C48   H33   S    
C16   C19   S    
C41   H18   S    
H34   N3    S    
C51   O18   S    
C33   C35   S    
C47   H30   S    
C18   C20   S    
C26   N1    A    
C8    O26   S    
C36   O9    S    
O31   Zn2   S    
C10   C11   A    
C24   N4    D    
C59   C60   S    
C20   C21   D    
C35   H5    S    
C50   H37   S    
C52   O20   S    
C49   C50   S    
C22   O14   S    
C27   C28   A    
C53   O21   D    
C47   H31   S    
C4    O31   A    
C60   C61   S    
C7    C54   S    
C13   C14   A    
C25   O2    A    
C36   O8    D    
H43   O25   S    
C44   H25   S    
C38   H9    S    
C2    N2    A    
