data_str_m3_o10_o15_f0_pcu.sym.20
_audit_creation_date              2012-12-10T16:50:56-0500
_audit_creation_method            fapswitch 2.2
_symmetry_space_group_name_H-M    P1
_symmetry_Int_Tables_number       1
_space_group_crystal_system       triclinic
_cell_length_a                    8.114883
_cell_length_b                    8.5363
_cell_length_c                    10.562155
_cell_angle_alpha                 93.273834
_cell_angle_beta                  87.9225
_cell_angle_gamma                 92.574707
_cell_volume                      729.304051485

loop_
_atom_site_label
_atom_site_type_symbol
_atom_type_description
_atom_site_fract_x
_atom_site_fract_y
_atom_site_fract_z
_atom_type_partial_charge
C1    C     C_R   0.543518 0.792846 0.499452 0.941306
C2    C     C_R   0.936089 0.509701 0.075945 -0.074637
C3    C     C_R   0.070011 0.599905 0.030908 -0.145494
C4    C     C_R   0.930089 0.401630 0.969576 -0.145388
C5    C     C_R   0.209969 0.612129 0.105537 -0.216274
C6    C     C_R   0.790200 0.389448 0.894885 -0.216591
C7    C     C_R   0.352117 0.537405 0.062392 0.094248
C8    C     C_R   0.648055 0.464236 0.937921 0.094087
C9    C     C_R   0.353162 0.458744 0.942816 0.083532
C10   C     C_R   0.646965 0.542859 0.057524 0.083641
C11   C     C_R   0.498380 0.554231 0.127292 -0.241983
C12   C     C_R   0.456483 0.207154 0.500536 0.941690
C13   C     C_R   0.501756 0.447168 0.873059 -0.241820
C14   C     C_3   0.015415 0.310157 0.415808 -0.134214
C15   C     C_3   0.903366 0.212404 0.325398 -0.911224
C16   C     C_3   0.984590 0.689879 0.584106 -0.134104
C17   C     C_3   0.096707 0.787800 0.674358 -0.911420
C18   C     C_2   0.564640 0.957227 0.508805 -0.387230
C19   C     C_2   0.435373 0.042770 0.491133 -0.387330
C20   C     C_R   0.501072 0.480149 0.737980 0.870331
C21   C     C_R   0.498982 0.520224 0.262142 0.870847
C22   C     C_R   0.203673 0.409744 0.890114 -0.203372
C23   C     C_R   0.796400 0.591695 0.110421 -0.203367
C24   C     C_R   0.064024 0.491811 0.924557 -0.074787
H1    H     H_    0.959825 0.282346 0.989537 0.150023
H2    H     H_    0.315211 0.992620 0.464836 0.166130
H3    H     H_    0.829475 0.122893 0.376423 0.264459
H4    H     H_    0.821525 0.282803 0.273688 0.296119
H5    H     H_    0.980591 0.146292 0.253542 0.206296
H6    H     H_    0.129828 0.334885 0.359714 0.224247
H7    H     H_    0.037318 0.235810 0.495985 0.184174
H8    H     H_    0.179266 0.717597 0.725571 0.296629
H9    H     H_    0.169908 0.877735 0.623276 0.264036
H10   H     H_    0.019581 0.853357 0.746638 0.206353
H11   H     H_    0.962612 0.764101 0.503865 0.184226
H12   H     H_    0.040218 0.719174 0.010939 0.150004
H13   H     H_    0.870217 0.665189 0.640267 0.224175
H14   H     H_    0.198957 0.325627 0.809022 0.161207
H15   H     H_    0.800952 0.675531 0.191706 0.161045
H16   H     H_    0.033655 0.547741 0.838956 0.179854
H17   H     H_    0.966546 0.453816 0.161535 0.179778
H18   H     H_    0.211619 0.693067 0.188490 0.159623
H19   H     H_    0.788591 0.308427 0.811989 0.159873
H20   H     H_    0.684819 0.007383 0.535089 0.166164
N1    N     N_2   0.950330 0.457950 0.466250 -0.055489
N2    N     N_2   0.049670 0.542050 0.533750 -0.055533
O1    O     O_R   0.389250 0.738570 0.508280 -0.595893
O2    O     O_R   0.610750 0.261430 0.491720 -0.595846
O3    O     O_R   0.678390 0.711630 0.486650 -0.667863
O4    O     O_R   0.321610 0.288370 0.513350 -0.667664
O5    O     O_R   0.355430 0.513480 0.694040 -0.619998
O6    O     O_R   0.644570 0.486520 0.305960 -0.619809
O7    O     O_R   0.644570 0.486540 0.672410 -0.635941
O8    O     O_R   0.355430 0.513460 0.327590 -0.636004
Zn1   Zn    Zn3+2 0.306940 0.517990 0.514440 0.907570
Zn2   Zn    Zn3+2 0.693060 0.482010 0.485560 0.907611

loop_
_geom_bond_atom_site_label_1
_geom_bond_atom_site_label_2
_ccdc_geom_bond_type
N2    Zn1   S    
C2    C4    A    
C5    H18   S    
C8    C10   A    
C15   H5    S    
C8    C13   A    
C18   H20   S    
C10   C23   A    
C14   N1    S    
O3    Zn2   S    
C5    C7    A    
C16   H13   S    
C12   O4    A    
O4    Zn1   S    
C14   H7    S    
C12   O2    A    
C4    H1    S    
C3    C24   A    
N1    N2    D    
C7    C11   A    
C1    C18   S    
C16   C17   S    
C17   H9    S    
C3    H12   S    
C14   H6    S    
C23   H15   S    
C12   C19   S    
O1    Zn1   S    
C24   H16   S    
C2    C3    A    
C20   O5    A    
O5    Zn1   S    
C6    H19   S    
C16   H11   S    
C21   O8    A    
C4    C24   A    
C22   C24   A    
C9    C22   A    
C10   C11   A    
C2    H17   S    
C15   H4    S    
C22   H14   S    
C7    C9    A    
C19   H2    S    
C4    C6    A    
C18   C19   D    
C17   H10   S    
O7    Zn2   S    
C16   N2    S    
C2    C23   A    
O2    Zn2   S    
C17   H8    S    
C9    C13   A    
C14   C15   S    
C1    O1    A    
C6    C8    A    
C13   C20   S    
C3    C5    A    
O8    Zn1   S    
C1    O3    A    
C11   C21   S    
C21   O6    A    
O6    Zn2   S    
N1    Zn2   S    
C20   O7    A    
C15   H3    S    
