data_str_m9_o11_o18_f0_sra.sym.1
_audit_creation_date              2012-12-11T14:21:12-0500
_audit_creation_method            fapswitch 2.2
_symmetry_space_group_name_H-M    P1
_symmetry_Int_Tables_number       1
_space_group_crystal_system       triclinic
_cell_length_a                    21.958182
_cell_length_b                    7.208472
_cell_length_c                    14.935987
_cell_angle_alpha                 89.539808
_cell_angle_beta                  106.941336
_cell_angle_gamma                 89.842395
_cell_volume                      2261.441607

loop_
_atom_site_label
_atom_site_type_symbol
_atom_type_description
_atom_site_fract_x
_atom_site_fract_y
_atom_site_fract_z
_atom_type_partial_charge
O1    O     O_R   0.584770 0.505770 0.002090 -0.541212
O2    O     O_R   0.415230 0.005770 0.997910 -0.541800
O3    O     O_R   0.467060 0.173340 0.861950 -0.538303
O4    O     O_R   0.532940 0.673340 0.138050 -0.538550
C1    C     C_R   0.455254 0.345214 0.826085 0.677364
C2    C     C_R   0.544840 0.843299 0.174052 0.677222
O5    O     O_R   0.587510 0.175890 0.993210 -0.541044
O6    O     O_R   0.412490 0.675890 0.006790 -0.540720
O7    O     O_R   0.536540 0.008150 0.130100 -0.536838
O8    O     O_R   0.463460 0.508150 0.869900 -0.536227
C3    C     C_R   0.612960 0.344763 0.997446 0.730131
C4    C     C_R   0.387034 0.845086 0.002578 0.731146
O9    O     O_3   0.483140 0.340040 0.044760 -0.378281
O10   O     O_3   0.516860 0.840040 0.955240 -0.377902
V1    V     V_3+5 0.503130 0.064190 0.991700 1.416398
V2    V     V_3+5 0.496870 0.564190 0.008300 1.417749
C5    C     C_2   0.214231 0.727425 0.003882 -0.132138
C6    C     C_2   0.786188 0.227895 0.996826 -0.130024
C7    C     C_2   0.180326 0.886479 0.996349 -0.305082
C8    C     C_2   0.819641 0.387026 0.003645 -0.306912
H1    H     H_    0.191333 0.596531 0.009982 0.138139
H2    H     H_    0.809494 0.097188 0.991363 0.139100
H3    H     H_    0.201727 0.018788 0.989200 0.127799
H4    H     H_    0.797884 0.519190 0.010231 0.127797
C9    C     C_2   0.282123 0.714758 0.003651 -0.138605
C10   C     C_2   0.718316 0.214547 0.997044 -0.140779
C11   C     C_2   0.319935 0.861689 0.003549 -0.302900
C12   C     C_2   0.680031 0.361187 0.996426 -0.302466
H5    H     H_    0.301505 0.575829 0.004266 0.136357
H6    H     H_    0.699380 0.075533 0.997059 0.136100
H7    H     H_    0.301856 0.001486 0.003886 0.130114
H8    H     H_    0.697750 0.501004 0.995537 0.130848
C13   C     C_R   0.926938 0.892698 0.723996 -0.028115
C14   C     C_R   0.073149 0.381266 0.275551 -0.024763
C15   C     C_R   0.573065 0.845995 0.275550 -0.026147
C16   C     C_R   0.426841 0.357393 0.724901 -0.022708
C17   C     C_R   0.934638 0.960910 0.569299 -0.162373
C18   C     C_R   0.063284 0.321857 0.429759 -0.161340
C19   C     C_R   0.963200 0.944303 0.665244 -0.170305
C20   C     C_R   0.035287 0.343578 0.333890 -0.173517
C21   C     C_R   0.861812 0.858319 0.686809 -0.211564
C22   C     C_R   0.139127 0.396939 0.312807 -0.210399
C23   C     C_R   0.830997 0.879628 0.589694 0.082417
C24   C     C_R   0.169092 0.373161 0.409915 0.082808
C25   C     C_R   0.869027 0.931125 0.531281 0.140455
C26   C     C_R   0.129591 0.335294 0.468060 0.140471
C27   C     C_R   0.763872 0.855616 0.549083 0.058802
C28   C     C_R   0.236619 0.383569 0.450873 0.058485
C29   C     C_R   0.736104 0.883505 0.450488 0.058564
C30   C     C_R   0.263362 0.355595 0.549600 0.058706
C31   C     C_R   0.776412 0.933493 0.395796 -0.187676
C32   C     C_R   0.221696 0.318724 0.604034 -0.186392
C33   C     C_R   0.841357 0.956085 0.435532 -0.201363
C34   C     C_R   0.156358 0.309247 0.563912 -0.201324
C35   C     C_R   0.723558 0.805750 0.603784 -0.187068
C36   C     C_R   0.278283 0.420522 0.396445 -0.186911
C37   C     C_R   0.658614 0.783120 0.564045 -0.201042
C38   C     C_R   0.343625 0.429897 0.436563 -0.201263
C39   C     C_R   0.630954 0.807914 0.468284 0.140607
C40   C     C_R   0.370396 0.403683 0.532406 0.140289
C41   C     C_R   0.668986 0.859379 0.409869 0.081966
C42   C     C_R   0.330891 0.365878 0.590552 0.082533
C43   C     C_R   0.565350 0.778005 0.430258 -0.162664
C44   C     C_R   0.436711 0.416886 0.570699 -0.161742
C45   C     C_R   0.536798 0.794452 0.334303 -0.169802
C46   C     C_R   0.464711 0.394983 0.666560 -0.172486
C47   C     C_R   0.638182 0.880506 0.312742 -0.211335
C48   C     C_R   0.360856 0.341981 0.687653 -0.209493
H9    H     H_    0.870217 0.995495 0.390687 0.123060
H10   H     H_    0.126409 0.280132 0.608596 0.121968
H11   H     H_    0.663420 0.916569 0.263194 0.097060
H12   H     H_    0.334633 0.314671 0.736996 0.093981
H13   H     H_    0.486535 0.764919 0.305644 0.106352
H14   H     H_    0.515815 0.408656 0.695373 0.104939
H15   H     H_    0.629750 0.743789 0.608896 0.122603
H16   H     H_    0.373575 0.459030 0.391882 0.122280
H17   H     H_    0.963658 0.001301 0.524878 0.112385
H18   H     H_    0.033099 0.292375 0.474016 0.112363
H19   H     H_    0.013468 0.973777 0.693899 0.106020
H20   H     H_    0.984189 0.329738 0.305073 0.105145
H21   H     H_    0.836577 0.822214 0.736356 0.096508
H22   H     H_    0.165346 0.424348 0.263466 0.094070
H23   H     H_    0.759455 0.957452 0.321462 0.123626
H24   H     H_    0.237811 0.295727 0.678485 0.122708
H25   H     H_    0.740506 0.781949 0.678130 0.122611
H26   H     H_    0.262163 0.443643 0.322002 0.123336
H27   H     H_    0.536327 0.737650 0.474682 0.112446
H28   H     H_    0.466900 0.446320 0.526444 0.112427
O11   O     O_R   0.036450 0.233070 0.130130 -0.537583
O12   O     O_R   0.963550 0.733070 0.869870 -0.538115
O13   O     O_R   0.912470 0.560570 0.006790 -0.545508
O14   O     O_R   0.087530 0.060570 0.993210 -0.545178
C49   C     C_R   0.886979 0.392080 0.002556 0.729894
C50   C     C_R   0.113017 0.891760 0.997453 0.730911
O15   O     O_R   0.032920 0.562940 0.138050 -0.539036
O16   O     O_R   0.967080 0.062940 0.861950 -0.539259
O17   O     O_R   0.084790 0.730500 0.002090 -0.537502
O18   O     O_R   0.915210 0.230500 0.997910 -0.537017
C51   C     C_R   0.044725 0.393477 0.174372 0.684575
C52   C     C_R   0.955171 0.895427 0.825495 0.684572
O19   O     O_3   0.016820 0.396170 0.955260 -0.378669
O20   O     O_3   0.983180 0.896170 0.044740 -0.378480
V3    V     V_3+5 0.996880 0.672090 0.008300 1.414154
V4    V     V_3+5 0.003120 0.172090 0.991700 1.415563

loop_
_geom_bond_atom_site_label_1
_geom_bond_atom_site_label_2
_ccdc_geom_bond_type
C8    C49   S    
C43   C45   A    
O4    V2    S    
C22   H22   S    
O2    C4    A    
C2    O7    A    
C38   H16   S    
C27   C29   A    
O5    C3    A    
C13   C19   A    
O11   C51   A    
C14   C20   A    
O15   C51   A    
C37   C39   A    
C15   C45   A    
C38   C40   A    
C46   H14   S    
C1    C16   S    
C45   H13   S    
C2    C15   S    
C40   C42   A    
C32   H24   S    
C8    H4    S    
C32   C34   A    
C14   C22   A    
C29   C31   A    
C6    C10   S    
C30   C32   A    
C20   H20   S    
C6    C8    D    
C48   H12   S    
C28   C30   A    
C33   H9    S    
O6    V2    S    
C21   C23   A    
C22   C24   A    
O12   C52   A    
O15   V3    S    
C9    H5    S    
C39   C41   A    
C29   C41   A    
C4    C11   S    
C11   H7    S    
C12   H8    S    
O4    C2    A    
C18   H18   S    
C50   O17   A    
C17   H17   S    
C5    H1    S    
C31   C33   A    
C19   H19   S    
C35   H25   S    
C7    H3    S    
O13   C49   A    
C41   C47   A    
C16   C46   A    
C36   H26   S    
C34   H10   S    
C15   C47   A    
O6    C4    A    
C21   H21   S    
C26   C34   A    
O14   C50   A    
C14   C51   S    
O1    V2    S    
O2    V1    S    
C23   C25   A    
O17   V3    S    
C7    C50   S    
C10   H6    S    
O19   V4    S    
C35   C37   A    
O11   V4    S    
C30   C42   A    
C17   C25   A    
C31   H23   S    
O3    V1    S    
C27   C35   A    
C28   C36   A    
C43   H27   S    
C6    H2    S    
C10   C12   D    
O13   V3    S    
O3    C1    A    
C16   C48   A    
C9    C11   D    
C39   C43   A    
C42   C48   A    
C40   C44   A    
C13   C52   S    
C13   C21   A    
C37   H15   S    
O16   V4    S    
O7    V1    S    
C5    C9    S    
C1    O8    A    
C17   C19   A    
O8    V2    S    
C18   C20   A    
C3    C12   S    
O18   V4    S    
O16   C52   A    
O5    V1    S    
C5    C7    D    
C36   C38   A    
C47   H11   S    
O20   V3    S    
O12   V3    S    
C18   C26   A    
O14   V4    S    
C25   C33   A    
O9    V2    S    
O10   V1    S    
O1    C3    A    
C23   C27   A    
C49   O18   A    
C44   H28   S    
C24   C26   A    
C24   C28   A    
C44   C46   A    
