data_str_m2_o9_o18_f0_pcu.sym.164
_audit_creation_date              2012-12-10T19:45:42-0500
_audit_creation_method            fapswitch 2.2
_symmetry_space_group_name_H-M    P1
_symmetry_Int_Tables_number       1
_space_group_crystal_system       triclinic
_cell_length_a                    10.81216
_cell_length_b                    14.776017
_cell_length_c                    14.726494
_cell_angle_alpha                 65.901104
_cell_angle_beta                  104.554987
_cell_angle_gamma                 103.091534
_cell_volume                      2058.19329771

loop_
_atom_site_label
_atom_site_type_symbol
_atom_type_description
_atom_site_fract_x
_atom_site_fract_y
_atom_site_fract_z
_atom_type_partial_charge
C1    C     C_R   0.480737 0.119328 0.311682 0.781550
C2    C     C_R   0.518245 0.880675 0.688181 0.816790
C3    C     C_R   0.870733 0.003950 0.494291 -0.071806
C4    C     C_R   0.129355 0.997554 0.504684 -0.051778
C5    C     C_R   0.908403 0.992873 0.414747 0.030201
C6    C     C_R   0.092223 0.012058 0.582561 0.027733
C7    C     C_R   0.462154 0.187477 0.202903 -0.218394
C8    C     C_R   0.534691 0.812133 0.796688 -0.178678
C9    C     C_R   0.308398 0.230448 0.045821 -0.171528
C10   C     C_R   0.691773 0.765325 0.951254 -0.153520
C11   C     C_R   0.369528 0.157322 0.129483 -0.026030
C12   C     C_R   0.631006 0.840053 0.869586 -0.054073
C13   C     C_R   0.519789 0.289978 0.174891 -0.088698
C14   C     C_R   0.474001 0.710223 0.823810 -0.076003
C15   C     C_R   0.473543 0.361081 0.078547 0.070463
C16   C     C_R   0.522252 0.636852 0.917981 0.002997
C17   C     C_R   0.355148 0.331549 0.023878 0.078798
C18   C     C_R   0.642699 0.664795 0.971935 0.088510
C19   C     C_R   0.534144 0.462093 0.037116 0.096621
C20   C     C_R   0.461830 0.535189 0.957966 0.044797
C21   C     C_R   0.330845 0.504271 0.924980 -0.204434
C22   C     C_R   0.665532 0.491638 0.069421 -0.155558
C23   C     C_R   0.263073 0.998126 0.503449 0.814378
C24   C     C_R   0.736861 0.002302 0.496065 0.781200
C25   C     C_R   0.282793 0.403561 0.949701 -0.159521
C26   C     C_R   0.715185 0.591910 0.044427 -0.130172
C27   C     C_R   0.734130 0.298602 0.652484 -0.237871
C28   C     C_R   0.263908 0.699760 0.350209 -0.201392
C29   C     C_R   0.694491 0.211978 0.630576 0.157665
C30   C     C_R   0.304992 0.787501 0.370073 0.150151
C31   C     C_R   0.514690 0.283186 0.513205 0.042796
C32   C     C_R   0.484261 0.716234 0.488138 0.087279
C33   C     C_R   0.547667 0.371137 0.538375 -0.012361
C34   C     C_R   0.450944 0.627706 0.463927 -0.006757
C35   C     C_R   0.665675 0.380303 0.604103 0.048266
C36   C     C_R   0.332474 0.618047 0.398760 0.031036
C37   C     C_R   0.470962 0.451659 0.497460 -0.007755
C38   C     C_R   0.527624 0.547095 0.505215 0.042647
C39   C     C_R   0.658970 0.558394 0.553534 -0.065445
C40   C     C_R   0.339408 0.439564 0.450312 -0.054587
C41   C     C_R   0.720418 0.473188 0.613460 -0.060981
C42   C     C_R   0.277710 0.524726 0.390064 -0.003645
C43   C     C_R   0.334038 0.950111 0.827434 -0.131259
C44   C     C_R   0.679700 0.083341 0.165334 -0.153883
C45   C     C_R   0.253466 0.943131 0.739404 -0.119389
C46   C     C_R   0.755422 0.078148 0.258974 -0.125911
C47   C     C_R   0.183911 0.021463 0.672860 0.049785
C48   C     C_R   0.819058 0.994703 0.319615 0.053828
C49   C     C_R   0.194442 0.106179 0.696527 -0.091591
C50   C     C_R   0.807371 0.917544 0.284291 -0.018097
C51   C     C_R   0.279291 0.115273 0.782955 0.070741
C52   C     C_R   0.725635 0.919989 0.192778 0.055196
C53   C     C_R   0.348586 0.036345 0.848434 -0.184174
C54   C     C_R   0.662623 0.003855 0.133222 -0.201240
C55   C     C_R   0.962495 0.014402 0.576395 -0.202458
C56   C     C_R   0.037699 0.987816 0.422203 -0.190847
Cu1   Cu    Cu3+1 0.466270 0.918260 0.475690 0.968184
Cu2   Cu    Cu3+1 0.533730 0.081740 0.524310 0.947574
H1    H     H_    0.263444 0.556444 0.879586 0.182178
H2    H     H_    0.731094 0.438105 0.115955 0.138808
H3    H     H_    0.822587 0.302712 0.705749 0.190086
H4    H     H_    0.174431 0.694984 0.298265 0.220948
H5    H     H_    0.242771 0.875885 0.724273 0.174724
H6    H     H_    0.767685 0.140376 0.282809 0.106666
H7    H     H_    0.136656 0.164879 0.647242 0.188480
H8    H     H_    0.862219 0.855887 0.328192 0.222565
H9    H     H_    0.932370 0.021591 0.637674 0.166802
H10   H     H_    0.068219 0.981476 0.360620 0.155730
N1    N     N_R   0.584450 0.204570 0.560790 -0.232644
N2    N     N_R   0.415550 0.795430 0.439210 -0.221752
O1    O     O_R   0.455540 0.022090 0.338120 -0.627215
O2    O     O_R   0.544460 0.977910 0.661880 -0.636795
O3    O     O_R   0.512510 0.160150 0.379180 -0.563290
O4    O     O_R   0.487490 0.839850 0.620820 -0.555434
O5    O     O_R   0.291160 0.930970 0.479480 -0.589723
O6    O     O_R   0.708840 0.069030 0.520520 -0.614451
O7    O     O_R   0.348130 0.069020 0.520540 -0.573675
O8    O     O_R   0.651870 0.930980 0.479460 -0.561970
H11   H     H_    0.412938 0.041067 0.916272 0.119748
H12   H     H_    0.601409 0.008310 0.061383 0.122394
H13   H     H_    0.225524 0.208748 0.995946 0.198524
H14   H     H_    0.777057 0.785372 0.000326 0.207051
C57   C     C_2   0.848180 0.482670 0.679507 0.313638
H15   H     H_    0.860139 0.437401 0.759760 0.070389
O9    O     O_2   0.941483 0.537185 0.644140 -0.496798
C58   C     C_2   0.149065 0.513502 0.326293 0.453087
H16   H     H_    0.067655 0.466158 0.360759 0.115196
O10   O     O_2   0.134453 0.556145 0.234527 -0.526783
H17   H     H_    0.561257 0.721291 0.549287 0.108020
H18   H     H_    0.437392 0.278354 0.452129 0.175018
C59   C     C_2   0.219572 0.866671 0.318242 0.410913
H19   H     H_    0.251308 0.942156 0.313387 0.114010
O11   O     O_2   0.108471 0.848176 0.278074 -0.530561
C60   C     C_2   0.780819 0.133463 0.681203 0.397997
H20   H     H_    0.749379 0.057925 0.686143 0.119782
O12   O     O_2   0.892335 0.152610 0.720212 -0.532884
C61   C     C_2   0.739470 0.658015 0.532123 0.418034
H21   H     H_    0.807583 0.676682 0.592027 0.095050
O13   O     O_2   0.731662 0.719584 0.445893 -0.533559
C62   C     C_2   0.261419 0.338255 0.476968 0.304863
H22   H     H_    0.283346 0.283610 0.552683 0.091198
O14   O     O_2   0.178118 0.313310 0.415005 -0.542084
H23   H     H_    0.385265 0.888512 0.879680 0.145221
H24   H     H_    0.634285 0.149191 0.117215 0.136495
C63   C     C_2   0.296614 0.206289 0.805923 0.354290
H25   H     H_    0.365763 0.212865 0.871324 0.058568
O15   O     O_2   0.234775 0.275067 0.752153 -0.535234
C64   C     C_2   0.705075 0.835937 0.158374 0.450134
H26   H     H_    0.637579 0.837941 0.089436 0.050888
O16   O     O_2   0.762039 0.763353 0.206640 -0.486612
H27   H     H_    0.185945 0.382107 0.914588 0.173293
H28   H     H_    0.812796 0.612409 0.079000 0.181562
C65   C     C_2   0.374837 0.678191 0.748134 0.380706
H29   H     H_    0.382505 0.612483 0.735327 0.080818
O17   O     O_2   0.282366 0.722994 0.701971 -0.532127
C66   C     C_2   0.615378 0.323356 0.251304 0.406349
H30   H     H_    0.695937 0.282425 0.294999 0.064562
O18   O     O_2   0.601200 0.393944 0.268945 -0.498559
C67   C     C_2   0.670497 0.945086 0.863152 0.300406
H31   H     H_    0.606804 0.000883 0.818905 0.092594
O19   O     O_2   0.773177 0.970106 0.910593 -0.511236
C68   C     C_2   0.335904 0.051925 0.136453 0.319841
H32   H     H_    0.401607 0.997951 0.182266 0.100331
O20   O     O_2   0.236257 0.024694 0.087505 -0.503924

loop_
_geom_bond_atom_site_label_1
_geom_bond_atom_site_label_2
_ccdc_geom_bond_type
C27   C29   A    
C5    C56   A    
C36   C42   A    
C19   C20   A    
C18   C26   A    
C6    C55   A    
C61   H21   S    
C44   H24   S    
Cu2   O6    S    
C39   C41   A    
C66   H30   S    
C15   C19   A    
C63   O15   D    
C1    O1    A    
C49   H7    S    
C53   H11   S    
C21   H1    S    
C37   C40   A    
C22   H2    S    
C38   C39   A    
C58   O10   D    
C39   C61   S    
C41   C57   S    
C64   H26   S    
C45   C47   A    
C27   H3    S    
Cu2   O7    S    
C61   O13   D    
C3    C55   A    
C43   C53   A    
C57   H15   S    
C52   C54   A    
C49   C51   A    
C50   C52   A    
C31   C33   A    
C42   C58   S    
Cu1   N2    S    
C29   N1    A    
C2    O4    A    
C8    C12   A    
C48   C50   A    
C1    C7    S    
C4    C56   A    
C3    C24   S    
C2    O2    A    
C30   N2    A    
C44   C46   A    
C54   H12   S    
C67   O19   D    
C5    C48   S    
C46   C48   A    
C6    C47   S    
C19   C22   A    
C4    C6    A    
C59   H19   S    
C4    C23   S    
C58   H16   S    
C24   O6    A    
C32   N2    A    
C27   C35   A    
C56   H10   S    
C10   H14   S    
Cu1   O1    S    
C46   H6    S    
C51   C53   A    
C32   C34   A    
Cu1   O4    S    
C7    C11   A    
C37   C38   A    
C59   O11   D    
C12   C67   S    
C43   C45   A    
C32   H17   S    
C7    C13   A    
C16   C20   A    
C31   H18   S    
C62   O14   D    
C23   O7    A    
C60   O12   D    
C9    C11   A    
C52   C64   S    
C10   C12   A    
C9    C17   A    
C57   O9    D    
C13   C15   A    
C14   C16   A    
C11   C68   S    
C68   O20   D    
C26   H28   S    
C65   H29   S    
C24   O8    A    
C15   C17   A    
C21   C25   A    
C8    C14   A    
C34   C38   A    
Cu1   O8    S    
C2    C8    S    
C23   O5    A    
C30   C59   S    
C3    C5    A    
C43   H23   S    
C40   C62   S    
C55   H9    S    
C67   H31   S    
C50   H8    S    
Cu2   N1    S    
C47   C49   A    
C14   C65   S    
C63   H25   S    
C1    O3    A    
Cu1   O5    S    
C28   C30   A    
C17   C25   A    
Cu2   O2    S    
Cu1   Cu2   S    
C29   C60   S    
C64   O16   D    
C45   H5    S    
C10   C18   A    
C40   C42   A    
C62   H22   S    
C33   C35   A    
C66   O18   D    
C34   C36   A    
C60   H20   S    
C35   C41   A    
C33   C37   A    
C51   C63   S    
C13   C66   S    
C25   H27   S    
C44   C54   A    
C31   N1    A    
C20   C21   A    
C28   C36   A    
C16   C18   A    
C22   C26   A    
C68   H32   S    
Cu2   O3    S    
C9    H13   S    
C65   O17   D    
C28   H4    S    
