data_str_m2_o10_o14_f0_pcu.sym.146
_audit_creation_date              2012-12-10T16:43:24-0500
_audit_creation_method            fapswitch 2.2
_symmetry_space_group_name_H-M    P1
_symmetry_Int_Tables_number       1
_space_group_crystal_system       triclinic
_cell_length_a                    10.754604
_cell_length_b                    8.680532
_cell_length_c                    7.456065
_cell_angle_alpha                 103.006185
_cell_angle_beta                  94.201131
_cell_angle_gamma                 92.134977
_cell_volume                      675.351503044

loop_
_atom_site_label
_atom_site_type_symbol
_atom_type_description
_atom_site_fract_x
_atom_site_fract_y
_atom_site_fract_z
_atom_type_partial_charge
C1    C     C_R   0.496478 0.199759 0.453241 0.874953
C2    C     C_R   0.074080 0.651860 0.615613 -0.025939
C3    C     C_R   0.129586 0.519388 0.508510 -0.089994
C4    C     C_R   0.056189 0.394645 0.393198 -0.211666
C5    C     C_R   0.927938 0.394401 0.387132 -0.188735
C6    C     C_R   0.871005 0.518741 0.496804 -0.051422
C7    C     C_2   0.495142 0.031813 0.426953 -0.376585
C8    C     C_2   0.507514 0.968257 0.572863 -0.322823
C9    C     C_R   0.263040 0.508185 0.503599 0.881868
C10   C     C_R   0.505160 0.800286 0.546632 0.937366
C11   C     C_R   0.737280 0.504835 0.498376 0.762984
C12   C     C_R   0.144062 0.787566 0.723873 0.581585
C13   C     C_R   0.084223 0.914786 0.824355 -0.182290
C14   C     C_R   0.954885 0.912442 0.817325 -0.242633
C15   C     C_R   0.884052 0.782689 0.709576 -0.181774
C16   C     C_R   0.942041 0.650480 0.608907 0.033664
Cu1   Cu    Cu3+1 0.513920 0.517380 0.684380 0.988476
Cu2   Cu    Cu3+1 0.486080 0.482620 0.315620 0.965827
H1    H     H_    0.098788 0.295093 0.309250 0.145725
H2    H     H_    0.597528 0.621819 0.051379 0.224250
H3    H     H_    0.138764 0.017299 0.906233 0.158936
H4    H     H_    0.909173 0.012672 0.893626 0.162942
H5    H     H_    0.783694 0.788886 0.703563 0.147960
H6    H     H_    0.872779 0.294385 0.300525 0.143666
H7    H     H_    0.483804 0.960127 0.286338 0.187477
H8    H     H_    0.518863 0.039913 0.713485 0.182167
H9    H     H_    0.402462 0.378205 0.948609 0.227541
N1    N     N_2   0.465100 0.456430 0.038520 -0.211169
N2    N     N_2   0.534900 0.543570 0.961480 -0.206427
O1    O     O_R   0.509050 0.286130 0.619770 -0.588709
O2    O     O_R   0.485540 0.256780 0.308360 -0.586564
O3    O     O_R   0.331410 0.514680 0.655740 -0.543284
O4    O     O_R   0.307900 0.485330 0.344330 -0.588467
O5    O     O_R   0.514460 0.743220 0.691640 -0.549110
O6    O     O_R   0.490950 0.713870 0.380230 -0.593174
O7    O     O_R   0.692100 0.514670 0.655670 -0.587684
O8    O     O_R   0.668590 0.485320 0.344260 -0.592857
F1    F     F_    0.269829 0.802801 0.730705 -0.686079

loop_
_geom_bond_atom_site_label_1
_geom_bond_atom_site_label_2
_ccdc_geom_bond_type
Cu2   N1    S    
C10   O6    A    
C3    C9    S    
Cu1   O7    S    
C8    H8    S    
Cu2   O6    S    
C7    H7    S    
C2    C12   A    
C14   H4    S    
C15   H5    S    
Cu1   Cu2   S    
C13   H3    S    
C7    C8    D    
C10   O5    A    
C13   C14   A    
C9    O4    A    
Cu1   O1    S    
C5    H6    S    
N1    N2    D    
Cu2   O8    S    
C2    C3    A    
H2    N2    S    
C12   F1    S    
C5    C6    A    
Cu2   O4    S    
Cu1   O5    S    
C6    C16   A    
C3    C4    A    
Cu1   N2    S    
C1    O2    A    
C2    C16   A    
C12   C13   A    
C8    C10   S    
C6    C11   S    
C11   O8    A    
Cu1   O3    S    
C14   C15   A    
C1    O1    A    
Cu2   O2    S    
C9    O3    A    
C1    C7    S    
C4    H1    S    
C15   C16   A    
C4    C5    A    
H9    N1    S    
C11   O7    A    
