data_str_m2_o10_o29_f0_pcu.sym.140
_audit_creation_date              2012-12-10T16:51:13-0500
_audit_creation_method            fapswitch 2.2
_symmetry_space_group_name_H-M    P1
_symmetry_Int_Tables_number       1
_space_group_crystal_system       triclinic
_cell_length_a                    27.728155
_cell_length_b                    8.709835
_cell_length_c                    7.417574
_cell_angle_alpha                 102.513066
_cell_angle_beta                  93.890349
_cell_angle_gamma                 92.403199
_cell_volume                      1741.86744727

loop_
_atom_site_label
_atom_site_type_symbol
_atom_type_description
_atom_site_fract_x
_atom_site_fract_y
_atom_site_fract_z
_atom_type_partial_charge
C1    C     C_R   0.497751 0.200307 0.454821 0.861683
C2    C     C_R   0.502249 0.799693 0.545179 0.861632
C3    C     C_R   0.102226 0.495724 0.541044 -0.127351
C4    C     C_R   0.897767 0.504548 0.458705 -0.127351
C5    C     C_R   0.125242 0.352198 0.494014 -0.074668
C6    C     C_R   0.874751 0.648070 0.505763 -0.074679
C7    C     C_R   0.096923 0.209207 0.452531 0.421571
C8    C     C_R   0.903069 0.791065 0.547223 0.421572
C9    C     C_R   0.130661 0.637028 0.605858 -0.063468
C10   C     C_R   0.869333 0.363242 0.393897 -0.063478
C11   C     C_R   0.354644 0.501915 0.511659 -0.136921
C12   C     C_R   0.645357 0.498181 0.488333 -0.136883
C13   C     C_R   0.971573 0.356870 0.423721 0.045207
C14   C     C_R   0.028421 0.643410 0.575992 0.045201
C15   C     C_R   0.977306 0.645516 0.540913 0.035832
C16   C     C_R   0.022687 0.354763 0.458804 0.035833
C17   C     C_R   0.949060 0.502075 0.475773 -0.003473
C18   C     C_R   0.050933 0.498202 0.523951 -0.003472
C19   C     C_R   0.942121 0.221145 0.329082 0.362295
C20   C     C_R   0.057873 0.779136 0.670627 0.362297
C21   C     C_R   0.891601 0.224317 0.325315 -0.198775
C22   C     C_R   0.108393 0.775959 0.674413 -0.198764
C23   C     C_R   0.407516 0.501188 0.503205 0.893529
C24   C     C_R   0.592484 0.498830 0.496796 0.893596
C25   C     C_R   0.046375 0.212628 0.443589 -0.214855
C26   C     C_R   0.953616 0.787649 0.556133 -0.214860
C27   C     C_2   0.489937 0.034975 0.435413 0.095332
C28   C     C_2   0.510062 0.965025 0.564587 0.095355
C29   C     C_R   0.176217 0.356878 0.494822 0.673983
C30   C     C_R   0.823777 0.643383 0.505006 0.673933
C31   C     C_R   0.181205 0.635404 0.607646 0.669929
C32   C     C_R   0.818789 0.364858 0.392150 0.669923
C33   C     C_R   0.274282 0.554558 0.391626 0.291610
C34   C     C_R   0.725734 0.445667 0.608310 0.291415
C35   C     C_R   0.325263 0.560436 0.381986 0.276180
C36   C     C_R   0.674755 0.439728 0.618009 0.276437
C37   C     C_R   0.333783 0.447183 0.654646 -0.368089
C38   C     C_R   0.666200 0.552970 0.345345 -0.368121
C39   C     C_R   0.283677 0.446952 0.668942 0.412530
C40   C     C_R   0.716305 0.553284 0.331012 0.412550
C41   C     C_R   0.254213 0.500702 0.537200 0.239969
C42   C     C_R   0.745784 0.499537 0.462707 0.240019
Cu1   Cu    Cu3+1 0.505380 0.517380 0.684380 1.068322
Cu2   Cu    Cu3+1 0.494620 0.482620 0.315620 1.068325
H1    H     H_    0.356564 0.403635 0.754924 0.191197
H2    H     H_    0.643407 0.596507 0.245097 0.191175
H3    H     H_    0.462377 0.378394 0.948638 0.237851
H4    H     H_    0.537623 0.621606 0.051362 0.237846
H5    H     H_    0.869626 0.118110 0.261649 0.209752
H6    H     H_    0.130368 0.882165 0.738080 0.209758
H7    H     H_    0.026308 0.102069 0.432954 0.192736
H8    H     H_    0.973682 0.898208 0.566752 0.192736
N1    N     N_R   0.202708 0.497363 0.547954 -0.437063
N2    N     N_R   0.797287 0.502894 0.451882 -0.437092
N3    N     N_2   0.486510 0.456430 0.038510 -0.174532
N4    N     N_2   0.513490 0.543570 0.961490 -0.174538
O1    O     O_R   0.503500 0.286120 0.619780 -0.566942
O2    O     O_R   0.496500 0.713880 0.380220 -0.566934
O3    O     O_R   0.494410 0.256780 0.308360 -0.544651
O4    O     O_R   0.505590 0.743220 0.691640 -0.544662
O5    O     O_R   0.434810 0.514700 0.655690 -0.608978
O6    O     O_R   0.565190 0.485300 0.344310 -0.608986
O7    O     O_R   0.425720 0.485350 0.344280 -0.522977
O8    O     O_R   0.574280 0.514650 0.655720 -0.522989
O9    O     O_2   0.199276 0.223306 0.439998 -0.417890
O10   O     O_2   0.800718 0.776952 0.559877 -0.417832
O11   O     O_2   0.791232 0.229455 0.332557 -0.476246
O12   O     O_2   0.208762 0.770803 0.667245 -0.476332
O13   O     O_3   0.262423 0.393312 0.808483 -0.687395
H9    H     H_    0.287979 0.359214 0.888963 0.344190
O14   O     O_3   0.737540 0.607013 0.191491 -0.687560
H10   H     H_    0.711972 0.641028 0.110995 0.344113
O15   O     O_3   0.118921 0.067269 0.426691 -0.654236
H11   H     H_    0.093900 0.978996 0.392993 0.324966
O16   O     O_3   0.881069 0.933000 0.573070 -0.654208
H12   H     H_    0.906089 0.021275 0.606743 0.324966
O17   O     O_3   0.652725 0.372926 0.746470 -0.678748
H13   H     H_    0.672866 0.289315 0.776668 0.358694
O18   O     O_3   0.347305 0.627231 0.253551 -0.678744
H14   H     H_    0.327256 0.711310 0.223950 0.358576
O19   O     O_3   0.757208 0.402848 0.738926 -0.679366
H15   H     H_    0.741475 0.412848 0.856298 0.360553
O20   O     O_3   0.242824 0.597386 0.260956 -0.679263
H16   H     H_    0.258626 0.587912 0.143767 0.360665
O21   O     O_3   0.962576 0.091562 0.226740 -0.735001
H17   H     H_    0.936976 0.009092 0.169628 0.342436
O22   O     O_3   0.037418 0.908728 0.772950 -0.735008
H18   H     H_    0.063018 0.991196 0.830066 0.342440
Cl1   Cl    Cl    0.447098 0.940002 0.251548 -0.538750
Cl2   Cl    Cl    0.552901 0.059998 0.748455 -0.538578

loop_
_geom_bond_atom_site_label_1
_geom_bond_atom_site_label_2
_ccdc_geom_bond_type
O22   H18   S    
C40   O14   S    
C8    C26   A    
O15   H11   S    
C14   C18   A    
C34   C42   A    
N3    N4    D    
C21   H5    S    
O19   H15   S    
C7    O15   S    
O17   H13   S    
C30   N2    A    
C19   C21   A    
C1    O1    A    
C36   O17   S    
C1    O3    A    
C2    O4    A    
C9    C22   A    
Cu2   O3    S    
C20   O22   S    
C3    C18   A    
C15   C17   A    
C35   O18   S    
C11   C37   A    
Cu2   O2    S    
C34   O19   S    
C12   C36   A    
C22   H6    S    
C23   O7    A    
C24   O8    A    
C32   N2    A    
Cu1   O8    S    
C5    C29   A    
C10   C21   A    
C31   O12   S    
C13   C19   A    
C14   C20   A    
C4    C6    A    
C5    C7    A    
Cu1   O1    S    
C15   C26   A    
C6    C8    A    
Cu2   O6    S    
O21   H17   S    
C8    O16   S    
O16   H12   S    
C25   H7    S    
C3    C9    A    
C26   H8    S    
O20   H16   S    
C39   O13   S    
C31   N1    A    
C33   O20   S    
C41   N1    S    
C30   O10   S    
Cu1   O4    S    
C32   O11   S    
C29   O9    S    
C4    C17   A    
C6    C30   A    
C20   C22   A    
Cu1   Cu2   S    
C4    C10   A    
C3    C5    A    
Cu1   O5    S    
H3    N3    S    
C16   C25   A    
H4    N4    S    
C24   O6    A    
C40   C42   A    
C19   O21   S    
C28   Cl2   S    
C2    O2    A    
C12   C24   S    
C7    C25   A    
C13   C17   A    
C33   C41   A    
C11   C35   A    
O14   H10   S    
C37   C39   A    
C42   N2    S    
C38   C40   A    
Cu2   N3    S    
C29   N1    A    
C11   C23   S    
C33   C35   A    
C27   Cl1   S    
C34   C36   A    
C12   C38   A    
O13   H9    S    
C38   H2    S    
C9    C31   A    
O18   H14   S    
C10   C32   A    
Cu1   N4    S    
C23   O5    A    
C39   C41   A    
C16   C18   A    
Cu2   O7    S    
C13   C16   A    
C27   C28   D    
C1    C27   S    
C14   C15   A    
C2    C28   S    
C37   H1    S    
