data_str_m2_o10_o28_f0_pcu.sym.45
_audit_creation_date              2013-03-05T15:41:54-0500
_audit_creation_method            fapswitch 2.2
_symmetry_space_group_name_H-M    P1
_symmetry_Int_Tables_number       1
_space_group_crystal_system       triclinic
_cell_length_a                    23.542131
_cell_length_b                    8.677489
_cell_length_c                    7.507313
_cell_angle_alpha                 102.118164
_cell_angle_beta                  95.526203
_cell_angle_gamma                 93.427608
_cell_volume                      1487.44763445

loop_
_atom_site_label
_atom_site_type_symbol
_atom_site_description
_atom_site_fract_x
_atom_site_fract_y
_atom_site_fract_z
_atom_type_partial_charge
O1    O     O_R   0.504120 0.286130 0.619770 -0.540049
O2    O     O_R   0.495880 0.713870 0.380230 -0.547508
O3    O     O_R   0.493410 0.256770 0.308360 -0.555306
O4    O     O_R   0.506590 0.743230 0.691640 -0.554816
C1    C     C_R   0.495910 0.200727 0.455521 0.806916
C2    C     C_R   0.504220 0.799376 0.544497 0.828732
O5    O     O_R   0.423230 0.514630 0.655730 -0.577764
O6    O     O_R   0.576770 0.485370 0.344270 -0.526372
O7    O     O_R   0.412530 0.485280 0.344320 -0.548418
O8    O     O_R   0.587470 0.514720 0.655680 -0.601476
C3    C     C_R   0.390939 0.500551 0.500311 0.813617
C4    C     C_R   0.608976 0.498361 0.499264 0.802561
Cu1   Cu    Cu3+1 0.506340 0.517380 0.684380 1.101837
Cu2   Cu    Cu3+1 0.493660 0.482620 0.315620 1.124120
C5    C     C_R   0.886062 0.631096 0.591152 0.564931
C6    C     C_R   0.116295 0.351400 0.472519 0.563730
N1    N     N_R   0.852885 0.491565 0.528231 -0.459579
N2    N     N_R   0.148894 0.492002 0.532306 -0.446683
C7    C     C_R   0.876692 0.351471 0.476213 0.594424
C8    C     C_R   0.125464 0.629459 0.599328 0.561916
C9    C     C_R   0.936102 0.348660 0.477041 -0.068013
C10   C     C_R   0.066290 0.630554 0.604726 -0.027476
C11   C     C_R   0.971241 0.490377 0.540151 -0.064415
C12   C     C_R   0.031273 0.488437 0.539971 -0.037400
C13   C     C_R   0.946358 0.633870 0.602672 -0.010757
C14   C     C_R   0.056133 0.345146 0.474119 -0.056568
C15   C     C_R   0.960669 0.207038 0.414804 -0.131311
C16   C     C_R   0.041716 0.771163 0.672480 -0.221906
C17   C     C_R   0.019659 0.203078 0.411784 0.119081
C18   C     C_R   0.982460 0.774424 0.672613 0.167812
O9    O     O_2   0.860451 0.766338 0.639231 -0.478799
O10   O     O_2   0.142554 0.219705 0.411725 -0.540780
O11   O     O_2   0.842789 0.215134 0.423548 -0.514568
O12   O     O_2   0.159473 0.765079 0.658571 -0.528256
H1    H     H_    0.933910 0.097297 0.365951 0.210447
H2    H     H_    0.068419 0.880430 0.725546 0.184124
C19   C     C_R   0.230694 0.495840 0.352768 0.151753
C20   C     C_R   0.758159 0.450940 0.345207 0.149956
C21   C     C_R   0.290368 0.498358 0.342448 0.078393
C22   C     C_R   0.697850 0.449173 0.336238 0.089926
C23   C     C_R   0.328070 0.500887 0.502555 -0.046620
C24   C     C_R   0.671774 0.495057 0.499670 -0.036836
C25   C     C_R   0.305272 0.503647 0.669482 -0.232209
C26   C     C_R   0.706360 0.537673 0.668523 -0.275608
H3    H     H_    0.332844 0.507530 0.794480 0.213746
H4    H     H_    0.687781 0.573821 0.795656 0.189488
C27   C     C_R   0.246593 0.500719 0.678246 -0.181521
C28   C     C_R   0.765430 0.535016 0.676657 -0.164628
H5    H     H_    0.229856 0.501733 0.807777 0.138366
H6    H     H_    0.791211 0.567492 0.808306 0.162824
C29   C     C_R   0.209329 0.495934 0.520882 0.369480
C30   C     C_R   0.791613 0.492252 0.516360 0.344444
C31   C     C_2   0.485320 0.034572 0.440502 0.016143
C32   C     C_2   0.515532 0.965561 0.559205 0.054557
N3    N     N_2   0.484110 0.456420 0.038520 0.029055
N4    N     N_2   0.515890 0.543580 0.961480 0.030786
N5    N     N_3   0.040255 0.052165 0.343555 -0.579624
H7    H     H_    0.060949 0.056901 0.227514 0.266093
H8    H     H_    0.068255 0.023175 0.445931 0.269255
N6    N     N_3   0.959740 0.921001 0.746739 -0.499659
H9    H     H_    0.973169 0.004802 0.674709 0.227289
H10   H     H_    0.977431 0.959349 0.883346 0.222942
N7    N     N_3   0.191136 0.494167 0.194472 -0.580037
H11   H     H_    0.195941 0.393944 0.093844 0.228238
H12   H     H_    0.200818 0.594991 0.144094 0.224273
N8    N     N_3   0.786155 0.413375 0.181892 -0.566966
H13   H     H_    0.775381 0.492956 0.099774 0.209222
H14   H     H_    0.771403 0.299057 0.110445 0.245028
N9    N     N_3   0.312536 0.499929 0.171354 -0.540724
H15   H     H_    0.300113 0.600195 0.126248 0.217859
H16   H     H_    0.295194 0.398983 0.074887 0.235897
N10   N     N_3   0.663286 0.397828 0.163125 -0.518606
H17   H     H_    0.675033 0.469669 0.075001 0.237460
H18   H     H_    0.671068 0.281359 0.106556 0.224685
N11   N     N_3   0.436482 0.952456 0.320462 -0.549054
H19   H     H_    0.439399 0.972807 0.189208 0.290268
H20   H     H_    0.399867 0.003116 0.366254 0.210291
N12   N     N_3   0.563416 0.049541 0.683620 -0.518115
H21   H     H_    0.580949 0.976698 0.765506 0.248625
H22   H     H_    0.595391 0.076346 0.604752 0.197786
N13   N     N_R   0.460784 0.313157 0.930122 0.260603
O13   O     O_R   0.486717 0.186385 0.938614 -0.309858
O14   O     O_R   0.406581 0.297331 0.870900 -0.382977
N14   N     N_R   0.541539 0.683733 0.071222 0.256715
O15   O     O_R   0.518610 0.814708 0.062136 -0.339396
O16   O     O_R   0.595722 0.691900 0.128706 -0.375033

loop_
_geom_bond_atom_site_label_1
_geom_bond_atom_site_label_2
_geom_bond_distance
_ccdc_geom_bond_type
N8    H14   1.044937 S    
N3    N4    1.290594 D    
N7    H12   1.045044 S    
C15   C17   1.393470 A    
N11   H19   1.044745 S    
N13   O13   1.299701 A    
C27   H5    1.082389 S    
O2    C2    1.289051 A    
C31   C32   1.345925 D    
O5    C3    1.308591 A    
O1    C1    1.288534 A    
C1    C31   1.427250 S    
C7    C9    1.399754 A    
C12   C14   1.420443 A    
C19   C29   1.402760 A    
N12   H22   1.045959 S    
N5    H8    1.044954 S    
C20   C30   1.406313 A    
N6    H10   1.045862 S    
O4    Cu1   1.948737 S    
N11   H20   1.045654 S    
C4    C24   1.480121 S    
N13   O14   1.299590 A    
C20   N8    1.434364 S    
C18   N6    1.433538 S    
C11   C12   1.414502 A    
N3    N13   1.384484 S    
Cu1   N4    2.033475 S    
C8    O12   1.350115 S    
C22   C24   1.417719 A    
Cu2   N3    2.033475 S    
C9    C15   1.399644 A    
C10   C16   1.400947 A    
Cu1   Cu2   2.706211 S    
C23   C25   1.406257 A    
C31   N11   1.440372 S    
C24   C26   1.405338 A    
C2    C32   1.429766 S    
N1    C30   1.437088 S    
C19   N7    1.434479 S    
C26   H4    1.082462 S    
N2    C29   1.432381 S    
N4    N14   1.384977 S    
C6    C14   1.415433 A    
N9    H16   1.045180 S    
C17   N5    1.433367 S    
N8    H13   1.044429 S    
N14   O15   1.298674 A    
N10   H18   1.045112 S    
C7    O11   1.350159 S    
N12   H21   1.045610 S    
C27   C29   1.393706 A    
C15   H1    1.084125 S    
N6    H9    1.044843 S    
O7    Cu2   1.943555 S    
O7    C3    1.305706 A    
O5    Cu1   1.945832 S    
O6    C4    1.306252 A    
C21   N9    1.434562 S    
C25   H3    1.081590 S    
C16   H2    1.083896 S    
O3    Cu2   1.948737 S    
O8    C4    1.307095 A    
O4    C2    1.295404 A    
C8    C10   1.398089 A    
C9    C11   1.406889 A    
C10   C12   1.409359 A    
O1    Cu1   1.959245 S    
C13   C18   1.416621 A    
C5    N1    1.369268 A    
O6    Cu2   1.945832 S    
C22   N10   1.435092 S    
N14   O16   1.299495 A    
N10   H17   1.044307 S    
O3    C1    1.294983 A    
O8    Cu1   1.943555 S    
C5    O9    1.348986 S    
C6    O10   1.347680 S    
C16   C18   1.397089 A    
C19   C21   1.413524 A    
C20   C22   1.413907 A    
N5    H7    1.045141 S    
C28   H6    1.082443 S    
N1    C7    1.367023 A    
C3    C23   1.481971 S    
N2    C8    1.363933 A    
C11   C13   1.417278 A    
N9    H15   1.045106 S    
O2    Cu2   1.959245 S    
C5    C13   1.412245 A    
N7    H11   1.045092 S    
C28   C30   1.395902 A    
C21   C23   1.419205 A    
C14   C17   1.424754 A    
C6    N2    1.367766 A    
C25   C27   1.388299 A    
C26   C28   1.387883 A    
C32   N12   1.444811 S    
