data_str_m2_o10_o26_f0_pcu.sym.9
_audit_creation_date              2012-10-26T19:02:40-0400
_audit_creation_method            fapswitch 2.2
_symmetry_space_group_name_H-M    P1
_symmetry_Int_Tables_number       1
_space_group_crystal_system       triclinic
_cell_length_a                    17.259423
_cell_length_b                    8.667602
_cell_length_c                    7.420214
_cell_angle_alpha                 103.008661
_cell_angle_beta                  88.894122
_cell_angle_gamma                 92.470071
_cell_volume                      1080.50210341

loop_
_atom_site_label
_atom_site_type_symbol
_atom_type_description
_atom_site_fract_x
_atom_site_fract_y
_atom_site_fract_z
_atom_type_partial_charge
C1    C     C_R   0.498784 0.199797 0.453396 0.537441
C2    C     C_R   0.776944 0.592183 0.594990 -0.153839
C3    C     C_R   0.142836 0.402628 0.414285 -0.119228
C4    C     C_R   0.857168 0.597271 0.585755 -0.119234
C5    C     C_R   0.104755 0.490227 0.569724 0.027810
C6    C     C_R   0.895247 0.509667 0.430316 0.027811
C7    C     C_R   0.147564 0.576028 0.719759 -0.118628
C8    C     C_R   0.852437 0.423900 0.280265 -0.118630
C9    C     C_R   0.228674 0.584557 0.711480 -0.024241
C10   C     C_R   0.771327 0.415411 0.288523 -0.024247
C11   C     C_2   0.020249 0.499146 0.575931 -0.134492
C12   C     C_R   0.501212 0.800203 0.546605 0.537457
C13   C     C_2   0.979753 0.500728 0.424112 -0.134489
C14   C     C_R   0.730068 0.306864 0.133998 0.041816
C15   C     C_R   0.685563 0.175542 0.165377 -0.060871
C16   C     C_R   0.653908 0.063671 0.016399 -0.104060
C17   C     C_R   0.666924 0.081562 0.835606 -0.102448
C18   C     C_R   0.709742 0.213317 0.803415 -0.088070
C19   C     C_R   0.741463 0.325453 0.951839 -0.087593
C20   C     C_R   0.269930 0.693148 0.865972 0.041819
C21   C     C_R   0.258563 0.674577 0.048145 -0.087577
C22   C     C_R   0.290284 0.786747 0.196536 -0.088078
C23   C     C_2   0.500461 0.032096 0.426934 -0.177897
C24   C     C_R   0.333074 0.918519 0.164300 -0.102469
C25   C     C_R   0.346060 0.936393 0.983492 -0.104061
C26   C     C_R   0.314407 0.824487 0.834546 -0.060889
C27   C     C_2   0.499530 0.967903 0.573066 -0.177891
C28   C     C_R   0.351126 0.503336 0.528698 0.532746
C29   C     C_R   0.648875 0.496660 0.471301 0.532744
C30   C     C_R   0.266760 0.500118 0.550682 -0.000259
C31   C     C_R   0.733241 0.499853 0.449321 -0.000267
C32   C     C_R   0.223060 0.407755 0.405031 -0.153839
Cu1   Cu    Cu3+1 0.508700 0.517250 0.683000 0.951057
Cu2   Cu    Cu3+1 0.491300 0.482750 0.317000 0.951045
H1    H     H_    0.251093 0.339336 0.282723 0.124891
H2    H     H_    0.497966 0.038943 0.713949 0.130445
H3    H     H_    0.439325 0.380669 0.958945 0.235358
H4    H     H_    0.560675 0.619331 0.041055 0.235362
H5    H     H_    0.677166 0.157630 0.304376 0.089038
H6    H     H_    0.620622 0.961464 0.040793 0.104887
H7    H     H_    0.644789 0.992287 0.720201 0.113172
H8    H     H_    0.719574 0.226999 0.663253 0.111732
H9    H     H_    0.776108 0.425137 0.924788 0.103916
H10   H     H_    0.223941 0.574879 0.075231 0.103926
H11   H     H_    0.280474 0.773076 0.336708 0.111724
H12   H     H_    0.748912 0.660604 0.717299 0.124901
H13   H     H_    0.355208 0.007819 0.279681 0.113186
H14   H     H_    0.379324 0.038613 0.959062 0.104866
H15   H     H_    0.322784 0.842383 0.695535 0.089024
H16   H     H_    0.008586 0.488401 0.290478 0.113357
H17   H     H_    0.991416 0.511473 0.709566 0.113353
H18   H     H_    0.117510 0.643983 0.839385 0.101747
H19   H     H_    0.882490 0.355944 0.160637 0.101745
H20   H     H_    0.889240 0.669461 0.700562 0.108192
H21   H     H_    0.110765 0.330416 0.299490 0.108196
H22   H     H_    0.502024 0.961056 0.286052 0.130448
N1    N     N_2   0.478180 0.456750 0.041980 -0.248772
N2    N     N_2   0.521820 0.543250 0.958020 -0.248770
O1    O     O_R   0.505650 0.286040 0.618880 -0.501842
O2    O     O_R   0.494350 0.713960 0.381120 -0.501845
O3    O     O_R   0.490960 0.256910 0.309800 -0.502714
O4    O     O_R   0.509040 0.743090 0.690200 -0.502706
O5    O     O_R   0.394600 0.516230 0.672450 -0.494238
O6    O     O_R   0.605400 0.483770 0.327550 -0.494239
O7    O     O_R   0.379910 0.487100 0.363380 -0.508401
O8    O     O_R   0.620090 0.512900 0.636620 -0.508390

loop_
_geom_bond_atom_site_label_1
_geom_bond_atom_site_label_2
_ccdc_geom_bond_type
C8    H19   S    
C7    H18   S    
Cu2   N1    S    
C2    C4    A    
C24   C25   A    
C28   O5    A    
C1    C23   S    
Cu1   N2    S    
C23   C27   D    
C27   H2    S    
C30   C32   A    
C21   H10   S    
C12   O4    A    
C9    C20   S    
C3    H21   S    
Cu1   O5    S    
C29   O8    A    
C28   C30   S    
C17   C18   A    
C29   O6    A    
C23   H22   S    
Cu1   O1    S    
C21   C22   A    
C2    H12   S    
C6    C13   S    
Cu2   O2    S    
C11   C13   D    
C25   H14   S    
C15   H5    S    
N1    N2    D    
C16   C17   A    
C20   C26   A    
C9    C30   A    
C16   H6    S    
C10   C31   A    
Cu2   O7    S    
Cu2   O6    S    
Cu1   Cu2   S    
Cu1   O8    S    
C5    C11   S    
C17   H7    S    
C1    O1    A    
C3    C32   A    
C22   C24   A    
C4    C6    A    
C11   H17   S    
C12   C27   S    
C15   C16   A    
C12   O2    A    
C32   H1    S    
C7    C9    A    
C22   H11   S    
C20   C21   A    
C29   C31   S    
C18   C19   A    
C10   C14   S    
C26   H15   S    
C5    C7    A    
C14   C15   A    
C2    C31   A    
C6    C8    A    
C18   H8    S    
C4    H20   S    
C25   C26   A    
H4    N2    S    
C24   H13   S    
C28   O7    A    
C14   C19   A    
C8    C10   A    
H3    N1    S    
C13   H16   S    
C19   H9    S    
Cu1   O4    S    
C3    C5    A    
Cu2   O3    S    
C1    O3    A    
