data_str_m9_o18_o28_f0_sra.sym.45
_audit_creation_date              2012-12-11T15:34:55-0500
_audit_creation_method            fapswitch 2.2
_symmetry_space_group_name_H-M    P1
_symmetry_Int_Tables_number       1
_space_group_crystal_system       triclinic
_cell_length_a                    30.548007
_cell_length_b                    7.255305
_cell_length_c                    25.791452
_cell_angle_alpha                 89.856426
_cell_angle_beta                  112.224858
_cell_angle_gamma                 89.850176
_cell_volume                      5291.55255966

loop_
_atom_site_label
_atom_site_type_symbol
_atom_type_description
_atom_site_fract_x
_atom_site_fract_y
_atom_site_fract_z
_atom_type_partial_charge
O1    O     O_R   0.295360 0.592990 0.320420 -0.545020
O2    O     O_R   0.704640 0.407010 0.679580 -0.523863
O3    O     O_R   0.204640 0.092990 0.179580 -0.547988
O4    O     O_R   0.795360 0.907010 0.820420 -0.522601
O5    O     O_R   0.294060 0.265620 0.213230 -0.521902
O6    O     O_R   0.705940 0.734380 0.786770 -0.523381
O7    O     O_R   0.205940 0.765620 0.286770 -0.516741
O8    O     O_R   0.794060 0.234380 0.713230 -0.523300
C1    C     C_R   0.304610 0.432129 0.200078 0.871153
C2    C     C_R   0.695200 0.567215 0.799589 0.879192
C3    C     C_R   0.194941 0.932519 0.299377 0.828236
C4    C     C_R   0.804842 0.067045 0.700460 0.874100
O9    O     O_R   0.300850 0.263360 0.322080 -0.549306
O10   O     O_R   0.699150 0.736640 0.677920 -0.540237
O11   O     O_R   0.199150 0.763360 0.177920 -0.531400
O12   O     O_R   0.800850 0.236640 0.822080 -0.537657
O13   O     O_R   0.211480 0.091820 0.289210 -0.508944
O14   O     O_R   0.788520 0.908180 0.710790 -0.517700
O15   O     O_R   0.288520 0.591820 0.210790 -0.501033
O16   O     O_R   0.711480 0.408180 0.789210 -0.517826
C5    C     C_R   0.312973 0.429952 0.344101 0.839255
C6    C     C_R   0.686808 0.569452 0.656352 0.771319
C7    C     C_R   0.186435 0.931459 0.156579 0.845062
C8    C     C_R   0.813389 0.068520 0.843554 0.769112
O17   O     O_3   0.220670 0.426670 0.239090 -0.376164
O18   O     O_3   0.779330 0.573330 0.760910 -0.370698
O19   O     O_3   0.279330 0.926670 0.260910 -0.384991
O20   O     O_3   0.720670 0.073330 0.739090 -0.372308
V1    V     V_3+5 0.255440 0.152290 0.252020 1.589829
V2    V     V_3+5 0.744560 0.847710 0.747980 1.633058
V3    V     V_3+5 0.244560 0.652290 0.247980 1.627132
V4    V     V_3+5 0.755440 0.347710 0.752020 1.634640
C9    C     C_R   0.849535 0.063173 0.901604 -0.305586
C10   C     C_R   0.148372 0.929903 0.099808 -0.341910
C11   C     C_R   0.650451 0.566495 0.598530 -0.305222
C12   C     C_R   0.350877 0.425086 0.401391 -0.327481
C13   C     C_R   0.873912 0.143972 0.000335 0.467969
C14   C     C_R   0.120357 0.776178 0.009300 0.434571
C15   C     C_R   0.625627 0.644328 0.499368 0.468242
C16   C     C_R   0.379816 0.311404 0.497838 0.421650
C17   C     C_R   0.839512 0.144785 0.945399 0.273823
C18   C     C_R   0.157679 0.842881 0.056761 0.255706
C19   C     C_R   0.660376 0.644587 0.554127 0.268420
C20   C     C_R   0.342737 0.330731 0.444827 0.286267
C21   C     C_R   0.895573 0.996463 0.911880 0.474543
C22   C     C_R   0.101827 0.984975 0.090897 0.462112
C23   C     C_R   0.604109 0.508096 0.589238 0.474196
C24   C     C_R   0.396637 0.493026 0.411071 0.462300
C25   C     C_R   0.930339 0.984228 0.968040 -0.093111
C26   C     C_R   0.062544 0.914851 0.043793 -0.105999
C27   C     C_R   0.568996 0.495772 0.533394 -0.095647
C28   C     C_R   0.436493 0.431056 0.459152 -0.105129
C29   C     C_R   0.918654 0.059532 0.012136 -0.278614
C30   C     C_R   0.072740 0.808752 0.003108 -0.290787
C31   C     C_R   0.580575 0.565064 0.488509 -0.276709
C32   C     C_R   0.426789 0.338834 0.502318 -0.282673
C33   C     C_R   0.977253 0.909794 0.981753 -0.189919
C34   C     C_R   0.013584 0.946946 0.035037 -0.186946
C35   C     C_R   0.521943 0.426793 0.520875 -0.191986
C36   C     C_R   0.485376 0.461331 0.467288 -0.183791
C37   C     C_R   0.998752 0.994822 0.078767 0.624915
C38   C     C_R   0.988234 0.784203 0.946874 0.616253
C39   C     C_R   0.499922 0.504764 0.422963 0.621360
C40   C     C_R   0.510995 0.309153 0.557748 0.621888
C41   C     C_R   0.951994 0.046545 0.067893 0.409379
C42   C     C_R   0.034870 0.731003 0.957788 0.425679
C43   C     C_R   0.546777 0.552056 0.433037 0.410590
C44   C     C_R   0.464324 0.265216 0.548687 0.429235
C45   C     C_R   0.090419 0.913751 0.477225 0.696608
C46   C     C_R   0.906734 0.955636 0.521984 0.683554
C47   C     C_R   0.407947 0.414396 0.020321 0.683902
C48   C     C_R   0.592207 0.460488 0.977174 0.682591
N1    N     N_R   0.069758 0.936256 0.420294 -0.516039
N2    N     N_R   0.927946 0.981221 0.578749 -0.510454
N3    N     N_R   0.428235 0.436609 0.077247 -0.512945
N4    N     N_R   0.571248 0.486972 0.920370 -0.512155
C49   C     C_R   0.021619 0.948871 0.393910 0.726775
C50   C     C_R   0.976194 0.976766 0.604955 0.708852
C51   C     C_R   0.476328 0.449524 0.103975 0.730369
C52   C     C_R   0.523015 0.483766 0.893791 0.724295
C53   C     C_R   0.991900 0.929725 0.424466 -0.202556
C54   C     C_R   0.005095 0.935977 0.574629 -0.207003
C55   C     C_R   0.506384 0.431796 0.073805 -0.201476
C56   C     C_R   0.493795 0.444509 0.923877 -0.204484
C57   C     C_R   0.012859 0.920265 0.483537 -0.135915
C58   C     C_R   0.984050 0.927764 0.515673 -0.130013
C59   C     C_R   0.485767 0.422080 0.014775 -0.133008
C60   C     C_R   0.514725 0.432091 0.982859 -0.133563
C61   C     C_R   0.062640 0.910811 0.510514 -0.191016
C62   C     C_R   0.934262 0.930924 0.488878 -0.197439
C63   C     C_R   0.436159 0.407890 0.987592 -0.197312
C64   C     C_R   0.564476 0.435101 0.009973 -0.197540
C65   C     C_R   0.941972 0.919178 0.397742 0.389746
C66   C     C_R   0.054463 0.906159 0.601489 0.395863
C67   C     C_R   0.556310 0.422212 0.100863 0.389085
C68   C     C_R   0.444414 0.416140 0.896757 0.386357
C69   C     C_R   0.913605 0.910784 0.429838 0.406931
C70   C     C_R   0.083129 0.896528 0.569777 0.397264
C71   C     C_R   0.584918 0.414084 0.069057 0.407305
C72   C     C_R   0.416288 0.388536 0.928500 0.407587
O21   O     O_2   0.137788 0.894504 0.501344 -0.480939
O22   O     O_2   0.859133 0.958208 0.497642 -0.480172
O23   O     O_2   0.360486 0.402214 0.995486 -0.479340
O24   O     O_2   0.639788 0.462254 0.001842 -0.479662
O25   O     O_2   0.002775 0.983341 0.338389 -0.463999
O26   O     O_2   0.996176 0.018393 0.659888 -0.466848
O27   O     O_2   0.494798 0.483351 0.159466 -0.464203
O28   O     O_2   0.503459 0.522744 0.838573 -0.468092
C73   C     C_R   0.901644 0.887799 0.654887 0.505344
C74   C     C_R   0.094688 0.809184 0.346611 0.503009
C75   C     C_R   0.598004 0.391889 0.844804 0.505993
C76   C     C_R   0.403735 0.307611 0.151064 0.504347
C77   C     C_R   0.871713 0.908104 0.684318 0.449156
C78   C     C_R   0.125538 0.805996 0.317967 0.500409
C79   C     C_R   0.628177 0.410685 0.815648 0.450688
C80   C     C_R   0.373610 0.305116 0.180622 0.481756
C81   C     C_R   0.838726 0.053770 0.671674 -0.441172
C82   C     C_R   0.160933 0.940913 0.328277 -0.428152
C83   C     C_R   0.661334 0.554748 0.828368 -0.443923
C84   C     C_R   0.337832 0.439262 0.170225 -0.435855
C85   C     C_R   0.837279 0.181044 0.629880 0.456293
C86   C     C_R   0.163566 0.082448 0.366743 0.452808
C87   C     C_R   0.662806 0.681879 0.870028 0.455800
C88   C     C_R   0.333627 0.577970 0.130306 0.462014
C89   C     C_R   0.867531 0.162046 0.600358 0.356332
C90   C     C_R   0.133363 0.083185 0.396566 0.341248
C91   C     C_R   0.632249 0.664598 0.899197 0.355612
C92   C     C_R   0.363816 0.580776 0.100464 0.342376
C93   C     C_R   0.899014 0.010974 0.611573 -0.017820
C94   C     C_R   0.099274 0.943437 0.387509 -0.014045
C95   C     C_R   0.600497 0.515212 0.887850 -0.020601
C96   C     C_R   0.398528 0.442235 0.109818 -0.015803
O29   O     O_3   0.939557 0.088362 0.112839 -0.503919
C97   C     C_3   0.927532 0.923258 0.133305 -0.061751
H1    H     H_    0.899677 0.845442 0.099720 0.087889
H2    H     H_    0.913240 0.958403 0.165708 0.153972
H3    H     H_    0.959105 0.834034 0.153478 0.194514
O30   O     O_3   0.042784 0.603643 0.922418 -0.487998
C98   C     C_3   0.039685 0.425123 0.942640 -0.098897
H4    H     H_    0.068061 0.401187 0.984359 0.071844
H5    H     H_    0.044527 0.322636 0.913398 0.157345
H6    H     H_    0.004569 0.399914 0.944981 0.132751
O31   O     O_3   0.558883 0.589442 0.387538 -0.503623
C99   C     C_3   0.570088 0.421664 0.367700 -0.059966
H7    H     H_    0.597921 0.343124 0.401452 0.087709
H8    H     H_    0.584066 0.452985 0.334743 0.154244
H9    H     H_    0.538168 0.334572 0.348399 0.193460
O32   O     O_3   0.455840 0.141157 0.584611 -0.501336
C100  C     C_3   0.456905 0.961358 0.564181 -0.147542
H10   H     H_    0.428840 0.942491 0.521874 0.069996
H11   H     H_    0.450273 0.861061 0.592889 0.169208
H12   H     H_    0.491976 0.928145 0.562726 0.147396
F1    F     F_    0.805008 0.319071 0.615750 -0.693853
F2    F     F_    0.195976 0.218864 0.376555 -0.622721
F3    F     F_    0.695358 0.818106 0.884351 -0.691776
F4    F     F_    0.299359 0.708353 0.118906 -0.634728
O33   O     O_3   0.863788 0.282896 0.557346 -0.515293
C101  C     C_3   0.888720 0.444760 0.580620 -0.061173
H13   H     H_    0.926234 0.414569 0.607716 0.149358
H14   H     H_    0.870843 0.521517 0.604326 0.198003
H15   H     H_    0.889007 0.535477 0.546086 0.123610
O34   O     O_3   0.139536 0.213647 0.437641 -0.513904
C102  C     C_3   0.112686 0.370652 0.412557 -0.013589
H16   H     H_    0.074337 0.337690 0.392619 0.146684
H17   H     H_    0.125504 0.433076 0.381491 0.200498
H18   H     H_    0.116979 0.474858 0.445528 0.140796
O35   O     O_3   0.635956 0.785315 0.942031 -0.514981
C103  C     C_3   0.611232 0.948261 0.918491 -0.059297
H19   H     H_    0.573660 0.919734 0.891556 0.151319
H20   H     H_    0.629127 0.023633 0.894532 0.196344
H21   H     H_    0.611156 0.039533 0.952882 0.124636
O36   O     O_3   0.357084 0.711950 0.059203 -0.516743
C104  C     C_3   0.382783 0.870495 0.084188 -0.056799
H22   H     H_    0.421316 0.840068 0.104506 0.161890
H23   H     H_    0.369331 0.931199 0.114910 0.191125
H24   H     H_    0.378044 0.975285 0.051074 0.135276
O37   O     O_3   0.096168 0.109644 0.128329 -0.499723
C105  C     C_3   0.092505 0.288312 0.105402 -0.092409
H25   H     H_    0.058902 0.305180 0.068468 0.091925
H26   H     H_    0.123390 0.321952 0.094184 0.071569
H27   H     H_    0.091992 0.389363 0.137373 0.196677
O38   O     O_3   0.906670 0.959004 0.865684 -0.498433
C106  C     C_3   0.927151 0.117137 0.852406 -0.065685
H28   H     H_    0.962115 0.146635 0.885732 0.097738
H29   H     H_    0.903498 0.239676 0.844929 0.123036
H30   H     H_    0.932986 0.090490 0.813168 0.188192
O39   O     O_3   0.401192 0.618043 0.372924 -0.499901
C107  C     C_3   0.403975 0.796681 0.395286 -0.091764
H31   H     H_    0.436227 0.813250 0.433950 0.092261
H32   H     H_    0.371763 0.830540 0.403669 0.071607
H33   H     H_    0.406205 0.897526 0.363989 0.193811
O40   O     O_3   0.593166 0.479465 0.636039 -0.500151
C108  C     C_3   0.573642 0.642930 0.647796 -0.071067
H34   H     H_    0.538698 0.673505 0.614388 0.100143
H35   H     H_    0.597868 0.762329 0.653709 0.127033
H36   H     H_    0.568005 0.623162 0.687482 0.184701
O41   O     O_3   0.203975 0.818670 0.061673 -0.519781
C109  C     C_3   0.218292 0.979832 0.041757 -0.065133
H37   H     H_    0.219084 0.100462 0.068685 0.081897
H38   H     H_    0.195125 0.009610 0.997423 0.115903
H39   H     H_    0.254678 0.958835 0.043094 0.207545
O42   O     O_3   0.799121 0.251194 0.934054 -0.547005
C110  C     C_3   0.759324 0.136775 0.923033 -0.124679
H40   H     H_    0.767461 0.007198 0.948282 0.158054
H41   H     H_    0.742926 0.104788 0.877738 0.182968
H42   H     H_    0.732474 0.213460 0.933838 0.155686
O43   O     O_3   0.297692 0.270144 0.436552 -0.514797
C111  C     C_3   0.295111 0.077227 0.426995 -0.055841
H43   H     H_    0.329259 0.002248 0.446706 0.015613
H44   H     H_    0.281399 0.047900 0.381741 0.149194
H45   H     H_    0.269879 0.016976 0.443897 0.159731
O44   O     O_3   0.700854 0.748602 0.564646 -0.548098
C112  C     C_3   0.740507 0.632046 0.576284 -0.122494
H46   H     H_    0.732135 0.500965 0.552075 0.159013
H47   H     H_    0.757097 0.602960 0.621824 0.182977
H48   H     H_    0.767267 0.705572 0.564606 0.158318
O45   O     O_3   0.866521 0.248167 0.041399 -0.509483
C113  C     C_3   0.830647 0.169790 0.056447 -0.073226
H49   H     H_    0.825690 0.018889 0.048246 0.076632
H50   H     H_    0.796796 0.244010 0.034856 0.161884
H51   H     H_    0.840287 0.189601 0.102060 0.156237
O46   O     O_3   0.129975 0.692697 0.966292 -0.513357
C114  C     C_3   0.157141 0.530075 0.985261 -0.050522
H52   H     H_    0.153353 0.465520 0.022630 0.058666
H53   H     H_    0.194977 0.558734 0.994273 0.185118
H54   H     H_    0.145345 0.426967 0.951093 0.140210
O47   O     O_3   0.633117 0.744164 0.457483 -0.509566
C115  C     C_3   0.668563 0.660307 0.442679 -0.073949
H55   H     H_    0.673046 0.509567 0.451852 0.077051
H56   H     H_    0.702691 0.732260 0.463609 0.161837
H57   H     H_    0.658776 0.677440 0.396911 0.156258
O48   O     O_3   0.371072 0.314237 0.547075 -0.524396
C116  C     C_3   0.348244 0.153926 0.554679 -0.027361
H58   H     H_    0.360279 0.026733 0.540188 0.092330
H59   H     H_    0.309326 0.171078 0.535095 0.164821
H60   H     H_    0.357048 0.135569 0.600227 0.158328
F5    F     F_    0.027130 0.965646 0.133126 -0.607794
F6    F     F_    0.953671 0.689374 0.906666 -0.616268
F7    F     F_    0.471033 0.476511 0.368857 -0.610043
F8    F     F_    0.545301 0.211936 0.598010 -0.615578
O49   O     O_3   0.919881 0.927690 0.339944 -0.517898
C117  C     C_3   0.918514 0.750373 0.316720 -0.049880
H61   H     H_    0.946462 0.653578 0.343438 0.110945
H62   H     H_    0.923441 0.765376 0.276447 0.180035
H63   H     H_    0.883129 0.688766 0.306977 0.121789
O50   O     O_3   0.075887 0.888287 0.659118 -0.514130
C118  C     C_3   0.067387 0.708648 0.674594 -0.071940
H64   H     H_    0.073829 0.599595 0.647971 0.065265
H65   H     H_    0.030733 0.695127 0.673050 0.194416
H66   H     H_    0.091785 0.682302 0.718411 0.175730
O51   O     O_3   0.578117 0.430986 0.158666 -0.517820
C119  C     C_3   0.580140 0.253494 0.182295 -0.048329
H67   H     H_    0.552730 0.155773 0.155649 0.111206
H68   H     H_    0.574867 0.267835 0.222363 0.180654
H69   H     H_    0.615846 0.193367 0.192498 0.121979
O52   O     O_3   0.422446 0.423618 0.838941 -0.516834
C120  C     C_3   0.426053 0.250649 0.815655 -0.028004
H70   H     H_    0.456672 0.164442 0.842268 0.101289
H71   H     H_    0.430312 0.274653 0.775326 0.195885
H72   H     H_    0.392711 0.172997 0.806042 0.121841
O53   O     O_3   0.865273 0.891784 0.402017 -0.510966
C121  C     C_3   0.853497 0.704045 0.403703 -0.096045
H73   H     H_    0.856367 0.662303 0.446311 0.145821
H74   H     H_    0.875888 0.610252 0.390018 0.081358
H75   H     H_    0.816239 0.683965 0.374908 0.166006
O54   O     O_3   0.131756 0.890647 0.597754 -0.511794
C122  C     C_3   0.147196 0.705272 0.606686 -0.047244
H76   H     H_    0.125339 0.609233 0.573209 0.089086
H77   H     H_    0.148714 0.657413 0.648177 0.133346
H78   H     H_    0.183763 0.698412 0.607603 0.178539
O55   O     O_3   0.633248 0.394780 0.097188 -0.511056
C123  C     C_3   0.645359 0.207068 0.095774 -0.096578
H79   H     H_    0.642498 0.165574 0.053210 0.145580
H80   H     H_    0.623167 0.113205 0.109673 0.081698
H81   H     H_    0.682671 0.186805 0.124546 0.166013
O56   O     O_3   0.368807 0.350384 0.900356 -0.509200
C124  C     C_3   0.362228 0.158019 0.902532 -0.082906
H82   H     H_    0.366980 0.111914 0.945440 0.139455
H83   H     H_    0.386562 0.077397 0.888240 0.077226
H84   H     H_    0.325512 0.124442 0.874420 0.174246
F9    F     F_    0.932947 0.745634 0.668187 -0.647402
F10   F     F_    0.060567 0.678826 0.335076 -0.644301
F11   F     F_    0.566561 0.251105 0.831465 -0.641303
F12   F     F_    0.437857 0.176440 0.162165 -0.641557
F13   F     F_    0.875201 0.785161 0.725505 -0.589439
F14   F     F_    0.120177 0.671964 0.279402 -0.597375
F15   F     F_    0.624721 0.287983 0.774611 -0.587550
F16   F     F_    0.379909 0.172111 0.219964 -0.599639

loop_
_geom_bond_atom_site_label_1
_geom_bond_atom_site_label_2
_ccdc_geom_bond_type
O17   V3    S    
C55   C59   A    
C59   C60   A    
C25   C29   A    
O1    C5    A    
O33   C101  S    
C54   C66   A    
C59   C63   A    
O19   V1    S    
C74   F10   S    
O13   V1    S    
O3    C7    A    
C114  H52   S    
C10   C18   A    
C13   O45   S    
C105  H27   S    
C48   N4    A    
C11   C23   A    
C83   C87   A    
C97   H3    S    
C115  H56   S    
C105  H25   S    
C113  H49   S    
C114  H54   S    
C33   C38   A    
C5    C12   S    
C87   F3    S    
C112  H46   S    
O36   C104  S    
O7    C3    A    
C6    C11   S    
C110  H41   S    
C35   C40   A    
C26   C30   A    
C85   F1    S    
C72   O56   S    
C107  H33   S    
C40   C44   A    
O9    V1    S    
C102  H17   S    
O10   V2    S    
C53   C65   A    
C14   C18   A    
C24   C28   A    
C106  H29   S    
C39   F7    S    
O53   C121  S    
O4    C8    A    
N4    C95   S    
C67   C71   A    
C103  H20   S    
C112  H48   S    
C66   C70   A    
O31   C99   S    
O1    V3    S    
C25   C33   A    
O44   C112  S    
O2    V4    S    
C120  H70   S    
C82   C86   A    
C23   O40   S    
O3    V1    S    
C81   C85   A    
O38   C106  S    
C2    C83   S    
C28   C36   A    
C101  H15   S    
C77   F13   S    
N1    C94   S    
C87   C91   A    
C1    O15   A    
C103  H21   S    
C15   C31   A    
C60   C64   A    
C107  H32   S    
C2    O16   A    
C111  H43   S    
C16   C32   A    
C14   C30   A    
O2    C6    A    
C117  H62   S    
C80   F16   S    
C109  H37   S    
C10   C22   A    
C21   C25   A    
C63   C72   A    
C16   O48   S    
C11   C19   A    
C116  H58   S    
C74   C78   A    
C62   C69   A    
C15   O47   S    
C44   O32   S    
C69   O53   S    
C88   C92   A    
C13   C29   A    
C7    C10   S    
C34   C37   A    
O11   C7    A    
O15   V3    S    
C35   C36   A    
O12   C8    A    
C104  H22   S    
C124  H82   S    
C101  H14   S    
C86   F2    S    
C22   O37   S    
C43   O31   S    
C46   C62   A    
C121  H75   S    
C99   H9    S    
C45   C61   A    
C92   C96   A    
C115  H55   S    
C22   C26   A    
C21   O38   S    
C12   C24   A    
O5    V1    S    
C118  H65   S    
C109  H38   S    
O20   V2    S    
C110  H42   S    
C39   C43   A    
C47   N3    A    
C117  H63   S    
O7    V3    S    
O42   C110  S    
C38   C42   A    
C51   O27   S    
C52   C56   A    
C26   C34   A    
C56   C60   A    
O51   C119  S    
C102  H18   S    
O32   C100  S    
C68   O52   S    
C24   O39   S    
C99   H8    S    
C58   C62   A    
C106  H30   S    
C79   F15   S    
O35   C103  S    
C57   C61   A    
O18   V4    S    
C78   F14   S    
C15   C19   A    
C48   O24   S    
C27   C31   A    
C108  H35   S    
O45   C113  S    
C32   C44   A    
C61   C70   A    
O41   C109  S    
C20   O43   S    
O4    V2    S    
O43   C111  S    
C84   C88   A    
C107  H31   S    
C120  H71   S    
O8    V4    S    
C86   C90   A    
C106  H28   S    
C98   H5    S    
C85   C89   A    
C9    C21   A    
C23   C27   A    
C123  H81   S    
O49   C117  S    
C73   F9    S    
C50   C54   A    
C105  H26   S    
O47   C115  S    
C42   O30   S    
C49   C53   A    
O8    C4    A    
C108  H36   S    
C55   C67   A    
O52   C120  S    
C109  H39   S    
C46   O22   S    
C117  H61   S    
C124  H84   S    
O9    C5    A    
C91   O35   S    
C76   C96   A    
C45   N1    A    
C19   O44   S    
C116  H59   S    
O10   C6    A    
C57   C58   A    
C78   C82   A    
C104  H23   S    
C66   O50   S    
C119  H69   S    
C77   C81   A    
C75   C95   A    
C103  H19   S    
O6    V2    S    
C92   O36   S    
C45   O21   S    
C124  H83   S    
C73   C93   A    
O29   C97   S    
C36   C39   A    
C100  H12   S    
C27   C35   A    
C123  H79   S    
C67   O51   S    
C65   C69   A    
C76   C80   A    
C29   C41   A    
N3    C96   S    
C98   H4    S    
C113  H51   S    
C119  H68   S    
O34   C102  S    
O16   V4    S    
C118  H66   S    
C47   O23   S    
O50   C118  S    
C3    O13   A    
C80   C84   A    
N1    C49   A    
C75   F11   S    
C18   O41   S    
C76   F12   S    
N4    C52   A    
O5    C1    A    
C99   H7    S    
O6    C2    A    
C31   C43   A    
C118  H64   S    
C114  H53   S    
C104  H24   S    
O11   V3    S    
C121  H73   S    
C30   C42   A    
C73   C77   A    
O12   V4    S    
C52   O28   S    
C97   H1    S    
C79   C83   A    
C8    C9    S    
C38   F6    S    
C113  H50   S    
C50   O26   S    
C122  H76   S    
C37   F5    S    
O40   C108  S    
C120  H72   S    
C91   C95   A    
C88   F4    S    
C112  H47   S    
C9    C17   A    
O39   C107  S    
C111  H44   S    
C54   C58   A    
C100  H10   S    
C51   C55   A    
C122  H77   S    
C14   O46   S    
C33   C34   A    
C101  H13   S    
C28   C32   A    
C98   H6    S    
C70   O54   S    
C111  H45   S    
C48   C64   A    
C68   C72   A    
C71   O55   S    
O48   C116  S    
C122  H78   S    
C97   H2    S    
C65   O49   S    
C74   C94   A    
C89   O33   S    
C37   C41   A    
C13   C17   A    
O46   C114  S    
C49   O25   S    
C116  H60   S    
C41   O29   S    
C46   N2    A    
C40   F8    S    
C102  H16   S    
C12   C20   A    
O54   C122  S    
O37   C105  S    
O14   V2    S    
C4    C81   S    
C100  H11   S    
C89   C93   A    
C16   C20   A    
C121  H74   S    
C47   C63   A    
O56   C124  S    
C123  H80   S    
C108  H34   S    
N2    C50   A    
N2    C93   S    
C4    O14   A    
C1    C84   S    
C90   C94   A    
C75   C79   A    
C56   C68   A    
C110  H40   S    
C17   O42   S    
C90   O34   S    
C3    C82   S    
N3    C51   A    
C115  H57   S    
C53   C57   A    
O30   C98   S    
O55   C123  S    
C64   C71   A    
C119  H67   S    
