data_str_m9_o7_o18_f0_sra.sym.116
_audit_creation_date              2012-12-11T17:36:09-0500
_audit_creation_method            fapswitch 2.2
_symmetry_space_group_name_H-M    P1
_symmetry_Int_Tables_number       1
_space_group_crystal_system       triclinic
_cell_length_a                    25.956887
_cell_length_b                    6.901451
_cell_length_c                    21.678267
_cell_angle_alpha                 89.99979
_cell_angle_beta                  95.745978
_cell_angle_gamma                 89.999852
_cell_volume                      3863.93653459

loop_
_atom_site_label
_atom_site_type_symbol
_atom_type_description
_atom_site_fract_x
_atom_site_fract_y
_atom_site_fract_z
_atom_type_partial_charge
O1    O     O_R   0.208650 0.594520 0.175450 -0.526151
O2    O     O_R   0.791350 0.405480 0.824550 -0.525859
O3    O     O_R   0.291350 0.094520 0.324550 -0.526147
O4    O     O_R   0.708650 0.905480 0.675450 -0.525854
O5    O     O_R   0.192980 0.260780 0.300160 -0.546486
O6    O     O_R   0.807020 0.739220 0.699840 -0.545892
O7    O     O_R   0.307020 0.760780 0.199840 -0.546488
O8    O     O_R   0.692980 0.239220 0.800160 -0.545894
C1    C     C_R   0.178801 0.432911 0.318405 0.732635
C2    C     C_R   0.821132 0.567064 0.681513 0.733959
C3    C     C_R   0.321199 0.932911 0.181595 0.732629
C4    C     C_R   0.678868 0.067064 0.818487 0.733947
O9    O     O_R   0.202550 0.264660 0.174420 -0.541330
O10   O     O_R   0.797450 0.735340 0.825580 -0.541270
O11   O     O_R   0.297450 0.764660 0.325580 -0.541330
O12   O     O_R   0.702550 0.235340 0.674420 -0.541269
O13   O     O_R   0.300990 0.096480 0.197920 -0.535325
O14   O     O_R   0.699010 0.903520 0.802080 -0.536336
O15   O     O_R   0.199010 0.596480 0.302080 -0.535325
O16   O     O_R   0.800990 0.403520 0.697920 -0.536336
C5    C     C_R   0.190974 0.433624 0.151419 0.756865
C6    C     C_R   0.808903 0.566391 0.848678 0.756867
C7    C     C_R   0.309026 0.933623 0.348581 0.756861
C8    C     C_R   0.691097 0.066392 0.651322 0.756865
O17   O     O_3   0.282290 0.427760 0.257860 -0.360293
O18   O     O_3   0.717710 0.572240 0.742140 -0.360405
O19   O     O_3   0.217710 0.927760 0.242140 -0.360297
O20   O     O_3   0.782290 0.072240 0.757860 -0.360409
V1    V     V_3+5 0.244010 0.152080 0.248540 1.488658
V2    V     V_3+5 0.755990 0.847920 0.751460 1.488757
V3    V     V_3+5 0.255990 0.652080 0.251460 1.488657
V4    V     V_3+5 0.744010 0.347920 0.748540 1.488755
C9    C     C_R   0.656434 0.058055 0.593183 -0.072422
C10   C     C_R   0.343802 0.941887 0.406640 -0.071345
C11   C     C_R   0.843566 0.558048 0.906817 -0.072413
C12   C     C_R   0.156198 0.441894 0.093360 -0.071345
C13   C     C_R   0.647904 0.070783 0.481368 -0.149104
C14   C     C_R   0.352502 0.928666 0.518438 -0.150099
C15   C     C_R   0.852094 0.570720 0.018632 -0.149102
C16   C     C_R   0.147500 0.428730 0.981561 -0.150098
C17   C     C_R   0.677815 0.092828 0.537695 -0.223647
C18   C     C_R   0.322534 0.906550 0.462159 -0.224049
C19   C     C_R   0.822183 0.592781 0.962306 -0.223672
C20   C     C_R   0.177468 0.406596 0.037839 -0.224054
C21   C     C_R   0.603179 0.011998 0.592478 0.176626
C22   C     C_R   0.397049 0.988153 0.407248 0.176023
C23   C     C_R   0.896821 0.512015 0.907521 0.176625
C24   C     C_R   0.102950 0.488139 0.092753 0.176023
C25   C     C_R   0.570223 0.020790 0.535143 0.040511
C26   C     C_R   0.430078 0.979510 0.464541 0.040518
C27   C     C_R   0.929777 0.520788 0.964856 0.040508
C28   C     C_R   0.069922 0.479516 0.035459 0.040516
C29   C     C_R   0.594846 0.031243 0.479593 0.101804
C30   C     C_R   0.405513 0.968820 0.520131 0.102182
C31   C     C_R   0.905153 0.531201 0.020407 0.101809
C32   C     C_R   0.094488 0.468865 0.979869 0.102181
C33   C     C_R   0.514494 0.013961 0.529609 0.063106
C34   C     C_R   0.485814 0.986622 0.470035 0.063199
C35   C     C_R   0.985506 0.513976 0.970392 0.063105
C36   C     C_R   0.014186 0.486613 0.029965 0.063198
C37   C     C_R   0.514067 0.956350 0.418871 -0.115149
C38   C     C_R   0.486257 0.044429 0.580768 -0.115080
C39   C     C_R   0.985933 0.456303 0.081127 -0.115150
C40   C     C_R   0.013743 0.544481 0.919235 -0.115080
C41   C     C_R   0.566883 0.992142 0.422632 -0.178707
C42   C     C_R   0.433472 0.008285 0.577061 -0.178649
C43   C     C_R   0.933116 0.492079 0.077366 -0.178704
C44   C     C_R   0.066529 0.508353 0.922941 -0.178649
H1    H     H_    0.586431 0.981362 0.380848 0.131546
H2    H     H_    0.413944 0.019022 0.618862 0.131370
H3    H     H_    0.913567 0.481269 0.119149 0.131548
H4    H     H_    0.086057 0.519120 0.881141 0.131370
H5    H     H_    0.281739 0.872714 0.461993 0.106734
H6    H     H_    0.718627 0.126239 0.537937 0.112646
H7    H     H_    0.218264 0.372777 0.038004 0.106734
H8    H     H_    0.781369 0.626171 0.962065 0.112650
H9    H     H_    0.666374 0.084578 0.438894 0.122228
H10   H     H_    0.334108 0.914517 0.560954 0.120411
H11   H     H_    0.833622 0.584485 0.061107 0.122214
H12   H     H_    0.165895 0.414612 0.939045 0.120412
H13   H     H_    0.496214 0.901077 0.375491 0.181384
H14   H     H_    0.504114 0.099954 0.624115 0.181359
H15   H     H_    0.003786 0.401012 0.124504 0.181386
H16   H     H_    0.995885 0.600026 0.875890 0.181360
C45   C     C_R   0.433789 0.800267 0.088670 -0.204562
C46   C     C_R   0.568952 0.199554 0.915776 -0.184477
C47   C     C_R   0.066208 0.300279 0.411328 -0.204546
C48   C     C_R   0.931054 0.699560 0.584233 -0.184543
H17   H     H_    0.457210 0.674460 0.080895 0.180394
H18   H     H_    0.546276 0.325794 0.925220 0.182589
H19   H     H_    0.042786 0.174475 0.419102 0.180398
H20   H     H_    0.953732 0.825799 0.574794 0.182566
C49   C     C_R   0.393765 0.784029 0.127447 -0.152710
C50   C     C_R   0.607867 0.216187 0.875432 -0.157779
C51   C     C_R   0.106233 0.284035 0.372552 -0.152713
C52   C     C_R   0.892138 0.716186 0.624577 -0.157794
H21   H     H_    0.387035 0.645116 0.148442 0.154122
H22   H     H_    0.614734 0.356097 0.855176 0.155275
H23   H     H_    0.112962 0.145122 0.351556 0.154126
H24   H     H_    0.885274 0.856089 0.644840 0.155296
C53   C     C_R   0.363464 0.946123 0.139669 -0.098643
C54   C     C_R   0.637090 0.053401 0.861052 -0.108674
C55   C     C_R   0.136536 0.446126 0.360330 -0.098643
C56   C     C_R   0.862910 0.553404 0.638948 -0.108659
C57   C     C_R   0.374004 0.123906 0.111407 -0.233820
C58   C     C_R   0.626335 0.874320 0.888317 -0.212702
C59   C     C_R   0.125996 0.623909 0.388592 -0.233828
C60   C     C_R   0.873659 0.374333 0.611673 -0.212686
H25   H     H_    0.352033 0.252340 0.120592 0.126834
H26   H     H_    0.647464 0.745276 0.877640 0.131139
H27   H     H_    0.147970 0.752340 0.379410 0.126841
H28   H     H_    0.852526 0.245293 0.622343 0.131116
C61   C     C_R   0.412735 0.139002 0.070493 0.453097
C62   C     C_R   0.588955 0.858642 0.930628 0.450045
C63   C     C_R   0.087263 0.639011 0.429503 0.453093
C64   C     C_R   0.911039 0.358663 0.569362 0.449999
C65   C     C_R   0.443594 0.977091 0.060131 0.021096
C66   C     C_R   0.559208 0.021485 0.943620 0.006507
C67   C     C_R   0.056403 0.477104 0.439865 0.021112
C68   C     C_R   0.940791 0.521501 0.556379 0.006514
C69   C     C_1   0.484697 0.991665 0.019419 0.003673
C70   C     C_1   0.518601 0.005780 0.984979 -0.010271
C71   C     C_1   0.015300 0.491684 0.480577 0.003661
C72   C     C_1   0.981397 0.505800 0.515018 -0.010235
Br1   Br    Br    0.417722 0.108728 0.332804 -0.582617
Br2   Br    Br    0.582392 0.891256 0.666848 -0.581789
Br3   Br    Br    0.082273 0.608666 0.167202 -0.582618
Br4   Br    Br    0.917613 0.391321 0.833146 -0.581801
O21   O     O_3   0.423652 0.316353 0.044886 -0.581117
C73   C     C_3   0.383649 0.369505 0.998740 0.039366
H29   H     H_    0.382981 0.530222 0.996105 0.154602
H30   H     H_    0.344266 0.324523 0.009570 0.096279
C74   C     C_3   0.394766 0.289604 0.935472 -0.296991
H31   H     H_    0.434141 0.335228 0.925388 0.212531
H32   H     H_    0.393451 0.128711 0.936353 0.185091
C75   C     C_3   0.355184 0.362578 0.883939 -0.822330
H33   H     H_    0.315568 0.316433 0.892716 0.226434
H34   H     H_    0.364119 0.301406 0.838847 0.237174
H35   H     H_    0.356542 0.523191 0.881076 0.232219
O22   O     O_3   0.579198 0.679326 0.955436 -0.584545
C76   C     C_3   0.607456 0.659582 0.014439 0.063941
H36   H     H_    0.585681 0.557310 0.041732 0.159018
H37   H     H_    0.610713 0.797831 0.041322 0.108841
C77   C     C_3   0.661360 0.574536 0.008532 -0.337633
H38   H     H_    0.657680 0.440645 0.980004 0.208941
H39   H     H_    0.685111 0.680702 0.985314 0.175607
C78   C     C_3   0.689364 0.525938 0.071874 -0.821168
H40   H     H_    0.694010 0.658280 0.101067 0.232431
H41   H     H_    0.728353 0.466819 0.065927 0.228875
H42   H     H_    0.667310 0.415447 0.095653 0.233935
O23   O     O_3   0.076347 0.816367 0.455106 -0.581112
C79   C     C_3   0.116346 0.869503 0.501259 0.039318
H43   H     H_    0.117056 0.030221 0.503847 0.154596
H44   H     H_    0.155726 0.824315 0.490475 0.096270
C80   C     C_3   0.105172 0.789856 0.564537 -0.296935
H45   H     H_    0.065802 0.835683 0.574577 0.212531
H46   H     H_    0.106444 0.628958 0.563701 0.185130
C81   C     C_3   0.144751 0.862821 0.616075 -0.822362
H47   H     H_    0.184360 0.816459 0.607344 0.226440
H48   H     H_    0.135770 0.801843 0.661174 0.237191
H49   H     H_    0.143439 0.023446 0.618887 0.232218
O24   O     O_3   0.920782 0.179369 0.544529 -0.584536
C82   C     C_3   0.892516 0.159722 0.485527 0.063970
H50   H     H_    0.914322 0.057709 0.458180 0.158959
H51   H     H_    0.889191 0.298066 0.458697 0.108828
C83   C     C_3   0.838654 0.074309 0.491429 -0.337470
H52   H     H_    0.842407 0.940173 0.519833 0.208962
H53   H     H_    0.814891 0.180109 0.514779 0.175608
C84   C     C_3   0.810610 0.026143 0.428074 -0.821299
H54   H     H_    0.805873 0.158746 0.399015 0.232434
H55   H     H_    0.771659 0.966664 0.434022 0.228896
H56   H     H_    0.832688 0.916070 0.404150 0.233951

loop_
_geom_bond_atom_site_label_1
_geom_bond_atom_site_label_2
_ccdc_geom_bond_type
O17   V3    S    
C81   H48   S    
C48   C52   A    
O1    C5    A    
C47   H19   S    
O19   V1    S    
C9    C21   A    
C84   H54   S    
C22   Br1   S    
O3    C7    A    
C82   H50   S    
C10   C18   A    
C11   C23   A    
C25   C33   A    
C71   C72   T    
C5    C12   S    
C42   H2    S    
O7    C3    A    
C6    C11   S    
C35   C40   A    
C26   C30   A    
C61   O21   S    
C58   C62   A    
C36   C39   A    
C40   C44   A    
C57   C61   A    
C82   H51   S    
C14   C18   A    
C76   H37   S    
C58   H26   S    
O4    C8    A    
C51   H23   S    
C80   H46   S    
C50   H22   S    
O1    V3    S    
O13   V1    S    
O2    V4    S    
C66   C70   S    
O3    V1    S    
C65   C69   S    
C40   H16   S    
C46   C50   A    
C81   H49   S    
C17   H6    S    
C45   C49   A    
C1    O15   A    
C15   C31   A    
C78   H40   S    
C2    O16   A    
C16   C32   A    
C47   C51   A    
O2    C6    A    
C74   C75   S    
O23   C79   S    
C16   H12   S    
C54   C58   A    
C10   C22   A    
C62   O22   S    
C48   C68   A    
C11   C19   A    
C16   C20   A    
C43   H3    S    
C1    C55   S    
C13   C29   A    
C34   C37   A    
O11   C7    A    
C38   H14   S    
O15   V3    S    
C35   C36   A    
O12   C8    A    
C80   C81   S    
C83   H53   S    
C84   H55   S    
C47   C67   A    
O10   V2    S    
C77   C78   S    
C4    C54   S    
C51   C55   A    
O5    V1    S    
O17   V1    S    
C39   C43   A    
C53   C57   A    
O7    V3    S    
C38   C42   A    
O19   V3    S    
C26   C34   A    
C48   H20   S    
C23   Br4   S    
C82   C83   S    
O22   C76   S    
C75   H34   S    
C46   H18   S    
C76   C77   S    
C49   C53   A    
C45   H17   S    
O18   V4    S    
C75   H33   S    
C15   C19   A    
C14   H10   S    
C33   C38   A    
C32   C44   A    
C13   H9    S    
C64   C68   A    
C39   H15   S    
C44   H4    S    
O8    V4    S    
C20   H7    S    
C73   H30   S    
O5    C1    A    
C37   C41   A    
C31   C43   A    
C14   C30   A    
C79   C80   S    
O20   V4    S    
C21   Br2   S    
O8    C4    A    
C7    C10   S    
C78   H42   S    
C21   C25   A    
O9    C5    A    
C3    C53   S    
C45   C65   A    
C59   C63   A    
C69   C70   T    
C62   C66   A    
C61   C65   A    
C77   H39   S    
O6    V2    S    
C79   H44   S    
O18   V2    S    
C63   C67   A    
C46   C66   A    
C74   H31   S    
C84   H56   S    
C12   C20   A    
C73   C74   S    
C27   C35   A    
C63   O23   S    
C49   H21   S    
C56   C60   A    
C29   C41   A    
O24   C82   S    
O16   V4    S    
O9    V1    S    
C19   H8    S    
C57   H25   S    
C3    O13   A    
C18   H5    S    
C78   H41   S    
C59   H27   S    
C77   H38   S    
O6    C2    A    
C23   C27   A    
O11   V3    S    
C30   C42   A    
C67   C71   S    
O12   V4    S    
C22   C26   A    
C8    C9    S    
C9    C17   A    
C60   C64   A    
C52   C56   A    
C73   H29   S    
O21   C73   S    
O20   V2    S    
C37   H13   S    
C76   H36   S    
C75   H35   S    
C24   Br3   S    
O10   C6    A    
C33   C34   A    
C81   H47   S    
C83   H52   S    
C41   H1    S    
C52   H24   S    
C64   O24   S    
C2    C56   S    
C12   C24   A    
C27   C31   A    
C13   C17   A    
C25   C29   A    
C68   C72   S    
O14   V2    S    
C60   H28   S    
C24   C28   A    
C79   H43   S    
C50   C54   A    
C83   C84   S    
C28   C36   A    
C4    O14   A    
C80   H45   S    
C74   H32   S    
C55   C59   A    
O4    V2    S    
C28   C32   A    
C15   H11   S    
