data_str_m3_o1_o10_f0_pcu.sym.208
_audit_creation_date              2012-12-10T18:42:32-0500
_audit_creation_method            fapswitch 2.2
_symmetry_space_group_name_H-M    P1
_symmetry_Int_Tables_number       1
_space_group_crystal_system       triclinic
_cell_length_a                    8.571
_cell_length_b                    10.664036
_cell_length_c                    9.923717
_cell_angle_alpha                 90.506908
_cell_angle_beta                  98.710484
_cell_angle_gamma                 91.365849
_cell_volume                      896.254538868

loop_
_atom_site_label
_atom_site_type_symbol
_atom_type_description
_atom_site_fract_x
_atom_site_fract_y
_atom_site_fract_z
_atom_type_partial_charge
C1    C     C_R   0.503907 0.260399 0.500126 0.880884
C2    C     C_R   0.498666 0.739462 0.500451 0.892208
C3    C     C_R   0.201365 0.497643 0.464153 0.950720
C4    C     C_R   0.798614 0.499953 0.535720 0.953946
C5    C     C_2   0.035931 0.492395 0.445075 -0.390401
C6    C     C_2   0.963981 0.500342 0.554410 -0.394921
C7    C     C_R   0.413606 0.063038 0.394934 -0.328549
C8    C     C_R   0.591892 0.935873 0.607487 -0.323580
C9    C     C_R   0.404288 0.934316 0.395137 0.221464
C10   C     C_R   0.600445 0.065162 0.607252 0.221160
C11   C     C_R   0.496107 0.871733 0.501476 -0.080859
C12   C     C_R   0.508860 0.127734 0.500273 -0.079303
C13   C     C_R   0.613274 0.566742 0.087887 0.164195
C14   C     C_R   0.383022 0.437622 0.912253 0.156945
C15   C     C_R   0.613509 0.566702 0.942937 0.171009
C16   C     C_R   0.379174 0.443000 0.055841 0.167185
H1    H     H_    0.974031 0.481561 0.341624 0.174474
H2    H     H_    0.026341 0.509308 0.657690 0.177454
H3    H     H_    0.341547 0.112321 0.315474 0.157298
H4    H     H_    0.663674 0.885405 0.687646 0.155898
N1    N     N_R   0.499960 0.499970 0.857200 -0.126203
N2    N     N_R   0.500040 0.500030 0.142800 -0.125055
O1    O     O_R   0.499990 0.316750 0.614620 -0.586264
O2    O     O_R   0.500010 0.683250 0.385380 -0.575330
O3    O     O_R   0.499990 0.316780 0.385290 -0.615374
O4    O     O_R   0.500010 0.683220 0.614710 -0.623844
O5    O     O_R   0.271750 0.499990 0.587840 -0.595145
O6    O     O_R   0.728250 0.500010 0.412160 -0.601957
O7    O     O_R   0.271750 0.500010 0.358510 -0.596027
O8    O     O_R   0.728250 0.499990 0.641490 -0.590546
Zn1   Zn    Zn3+2 0.500000 0.499980 0.653120 0.972481
Zn2   Zn    Zn3+2 0.500000 0.500020 0.346880 0.976298
N3    N     N_2   0.301463 0.868673 0.290075 -0.292527
H5    H     H_    0.287262 0.913416 0.197391 0.213801
C17   C     C_3   0.151904 0.828539 0.328242 -0.774197
H6    H     H_    0.080851 0.911374 0.345584 0.228364
H7    H     H_    0.170347 0.771700 0.422257 0.236197
H8    H     H_    0.085248 0.769755 0.245015 0.234009
N4    N     N_2   0.701319 0.131348 0.713041 -0.294826
H9    H     H_    0.715601 0.086254 0.805510 0.212136
C18   C     C_3   0.850569 0.173640 0.676013 -0.777127
H10   H     H_    0.924202 0.091926 0.660327 0.227931
H11   H     H_    0.914528 0.233989 0.759137 0.234633
H12   H     H_    0.831900 0.229506 0.581330 0.237080
N5    N     N_2   0.726329 0.639356 0.177160 -0.246813
H13   H     H_    0.841559 0.613379 0.180968 0.208423
C19   C     C_3   0.704009 0.773460 0.179967 -0.745363
H14   H     H_    0.781115 0.821605 0.115214 0.201384
H15   H     H_    0.737955 0.809137 0.285998 0.246552
H16   H     H_    0.578842 0.797018 0.144722 0.240763
N6    N     N_2   0.260755 0.372242 0.824380 -0.254944
H17   H     H_    0.147942 0.389032 0.842713 0.195123
C20   C     C_3   0.286958 0.240850 0.799229 -0.690891
H18   H     H_    0.250225 0.219200 0.689288 0.239827
H19   H     H_    0.213856 0.180299 0.856487 0.195113
H20   H     H_    0.412857 0.216515 0.829011 0.244786
N7    N     N_2   0.721377 0.644601 0.884151 -0.240553
H21   H     H_    0.706175 0.739351 0.895911 0.209720
C21   C     C_3   0.884830 0.608348 0.903558 -0.792797
H22   H     H_    0.950510 0.650314 0.998588 0.205982
H23   H     H_    0.941559 0.645680 0.818500 0.236113
H24   H     H_    0.894395 0.504546 0.904775 0.235664
N8    N     N_2   0.239488 0.406582 0.107410 -0.250435
H25   H     H_    0.141400 0.456999 0.070407 0.195781
C22   C     C_3   0.207988 0.274311 0.122162 -0.757897
H26   H     H_    0.106540 0.242607 0.045340 0.205906
H27   H     H_    0.173738 0.259046 0.224202 0.236936
H28   H     H_    0.312778 0.217963 0.110723 0.235884

loop_
_geom_bond_atom_site_label_1
_geom_bond_atom_site_label_2
_ccdc_geom_bond_type
C15   N7    S    
C9    N3    S    
N8    C22   S    
C16   N8    S    
C19   H16   S    
C18   H11   S    
C18   H10   S    
C20   H19   S    
C17   H6    S    
C15   N1    A    
C3    C5    S    
C22   H28   S    
N1    Zn1   S    
O3    Zn2   S    
C3    O5    A    
N3    H5    S    
C21   H22   S    
C2    O4    A    
N5    H13   S    
C20   H20   S    
C13   N5    S    
C9    C11   A    
N7    H21   S    
C8    H4    S    
C1    C12   S    
N2    Zn2   S    
C8    C11   A    
C5    C6    D    
C10   C12   A    
C14   N1    A    
C19   H15   S    
N3    C17   S    
C13   N2    A    
C1    O1    A    
O7    Zn2   S    
C7    H3    S    
C13   C15   A    
C14   N6    S    
C2    O2    A    
O8    Zn1   S    
C6    H2    S    
C18   H12   S    
C14   C16   A    
C7    C12   A    
N7    C21   S    
C5    H1    S    
C2    C11   S    
N6    C20   S    
O5    Zn1   S    
N8    H25   S    
C19   H14   S    
C7    C9    A    
O6    Zn2   S    
C17   H8    S    
N5    C19   S    
N4    C18   S    
C4    C6    S    
C22   H26   S    
C21   H23   S    
C17   H7    S    
N4    H9    S    
C3    O7    A    
C21   H24   S    
C16   N2    A    
C4    O6    A    
C20   H18   S    
O4    Zn1   S    
C1    O3    A    
C8    C10   A    
C4    O8    A    
N6    H17   S    
C10   N4    S    
C22   H27   S    
O2    Zn2   S    
O1    Zn1   S    
