data_str_m2_o13_o15_f0_pcu.sym.157
_audit_creation_date              2012-12-10T17:10:24-0500
_audit_creation_method            fapswitch 2.2
_symmetry_space_group_name_H-M    P1
_symmetry_Int_Tables_number       1
_space_group_crystal_system       triclinic
_cell_length_a                    10.778111
_cell_length_b                    13.061446
_cell_length_c                    11.650423
_cell_angle_alpha                 100.687807
_cell_angle_beta                  91.18483
_cell_angle_gamma                 91.683929
_cell_volume                      1610.40154028

loop_
_atom_site_label
_atom_site_type_symbol
_atom_type_description
_atom_site_fract_x
_atom_site_fract_y
_atom_site_fract_z
_atom_type_partial_charge
C1    C     C_R   0.492663 0.298368 0.477799 0.782277
C2    C     C_R   0.496525 0.701103 0.522964 0.822444
C3    C     C_R   0.487701 0.815188 0.539246 -0.096747
C4    C     C_R   0.483437 0.183317 0.463951 -0.099936
C5    C     C_R   0.485771 0.008958 0.346797 -0.196479
C6    C     C_R   0.469966 0.988133 0.658009 -0.195934
C7    C     C_R   0.468443 0.115722 0.352999 0.090932
C8    C     C_R   0.462827 0.879156 0.649147 0.073426
C9    C     C_R   0.487012 0.139775 0.565659 -0.268758
C10   C     C_R   0.499929 0.860372 0.440124 -0.245056
C11   C     C_R   0.484275 0.032010 0.558065 0.133226
C12   C     C_R   0.492198 0.967196 0.448215 0.128630
C13   C     C_R   0.406320 0.385656 0.021650 -0.252105
C14   C     C_R   0.589888 0.617646 0.978276 -0.313550
C15   C     C_R   0.411037 0.399281 0.143877 0.090460
C16   C     C_R   0.585334 0.603353 0.855795 0.103363
C17   C     C_R   0.532484 0.554814 0.157344 0.057138
C18   C     C_R   0.466990 0.445920 0.842952 0.100701
C19   C     C_R   0.530456 0.544395 0.034361 0.120523
C20   C     C_R   0.468381 0.457367 0.965811 0.148174
C21   C     C_R   0.261565 0.487862 0.501543 0.781470
C22   C     C_R   0.738302 0.512537 0.498532 0.845581
C23   C     C_R   0.106806 0.502669 0.723946 0.056650
C24   C     C_R   0.892137 0.498842 0.275924 0.048431
C25   C     C_R   0.059337 0.569239 0.822844 0.039055
C26   C     C_R   0.939163 0.431704 0.177468 -0.025722
C27   C     C_R   0.955495 0.627527 0.808335 -0.284925
C28   C     C_R   0.043173 0.373717 0.192070 -0.219514
C29   C     C_R   0.895423 0.616233 0.699918 -0.106814
C30   C     C_R   0.103503 0.385263 0.300375 -0.138249
C31   C     C_R   0.943405 0.552237 0.601266 0.072928
C32   C     C_R   0.056251 0.449882 0.398892 0.069128
C33   C     C_R   0.061445 0.510847 0.610405 -0.053404
C34   C     C_R   0.938537 0.491804 0.389743 0.035193
C35   C     C_R   0.875255 0.528183 0.494357 -0.139194
C36   C     C_R   0.124453 0.473361 0.505870 -0.225398
Cu1   Cu    Cu3+1 0.509250 0.507730 0.615930 0.946878
Cu2   Cu    Cu3+1 0.490750 0.492270 0.384070 0.970421
H1    H     H_    0.080632 0.322111 0.118210 0.147430
H2    H     H_    0.917853 0.679177 0.882159 0.134054
H3    H     H_    0.353315 0.320582 0.971107 0.161520
H4    H     H_    0.639330 0.685260 0.028425 0.122483
H5    H     H_    0.812859 0.660049 0.692608 0.140464
H6    H     H_    0.185574 0.341042 0.307810 0.124922
H7    H     H_    0.512254 0.811975 0.355078 0.160862
H8    H     H_    0.488609 0.189557 0.651260 0.157257
H9    H     H_    0.486384 0.956406 0.263345 0.128699
H10   H     H_    0.459434 0.039409 0.741274 0.131633
H11   H     H_    0.419953 0.378976 0.789631 0.112733
H12   H     H_    0.578836 0.621912 0.210918 0.125619
H13   H     H_    0.631415 0.660037 0.813285 0.103374
H14   H     H_    0.360840 0.345319 0.185989 0.109941
N1    N     N_R   0.523180 0.519350 0.790130 -0.189439
N2    N     N_R   0.476820 0.480650 0.209870 -0.182580
O1    O     O_R   0.506570 0.354460 0.582000 -0.591283
O2    O     O_R   0.493430 0.645540 0.418000 -0.573540
O3    O     O_R   0.490940 0.341410 0.386200 -0.604954
O4    O     O_R   0.509060 0.658590 0.613800 -0.616394
O5    O     O_R   0.327470 0.506520 0.597900 -0.594663
O6    O     O_R   0.672530 0.493480 0.402100 -0.551346
O7    O     O_R   0.311840 0.493460 0.402100 -0.567686
O8    O     O_R   0.688160 0.506540 0.597900 -0.581406
C37   C     C_2   0.172708 0.406708 0.737712 0.392291
H15   H     H_    0.214585 0.358841 0.663420 0.050845
O9    O     O_2   0.172052 0.374600 0.829642 -0.577497
C38   C     C_2   0.823817 0.592360 0.257328 0.362142
H16   H     H_    0.797159 0.602377 0.170146 0.090978
O10   O     O_2   0.803782 0.663363 0.338281 -0.577577
C39   C     C_2   0.115513 0.582186 0.941990 0.384472
H17   H     H_    0.060241 0.610583 0.017453 0.046187
O11   O     O_2   0.225137 0.566770 0.957189 -0.535550
C40   C     C_2   0.884206 0.419511 0.057869 0.282033
H18   H     H_    0.941024 0.393546 0.982816 0.125592
O12   O     O_2   0.774111 0.432422 0.041645 -0.573086
C41   C     C_3   0.424920 0.830612 0.753072 -0.357667
C42   C     C_3   0.356818 0.900418 0.850357 -0.415421
C43   C     C_3   0.304759 0.835806 0.936485 -0.803908
H19   H     H_    0.239253 0.773648 0.890618 0.267605
H20   H     H_    0.381318 0.799570 0.978350 0.260309
H21   H     H_    0.253190 0.885739 0.005548 0.238089
H22   H     H_    0.422454 0.961384 0.898188 0.226082
H23   H     H_    0.278775 0.937976 0.812160 0.234272
H24   H     H_    0.359307 0.763893 0.719916 0.228985
H25   H     H_    0.509034 0.802004 0.791742 0.199256
C44   C     C_3   0.422371 0.155271 0.245603 -0.375212
C45   C     C_3   0.356712 0.073213 0.150293 -0.385797
C46   C     C_3   0.294919 0.123927 0.056870 -0.866758
H26   H     H_    0.236119 0.188535 0.097010 0.247691
H27   H     H_    0.367212 0.153463 0.003776 0.247090
H28   H     H_    0.234121 0.066085 0.998266 0.254231
H29   H     H_    0.425096 0.017818 0.107149 0.223552
H30   H     H_    0.284243 0.029689 0.190232 0.231565
H31   H     H_    0.350322 0.212027 0.276320 0.193409
H32   H     H_    0.500484 0.194007 0.207532 0.218853

loop_
_geom_bond_atom_site_label_1
_geom_bond_atom_site_label_2
_ccdc_geom_bond_type
C38   O10   D    
C46   H26   S    
C37   O9    D    
C27   C29   A    
C26   C40   S    
C19   C20   A    
C16   H13   S    
C13   H3    S    
Cu1   O8    S    
C21   C36   S    
C43   H19   S    
C22   C35   S    
C5    H9    S    
C6    H10   S    
C32   C36   A    
C24   C26   A    
C21   O5    A    
C45   H29   S    
C22   O6    A    
C41   H25   S    
C33   C36   A    
C18   C20   A    
C34   C35   A    
C39   O11   D    
C16   N1    A    
C18   N1    A    
C44   H31   S    
C23   C33   A    
C31   C33   A    
C21   O7    A    
Cu1   O4    S    
C24   C38   S    
C14   H4    S    
Cu2   O7    S    
Cu1   N1    S    
C23   C37   S    
C38   H16   S    
C9    H8    S    
C29   H5    S    
C30   H6    S    
C4    C7    A    
C43   H20   S    
C15   N2    A    
C42   C43   S    
C5    C12   A    
C40   O12   D    
C3    C8    A    
C42   H23   S    
C6    C11   A    
C5    C7    A    
C45   C46   S    
C6    C8    A    
C28   H1    S    
C44   C45   S    
C8    C41   S    
C24   C34   A    
C32   C34   A    
C17   H12   S    
C41   C42   S    
Cu1   Cu2   S    
C1    O3    A    
C22   O8    A    
Cu2   O3    S    
C44   H32   S    
Cu2   N2    S    
C27   H2    S    
C10   H7    S    
C15   H14   S    
C9    C11   A    
Cu1   O5    S    
C10   C12   A    
Cu2   O6    S    
C13   C15   A    
C14   C16   A    
C25   C39   S    
C43   H21   S    
C13   C20   A    
C14   C19   A    
C40   H18   S    
C42   H22   S    
C11   C12   A    
C2    O4    A    
C25   C27   A    
C26   C28   A    
C1    C4    S    
C28   C30   A    
C2    C3    S    
C1    O1    A    
C29   C31   A    
C3    C10   A    
C45   H30   S    
C30   C32   A    
C41   H24   S    
C7    C44   S    
C17   C19   A    
C31   C35   A    
C23   C25   A    
C39   H17   S    
C37   H15   S    
Cu1   O1    S    
Cu2   O2    S    
C46   H28   S    
C46   H27   S    
C2    O2    A    
C4    C9    A    
C17   N2    A    
C18   H11   S    
