data_str_m3_o12_o17_f0_pcu.sym.27
_audit_creation_date              2012-12-10T17:18:18-0500
_audit_creation_method            fapswitch 2.2
_symmetry_space_group_name_H-M    P1
_symmetry_Int_Tables_number       1
_space_group_crystal_system       triclinic
_cell_length_a                    10.242039
_cell_length_b                    10.609466
_cell_length_c                    14.831087
_cell_angle_alpha                 91.525885
_cell_angle_beta                  81.277616
_cell_angle_gamma                 95.904214
_cell_volume                      1584.39565411

loop_
_atom_site_label
_atom_site_type_symbol
_atom_type_description
_atom_site_fract_x
_atom_site_fract_y
_atom_site_fract_z
_atom_type_partial_charge
C1    C     C_R   0.555830 0.733119 0.489501 0.937892
C2    C     C_2   0.072731 0.490752 0.490003 -0.049767
C3    C     C_R   0.500081 0.500627 0.672585 0.888833
C4    C     C_R   0.499910 0.499509 0.327467 0.874184
C5    C     C_R   0.461649 0.388384 0.188984 -0.259138
C6    C     C_R   0.534219 0.613391 0.811526 -0.274118
C7    C     C_R   0.499910 0.500280 0.232326 -0.036014
C8    C     C_R   0.498957 0.500624 0.767971 -0.041498
C9    C     C_R   0.534058 0.613837 0.186354 -0.274514
C10   C     C_R   0.456046 0.389124 0.815107 -0.271937
C11   C     C_R   0.529171 0.617706 0.093220 0.075469
C12   C     C_R   0.444019 0.266608 0.501694 0.935209
C13   C     C_R   0.448387 0.388268 0.909577 0.071489
C14   C     C_R   0.491509 0.503013 0.047962 0.037306
C15   C     C_R   0.490365 0.501999 0.954287 0.044578
C16   C     C_R   0.455473 0.388917 0.096611 0.108171
C17   C     C_R   0.531709 0.614865 0.904986 0.115314
C18   C     C_R   0.562915 0.731812 0.043943 0.004043
C19   C     C_R   0.402511 0.276979 0.960222 -0.006007
C20   C     C_R   0.588902 0.856735 0.088832 0.122034
C21   C     C_R   0.490448 0.903870 0.153797 -0.175314
C22   C     C_R   0.514528 0.021907 0.195583 -0.156299
C23   C     C_R   0.567903 0.727912 0.949463 -0.309483
C24   C     C_R   0.636173 0.094513 0.172016 -0.102948
C25   C     C_R   0.733696 0.049408 0.106334 -0.132403
C26   C     C_R   0.710232 0.931119 0.064622 -0.168865
C27   C     C_R   0.338531 0.161381 0.919785 0.124783
C28   C     C_R   0.225820 0.168684 0.877197 -0.169472
C29   C     C_R   0.163040 0.059724 0.841130 -0.145763
C30   C     C_R   0.211020 0.942423 0.848284 -0.103761
C31   C     C_R   0.321603 0.933860 0.891739 -0.143743
C32   C     C_R   0.385263 0.042704 0.927590 -0.164265
C33   C     C_R   0.114820 0.392660 0.422153 0.226690
C34   C     C_R   0.410542 0.277886 0.053253 -0.275454
C35   C     C_R   0.110126 0.266158 0.449120 -0.142932
C36   C     C_R   0.131192 0.170084 0.383667 -0.176954
C37   C     C_R   0.151916 0.198956 0.290906 -0.142343
C38   C     C_R   0.150700 0.323776 0.263507 -0.160392
C39   C     C_R   0.132340 0.420409 0.328751 -0.135414
C40   C     C_R   0.894991 0.635666 0.552153 0.225242
C41   C     C_R   0.857511 0.631783 0.647189 -0.132015
C42   C     C_R   0.841313 0.744040 0.697383 -0.189119
C43   C     C_R   0.863620 0.860719 0.653245 -0.121715
C44   C     C_R   0.904087 0.865500 0.558973 -0.178500
C45   C     C_2   0.586580 0.865925 0.468387 -0.357008
C46   C     C_R   0.920914 0.753494 0.508578 -0.146180
C47   C     C_2   0.412383 0.132339 0.488866 -0.366270
C48   C     C_2   0.488603 0.930282 0.450104 -0.155839
C49   C     C_2   0.508201 0.065609 0.447456 -0.166915
C50   C     C_2   0.930964 0.519924 0.500774 -0.049010
H1    H     H_    0.435011 0.301864 0.227792 0.136843
H2    H     H_    0.686144 0.911708 0.469682 0.156446
H3    H     H_    0.125186 0.618297 0.584236 0.167541
H4    H     H_    0.869563 0.367718 0.428738 0.167167
H5    H     H_    0.395297 0.849048 0.172094 0.132395
H6    H     H_    0.438696 0.057233 0.246013 0.135760
H7    H     H_    0.654765 0.185843 0.204445 0.133285
H8    H     H_    0.827634 0.106032 0.087841 0.132518
H9    H     H_    0.786772 0.897135 0.014005 0.129944
H10   H     H_    0.186403 0.258739 0.872242 0.134380
H11   H     H_    0.076759 0.066127 0.808049 0.125421
H12   H     H_    0.562946 0.699453 0.772425 0.139268
H13   H     H_    0.162095 0.858047 0.820573 0.128841
H14   H     H_    0.357373 0.842607 0.897773 0.146142
H15   H     H_    0.470849 0.034627 0.961141 0.146288
H16   H     H_    0.088936 0.241961 0.520710 0.123868
H17   H     H_    0.129331 0.072979 0.404824 0.126901
H18   H     H_    0.167246 0.124462 0.240259 0.128297
H19   H     H_    0.163789 0.345673 0.191648 0.148315
H20   H     H_    0.129321 0.516432 0.306671 0.125432
H21   H     H_    0.844031 0.542263 0.682515 0.138179
H22   H     H_    0.813339 0.740748 0.770704 0.140200
H23   H     H_    0.565275 0.697635 0.224004 0.149723
H24   H     H_    0.851398 0.947494 0.692266 0.125945
H25   H     H_    0.923565 0.956060 0.525061 0.125733
H26   H     H_    0.955309 0.758462 0.435879 0.118279
H27   H     H_    0.430333 0.303878 0.777098 0.146630
H28   H     H_    0.596522 0.814295 0.910720 0.146277
H29   H     H_    0.377196 0.192814 0.092658 0.157030
H30   H     H_    0.607078 0.109699 0.421770 0.187223
H31   H     H_    0.388440 0.885365 0.448888 0.184791
H32   H     H_    0.314036 0.087656 0.514949 0.147335
N1    N     N_2   0.842700 0.448880 0.462930 -0.218165
N2    N     N_2   0.157300 0.551120 0.537070 -0.219741
O1    O     O_R   0.431060 0.692470 0.507460 -0.613853
O2    O     O_R   0.568940 0.307530 0.492540 -0.614221
O3    O     O_R   0.651120 0.659650 0.483670 -0.598069
O4    O     O_R   0.348880 0.340350 0.516330 -0.607306
O5    O     O_R   0.389960 0.516440 0.644050 -0.610325
O6    O     O_R   0.610040 0.483560 0.355950 -0.616622
O7    O     O_R   0.610030 0.483620 0.620260 -0.610459
O8    O     O_R   0.389970 0.516380 0.379740 -0.608628
Zn1   Zn    Zn3+2 0.353060 0.521920 0.515880 0.936943
Zn2   Zn    Zn3+2 0.646940 0.478080 0.484120 0.938176

loop_
_geom_bond_atom_site_label_1
_geom_bond_atom_site_label_2
_ccdc_geom_bond_type
C1    O3    A    
C37   H18   S    
C11   C18   A    
C41   C42   A    
C2    N2    D    
C35   C36   A    
C46   H26   S    
C36   H17   S    
C47   C49   D    
C40   C46   A    
C28   C29   A    
C29   C30   A    
H3    N2    S    
C36   C37   A    
C4    C7    S    
C30   C31   A    
C11   C14   A    
O3    Zn2   S    
C48   H31   S    
C3    O7    A    
C47   H32   S    
C5    C16   A    
O2    Zn2   S    
C16   C34   A    
O1    Zn1   S    
C24   H7    S    
C19   C27   S    
C26   H9    S    
C18   C20   S    
C41   H21   S    
C43   H24   S    
C38   H19   S    
C30   H13   S    
C9    H23   S    
C12   C47   S    
H4    N1    S    
C10   H27   S    
C44   C46   A    
C50   N1    D    
O6    Zn2   S    
C4    O6    A    
C28   H10   S    
C1    O1    A    
C29   H11   S    
C13   C19   A    
C18   C23   A    
C24   C25   A    
C3    C8    S    
C21   H5    S    
C12   O4    A    
C6    C8    A    
C45   H2    S    
C25   C26   A    
N1    Zn2   S    
C19   C34   A    
C44   H25   S    
C43   C44   A    
C37   C38   A    
C34   H29   S    
C31   C32   A    
C17   C23   A    
C42   H22   S    
C33   C39   A    
C9    C11   A    
C2    C33   S    
C40   C41   A    
C13   C15   A    
C2    C50   S    
C14   C16   A    
C42   C43   A    
C5    C7    A    
C45   C48   D    
C15   C17   A    
C6    C17   A    
O4    Zn1   S    
C48   C49   S    
C27   C32   A    
C31   H14   S    
C10   C13   A    
C22   H6    S    
C35   H16   S    
C49   H30   S    
C12   O2    A    
C3    O5    A    
C6    H12   S    
O7    Zn2   S    
C1    C45   S    
C38   C39   A    
C20   C26   A    
C40   C50   S    
O8    Zn1   S    
C33   C35   A    
C39   H20   S    
C22   C24   A    
N2    Zn1   S    
C23   H28   S    
O5    Zn1   S    
C7    C9    A    
C20   C21   A    
C8    C10   A    
C25   H8    S    
C27   C28   A    
C14   C15   A    
C5    H1    S    
C21   C22   A    
C32   H15   S    
C4    O8    A    
