data_str_m9_o11_o16_f0_sra.sym.186
_audit_creation_date              2012-12-11T14:17:36-0500
_audit_creation_method            fapswitch 2.2
_symmetry_space_group_name_H-M    P1
_symmetry_Int_Tables_number       1
_space_group_crystal_system       triclinic
_cell_length_a                    6.94616
_cell_length_b                    13.742572
_cell_length_c                    20.491828
_cell_angle_alpha                 102.578799
_cell_angle_beta                  91.601973
_cell_angle_gamma                 89.366593
_cell_volume                      1908.38840625

loop_
_atom_site_label
_atom_site_type_symbol
_atom_type_description
_atom_site_fract_x
_atom_site_fract_y
_atom_site_fract_z
_atom_type_partial_charge
O1    O     O_R   0.506860 0.599390 0.449240 -0.543262
O2    O     O_R   0.180220 0.594600 0.586780 -0.537279
O3    O     O_R   0.004500 0.400610 0.550760 -0.525288
C1    C     C_R   0.350098 0.613730 0.614067 0.784457
O4    O     O_R   0.177490 0.611290 0.451970 -0.547792
O5    O     O_R   0.001750 0.417420 0.414990 -0.545527
C2    C     C_R   0.343170 0.636627 0.434758 0.687685
O6    O     O_R   0.509610 0.582580 0.585010 -0.538037
O7    O     O_3   0.337420 0.436370 0.488020 -0.378771
V1    V     V_3+5 0.064680 0.511800 0.502220 1.483278
O8    O     O_R   0.671710 0.405400 0.413220 -0.552505
C3    C     C_R   0.838864 0.384548 0.386354 0.714077
O9    O     O_R   0.674440 0.388710 0.548030 -0.538765
C4    C     C_R   0.845643 0.364045 0.565976 0.794813
V2    V     V_3+5 0.564010 0.488200 0.497780 1.477185
O10   O     O_3   0.841140 0.563630 0.511980 -0.378943
C5    C     C_R   0.991109 0.132624 0.621294 -0.120763
H1    H     H_    0.107939 0.026033 0.708097 0.179123
C6    C     C_R   0.864794 0.292587 0.609465 -0.140505
C7    C     C_R   0.712616 0.292514 0.922554 -0.159573
C8    C     C_R   0.620991 0.346806 0.881044 -0.104928
C9    C     C_R   0.663204 0.328104 0.813612 -0.009458
C10   C     C_R   0.813045 0.262300 0.787440 0.110045
C11   C     C_R   0.891495 0.198978 0.828233 0.047319
C12   C     C_R   0.869270 0.249064 0.719531 -0.045771
C13   C     C_R   0.962962 0.158144 0.690203 0.080241
C14   C     C_R   0.030750 0.093724 0.729995 -0.073828
C15   C     C_R   0.003925 0.116292 0.798514 -0.166290
C16   C     C_R   0.841277 0.322165 0.679653 0.355764
C17   C     C_R   0.935826 0.197774 0.581107 -0.234145
C18   C     C_R   0.840031 0.214875 0.896315 -0.074391
H2    H     H_    0.572810 0.363231 0.781910 0.182447
H3    H     H_    0.509826 0.400261 0.900528 0.133155
H4    H     H_    0.062982 0.064975 0.827102 0.143442
C19   C     C_2   0.003587 0.292070 0.284861 -0.139171
C20   C     C_2   0.840482 0.317447 0.319068 -0.268832
H5    H     H_    0.702281 0.289335 0.297908 0.146009
C21   C     C_2   0.013641 0.224708 0.217127 -0.158724
C22   C     C_2   0.859592 0.187683 0.178721 -0.206117
H6    H     H_    0.156664 0.205639 0.198444 0.173108
C23   C     C_2   0.226250 0.770797 0.788014 -0.221521
C24   C     C_2   0.357176 0.842058 0.813081 0.272606
H7    H     H_    0.120500 0.751636 0.821165 0.146834
C25   C     C_2   0.211686 0.716851 0.716986 0.007828
C26   C     C_2   0.364968 0.673572 0.683207 -0.149617
H8    H     H_    0.068727 0.707278 0.693999 0.163632
H9    H     H_    0.505739 0.679160 0.707947 0.199417
C27   C     C_R   0.262416 0.883026 0.390285 -0.114370
H10   H     H_    0.263792 0.830039 0.481068 0.122123
H11   H     H_    0.271800 0.011068 0.313880 0.155214
H12   H     H_    0.227951 0.958638 0.415810 0.118676
C28   C     C_R   0.339408 0.713927 0.396404 -0.032337
C29   C     C_R   0.379708 0.692841 0.076300 -0.168001
C30   C     C_R   0.370012 0.616301 0.110328 -0.100887
C31   C     C_R   0.351193 0.637508 0.179300 -0.127601
C32   C     C_R   0.345015 0.736995 0.216572 0.041302
C33   C     C_R   0.355488 0.816736 0.181947 -0.033784
C34   C     C_R   0.330008 0.759569 0.287597 0.070131
C35   C     C_R   0.288575 0.858768 0.321014 0.074833
C36   C     C_R   0.289927 0.934827 0.286391 -0.219268
C37   C     C_R   0.351370 0.916412 0.220812 0.384174
C38   C     C_R   0.359010 0.687831 0.327002 -0.199309
C39   C     C_R   0.286041 0.810633 0.427649 -0.155177
C40   C     C_R   0.370222 0.792561 0.110538 -0.078213
H13   H     H_    0.398541 0.611677 0.305464 0.091488
H14   H     H_    0.391358 0.674050 0.022353 0.107387
H15   H     H_    0.336460 0.574311 0.202025 0.100342
H16   H     H_    0.374268 0.539548 0.082813 0.114665
O11   O     O_R   0.203230 0.917310 0.915020 -0.560049
O12   O     O_R   0.535500 0.888690 0.048040 -0.514569
O13   O     O_R   0.711080 0.082610 0.085000 -0.493051
C41   C     C_R   0.370165 0.867181 0.068797 0.820710
O14   O     O_R   0.532630 0.905370 0.913230 -0.534635
O15   O     O_R   0.708190 0.099410 0.949230 -0.548904
C42   C     C_R   0.363376 0.889454 0.885163 0.627546
O16   O     O_R   0.206120 0.900510 0.050790 -0.540270
O17   O     O_3   0.375360 0.063570 0.011990 -0.359916
V3    V     V_3+5 0.648170 0.988200 0.997780 1.592413
O18   O     O_R   0.038240 0.111390 0.951940 -0.553060
C43   C     C_R   0.866375 0.137447 0.935148 0.631587
O19   O     O_R   0.041120 0.094710 0.086750 -0.533547
C44   C     C_R   0.873148 0.117741 0.112775 0.812336
V4    V     V_3+5 0.148810 0.011930 0.002180 1.523845
O20   O     O_3   0.871750 0.936430 0.988010 -0.378486
H17   H     H_    0.959808 0.176469 0.527834 0.129101
H18   H     H_    0.715533 0.208172 0.195565 0.169210
S1    S     S_3+6 0.512296 0.893081 0.761570 -0.021515
O21   O     O_2   0.699898 0.836542 0.754505 -0.361871
O22   O     O_2   0.422872 0.888243 0.693305 -0.333860
O23   O     O_3   0.555195 0.013260 0.797132 -0.503621
H19   H     H_    0.677309 0.012180 0.822882 0.340318
S2    S     S_3+6 0.491012 0.012837 0.202743 -0.052242
O24   O     O_2   0.678652 0.968468 0.175586 -0.335332
O25   O     O_2   0.387808 0.061080 0.152729 -0.376199
O26   O     O_3   0.539267 0.100260 0.272566 -0.518404
H20   H     H_    0.431754 0.148900 0.275761 0.313735
H21   H     H_    0.057128 0.062045 0.598383 0.136547
S3    S     S_3+6 0.821539 0.452949 0.716433 -0.030975
O27   O     O_2   0.613708 0.484259 0.714285 -0.381118
O28   O     O_2   0.896512 0.476673 0.787610 -0.319431
O29   O     O_3   0.950195 0.520741 0.674507 -0.501453
H22   H     H_    0.856176 0.565844 0.658770 0.344967
H23   H     H_    0.669054 0.304283 0.974091 0.105381
H24   H     H_    0.140303 0.320763 0.307717 0.130762

loop_
_geom_bond_atom_site_label_1
_geom_bond_atom_site_label_2
_ccdc_geom_bond_type
C34   C38   A    
C21   H6    S    
S1    O21   D    
O29   H22   S    
H10   C39   S    
O12   V3    S    
O14   C42   A    
C23   C24   D    
O26   H20   S    
C41   O16   A    
O19   C44   A    
C18   C43   S    
C7    H23   S    
C29   C30   A    
C13   C14   A    
C9    H2    S    
C16   S3    S    
C27   C35   A    
C5    C13   A    
C20   H5    S    
C2    C28   S    
O5    C3    A    
C21   C22   D    
C29   C40   A    
C8    H3    S    
O17   V4    S    
V2    O10   S    
C32   C33   A    
O8    V2    S    
C27   H12   S    
C19   C20   D    
C10   C11   A    
O1    V2    S    
C3    C20   S    
O7    V1    S    
C37   S2    S    
C1    O6    A    
O13   C44   A    
C10   C12   A    
C15   H4    S    
C35   C36   A    
O15   C43   A    
C8    C9    A    
C5    C17   A    
C23   H7    S    
O16   V4    S    
O19   V4    S    
C25   H8    S    
C1    C26   S    
C26   H9    S    
C12   C16   A    
O12   C41   A    
C19   C21   S    
C19   H24   S    
O4    C2    A    
C27   C39   A    
C12   C13   A    
O17   V3    S    
S2    O26   S    
C36   C37   A    
O2    C1    A    
O11   V4    S    
V4    O20   S    
O14   V3    S    
C31   C32   A    
S2    O25   D    
C24   C42   S    
C17   H17   S    
C29   H14   S    
O3    C4    A    
O6    V2    S    
S3    O28   D    
O9    V2    S    
C23   C25   S    
O2    V1    S    
C25   C26   D    
C33   C40   A    
C30   C31   A    
C38   H13   S    
O1    C2    A    
C4    C6    S    
H1    C14   S    
C11   C15   A    
C22   C44   S    
C28   C39   A    
O5    V1    S    
C31   H15   S    
O8    C3    A    
C33   C37   A    
S3    O29   S    
H11   C36   S    
S1    O22   D    
C34   C35   A    
C11   C18   A    
O4    V1    S    
O3    V1    S    
C28   C38   A    
O18   V4    S    
O23   H19   S    
S2    O24   D    
C32   C34   A    
O11   C42   A    
C40   C41   S    
O7    V2    S    
O18   C43   A    
V3    O20   S    
C30   H16   S    
C7    C8    A    
S3    O27   D    
O15   V3    S    
S1    O23   S    
C14   C15   A    
C9    C10   A    
V1    O10   S    
C24   S1    S    
C22   H18   S    
O9    C4    A    
C6    C17   A    
C5    H21   S    
O13   V3    S    
C7    C18   A    
C6    C16   A    
