data_str_m2_o18_o18_f0_pcu.sym.150
_audit_creation_date              2013-03-05T16:00:02-0500
_audit_creation_method            fapswitch 2.2
_symmetry_space_group_name_H-M    P1
_symmetry_Int_Tables_number       1
_space_group_crystal_system       triclinic
_cell_length_a                    20.542032
_cell_length_b                    21.427789
_cell_length_c                    14.746217
_cell_angle_alpha                 90.23783
_cell_angle_beta                  127.70181
_cell_angle_gamma                 90.157729
_cell_volume                      5135.42653648

loop_
_atom_site_label
_atom_site_type_symbol
_atom_site_description
_atom_site_fract_x
_atom_site_fract_y
_atom_site_fract_z
_atom_type_partial_charge
O1    O     O_R   0.600040 0.935040 0.546740 -0.539644
O2    O     O_R   0.399960 0.064960 0.453260 -0.547796
O3    O     O_R   0.399960 0.935040 0.453260 -0.549927
O4    O     O_R   0.600040 0.064960 0.546740 -0.551392
O5    O     O_R   0.100040 0.435040 0.546740 -0.547885
O6    O     O_R   0.899960 0.564960 0.453260 -0.548762
O7    O     O_R   0.899960 0.435040 0.453260 -0.539456
O8    O     O_R   0.100040 0.564960 0.546740 -0.545349
O9    O     O_R   0.555010 0.935070 0.653220 -0.556196
O10   O     O_R   0.444990 0.064930 0.346780 -0.559279
O11   O     O_R   0.444990 0.935070 0.346780 -0.556363
O12   O     O_R   0.555010 0.064930 0.653220 -0.551697
O13   O     O_R   0.055010 0.435070 0.653220 -0.557913
O14   O     O_R   0.944990 0.564930 0.346780 -0.551930
O15   O     O_R   0.944990 0.435070 0.346780 -0.585692
O16   O     O_R   0.055010 0.564930 0.653220 -0.555597
C1    C     C_R   0.601611 0.912480 0.629314 0.887145
C2    C     C_R   0.397645 0.086910 0.369752 0.864288
C3    C     C_R   0.397512 0.913105 0.369717 0.863622
C4    C     C_R   0.603670 0.086441 0.632343 0.889886
C5    C     C_R   0.102321 0.413055 0.630214 0.877555
C6    C     C_R   0.898456 0.587563 0.370762 0.865824
C7    C     C_R   0.895772 0.414129 0.367182 0.878349
C8    C     C_R   0.102592 0.586810 0.630404 0.866984
Cu1   Cu    Cu3+1 0.526640 0.000000 0.436960 1.091764
Cu2   Cu    Cu3+1 0.473360 0.000000 0.563040 1.095998
Cu3   Cu    Cu3+1 0.026640 0.500000 0.436960 1.074860
Cu4   Cu    Cu3+1 0.973360 0.500000 0.563040 1.091602
C9    C     C_R   0.664723 0.136037 0.708181 -0.259116
C10   C     C_R   0.334543 0.866209 0.292230 -0.236953
C11   C     C_R   0.335017 0.133651 0.291961 -0.241784
C12   C     C_R   0.662559 0.864161 0.704851 -0.243882
C13   C     C_R   0.165774 0.633520 0.708102 -0.239475
C14   C     C_R   0.826396 0.373307 0.279902 -0.226004
C15   C     C_R   0.837629 0.635968 0.295354 -0.242064
C16   C     C_R   0.164859 0.366234 0.707970 -0.238257
C17   C     C_R   0.798754 0.184726 0.800089 -0.196201
C18   C     C_R   0.188456 0.844810 0.162687 -0.209738
C19   C     C_R   0.189612 0.156842 0.165911 -0.208874
C20   C     C_R   0.806331 0.835922 0.823331 -0.202915
C21   C     C_R   0.311922 0.654711 0.837746 -0.212890
C22   C     C_R   0.677839 0.364335 0.139372 -0.205157
C23   C     C_R   0.693910 0.664321 0.177082 -0.209522
C24   C     C_R   0.310255 0.342988 0.834075 -0.210163
C25   C     C_R   0.740090 0.140314 0.724648 0.312732
C26   C     C_R   0.256356 0.867599 0.267855 0.301517
C27   C     C_R   0.257454 0.133354 0.269519 0.295592
C28   C     C_R   0.737919 0.860259 0.721167 0.319869
C29   C     C_R   0.244026 0.631820 0.732687 0.298753
C30   C     C_R   0.746647 0.384244 0.246863 0.293092
C31   C     C_R   0.762384 0.640057 0.279301 0.302069
C32   C     C_R   0.242386 0.366317 0.730296 0.303676
C33   C     C_R   0.649258 0.177875 0.768179 0.247592
C34   C     C_R   0.346989 0.828434 0.225404 0.238840
C35   C     C_R   0.347057 0.170525 0.223676 0.243218
C36   C     C_R   0.651696 0.829288 0.776312 0.242888
C37   C     C_R   0.153379 0.671444 0.774825 0.235951
C38   C     C_R   0.835653 0.333167 0.211970 0.206775
C39   C     C_R   0.848437 0.670732 0.223743 0.241198
C40   C     C_R   0.152815 0.329522 0.776415 0.248929
C41   C     C_R   0.710002 0.222953 0.846145 -0.011527
C42   C     C_R   0.278631 0.798209 0.126037 -0.010915
C43   C     C_R   0.279013 0.201512 0.125924 -0.013419
C44   C     C_R   0.719534 0.797073 0.872081 -0.008767
C45   C     C_R   0.221778 0.701664 0.874164 -0.014167
C46   C     C_R   0.765831 0.319653 0.097247 -0.012917
C47   C     C_R   0.780604 0.702978 0.128049 -0.012982
C48   C     C_R   0.220845 0.298583 0.874248 -0.009427
C49   C     C_R   0.786254 0.223469 0.864342 0.044000
C50   C     C_R   0.198912 0.814277 0.088929 0.032619
C51   C     C_R   0.199442 0.186977 0.091424 0.031170
C52   C     C_R   0.798347 0.808408 0.901534 0.032427
C53   C     C_R   0.301485 0.685492 0.911330 0.031949
C54   C     C_R   0.686648 0.334162 0.063526 0.042646
C55   C     C_R   0.701821 0.691707 0.098711 0.031755
C56   C     C_R   0.300419 0.313072 0.908725 0.034068
C57   C     C_R   0.700618 0.264700 0.913340 0.088254
C58   C     C_R   0.285598 0.756651 0.056953 0.082898
C59   C     C_R   0.285770 0.242669 0.056112 0.082603
C60   C     C_R   0.713665 0.757867 0.944890 0.086541
C61   C     C_R   0.214846 0.743291 0.943208 0.081048
C62   C     C_R   0.771867 0.291276 0.015092 0.107099
C63   C     C_R   0.786460 0.742170 0.055229 0.083628
C64   C     C_R   0.214069 0.257490 0.944111 0.085969
C65   C     C_R   0.360060 0.726762 0.098310 -0.073414
C66   C     C_R   0.623284 0.283627 0.880390 -0.079430
C67   C     C_R   0.638203 0.732352 0.910396 -0.075042
C68   C     C_R   0.360970 0.270940 0.095199 -0.077203
C69   C     C_R   0.845249 0.292861 0.027017 -0.109333
C70   C     C_R   0.140397 0.773206 0.901856 -0.075143
C71   C     C_R   0.138858 0.229250 0.905038 -0.073856
C72   C     C_R   0.861926 0.767691 0.089779 -0.073963
C73   C     C_R   0.369690 0.696874 0.023998 -0.134554
C74   C     C_R   0.616516 0.317945 0.954246 -0.131232
C75   C     C_R   0.631410 0.705044 0.989128 -0.134845
C76   C     C_R   0.369524 0.300540 0.019828 -0.130688
C77   C     C_R   0.851359 0.260940 0.950457 -0.133665
C78   C     C_R   0.130729 0.802984 0.976215 -0.129937
C79   C     C_R   0.130318 0.199610 0.980385 -0.143038
C80   C     C_R   0.868740 0.795049 0.011115 -0.126292
H1    H     H_    0.429789 0.679262 0.056570 0.163334
H2    H     H_    0.555838 0.331055 0.926189 0.160709
H3    H     H_    0.571127 0.691030 0.962126 0.160428
H4    H     H_    0.429931 0.316872 0.050564 0.161562
H5    H     H_    0.909081 0.262789 0.962843 0.155686
H6    H     H_    0.070621 0.820556 0.943678 0.163131
H7    H     H_    0.069904 0.183286 0.949632 0.162536
H8    H     H_    0.929031 0.809092 0.038181 0.160971
H9    H     H_    0.373213 0.647501 0.862950 0.186709
H10   H     H_    0.616918 0.373212 0.114435 0.183616
H11   H     H_    0.634012 0.661459 0.158238 0.188951
H12   H     H_    0.371219 0.348868 0.857235 0.183563
H13   H     H_    0.857390 0.185712 0.814903 0.183047
H14   H     H_    0.127168 0.851831 0.137597 0.187700
H15   H     H_    0.128649 0.150822 0.142682 0.195819
H16   H     H_    0.866266 0.838884 0.842305 0.187347
H17   H     H_    0.411938 0.725876 0.187937 0.205122
H18   H     H_    0.567316 0.275253 0.795355 0.204831
H19   H     H_    0.583315 0.732784 0.822779 0.205317
H20   H     H_    0.414304 0.270967 0.183945 0.203134
H21   H     H_    0.897844 0.320199 0.093684 0.166207
H22   H     H_    0.088544 0.774150 0.812221 0.203443
H23   H     H_    0.085506 0.229240 0.816306 0.206947
H24   H     H_    0.916803 0.767228 0.177409 0.204185
N1    N     N_R   0.433280 1.000000 0.657760 -0.206881
N2    N     N_R   0.566720 0.000000 0.342240 -0.205952
N3    N     N_R   0.933280 0.500000 0.657760 -0.204965
N4    N     N_R   0.066720 0.500000 0.342240 -0.201835
C81   C     C_R   0.320740 0.001218 0.665533 -0.167833
C82   C     C_R   0.679193 0.997732 0.334352 -0.173282
C83   C     C_R   0.820731 0.501765 0.665512 -0.177807
C84   C     C_R   0.179264 0.499063 0.334474 -0.174319
C85   C     C_R   0.351218 0.000036 0.603337 0.205102
C86   C     C_R   0.648717 0.998026 0.396544 0.179702
C87   C     C_R   0.851256 0.501412 0.603367 0.200688
C88   C     C_R   0.148763 0.498987 0.396651 0.206676
C89   C     C_R   0.488005 0.000456 0.774973 0.178429
C90   C     C_R   0.512018 0.001158 0.225039 0.176986
C91   C     C_R   0.987975 0.499582 0.774978 0.173908
C92   C     C_R   0.012000 0.500259 0.225026 0.121118
C93   C     C_R   0.461053 0.001698 0.844504 -0.025663
C94   C     C_R   0.539002 0.001429 0.155523 -0.023917
C95   C     C_R   0.961014 0.500912 0.844503 -0.026350
C96   C     C_R   0.038984 0.500789 0.155525 -0.031098
C97   C     C_R   0.374825 0.003310 0.786361 -0.007480
C98   C     C_R   0.625253 0.000535 0.213659 -0.004584
C99   C     C_R   0.874777 0.502431 0.786367 -0.006297
C100  C     C_R   0.125258 0.501170 0.213702 -0.002927
C101  C     C_R   0.516069 0.001326 0.968334 0.030785
C102  C     C_R   0.483992 0.002222 0.031697 0.030241
C103  C     C_R   0.016043 0.500757 0.968340 0.031747
C104  C     C_R   0.983953 0.500910 0.031690 0.024898
C105  C     C_R   0.397931 0.004461 0.969295 -0.200754
C106  C     C_R   0.602182 0.000474 0.030771 -0.187842
C107  C     C_R   0.897840 0.501811 0.969259 -0.233686
C108  C     C_R   0.102173 0.501306 0.030790 -0.204992
C109  C     C_R   0.343996 0.005828 0.849546 0.340701
C110  C     C_R   0.656179 0.001026 0.150545 0.336731
C111  C     C_R   0.843914 0.503532 0.849560 0.344822
C112  C     C_R   0.156164 0.502401 0.150572 0.339120
H25   H     H_    0.447920 0.001540 0.188352 0.130425
H26   H     H_    0.552085 0.999908 0.811610 0.136452
H27   H     H_    0.947902 0.499974 0.188356 0.125607
H28   H     H_    0.052043 0.498183 0.811652 0.130813
H29   H     H_    0.690839 0.996136 0.488925 0.207773
H30   H     H_    0.309040 0.999230 0.510760 0.197703
H31   H     H_    0.190903 0.497881 0.489195 0.197974
H32   H     H_    0.809142 0.502325 0.510855 0.199381
H33   H     H_    0.254705 0.999876 0.617869 0.219914
H34   H     H_    0.745077 0.994502 0.381901 0.219039
H35   H     H_    0.754679 0.501104 0.617723 0.218375
H36   H     H_    0.245225 0.496790 0.382093 0.217618
H37   H     H_    0.369951 0.006903 0.011489 0.172348
H38   H     H_    0.630310 0.000890 0.988698 0.177166
H39   H     H_    0.869741 0.502992 0.011359 0.169920
H40   H     H_    0.130258 0.502770 0.988686 0.172491
N5    N     N_R   0.426363 0.828793 0.249910 0.113219
O17   O     O_R   0.491406 0.812089 0.350436 -0.306184
O18   O     O_R   0.434718 0.851491 0.175761 -0.353997
N6    N     N_R   0.576226 0.169271 0.759250 0.110395
O19   O     O_R   0.581396 0.146989 0.845410 -0.350411
O20   O     O_R   0.504216 0.180177 0.662896 -0.319176
N7    N     N_R   0.575294 0.833951 0.759757 0.111609
O21   O     O_R   0.506623 0.817049 0.662547 -0.309168
O22   O     O_R   0.573607 0.859473 0.838564 -0.362484
N8    N     N_R   0.425397 0.168872 0.245289 0.112585
O23   O     O_R   0.431180 0.145296 0.168974 -0.361236
O24   O     O_R   0.491880 0.186053 0.344790 -0.332456
N9    N     N_R   0.909208 0.295909 0.266222 0.129906
O25   O     O_R   0.902321 0.236414 0.243464 -0.271778
O26   O     O_R   0.981312 0.317838 0.349769 -0.303474
N10   N     N_R   0.073992 0.671227 0.750277 0.113688
O27   O     O_R   0.065550 0.648563 0.824361 -0.353832
O28   O     O_R   0.009010 0.688019 0.649766 -0.307018
N11   N     N_R   0.074485 0.331273 0.754832 0.110086
O29   O     O_R   0.007976 0.314072 0.655375 -0.302550
O30   O     O_R   0.068745 0.354928 0.831140 -0.371202
N12   N     N_R   0.924747 0.665941 0.240065 0.113503
O31   O     O_R   0.926216 0.640495 0.161016 -0.359162
O32   O     O_R   0.993528 0.682756 0.337208 -0.307534
N13   N     N_R   0.244033 0.894937 0.345220 0.128543
O33   O     O_R   0.284715 0.873356 0.448843 -0.296517
O34   O     O_R   0.180315 0.929964 0.305830 -0.314526
N14   N     N_R   0.762424 0.095262 0.676053 0.131915
O35   O     O_R   0.765531 0.036537 0.700387 -0.351182
O36   O     O_R   0.796563 0.113571 0.629914 -0.305579
N15   N     N_R   0.747048 0.882754 0.637884 0.144341
O37   O     O_R   0.697650 0.862023 0.532917 -0.286189
O38   O     O_R   0.814434 0.911351 0.671233 -0.306213
N16   N     N_R   0.245442 0.106411 0.347223 0.132335
O39   O     O_R   0.181140 0.071573 0.307976 -0.301954
O40   O     O_R   0.287347 0.128095 0.451467 -0.287129
N17   N     N_R   0.734239 0.413695 0.322561 0.120195
O41   O     O_R   0.765165 0.388194 0.421097 -0.311333
O42   O     O_R   0.676560 0.455023 0.282818 -0.324280
N18   N     N_R   0.256466 0.603888 0.655829 0.129745
O43   O     O_R   0.319814 0.568320 0.695758 -0.317850
O44   O     O_R   0.216382 0.625311 0.552187 -0.289553
N19   N     N_R   0.254271 0.392679 0.652094 0.129101
O45   O     O_R   0.211788 0.370849 0.547888 -0.301304
O46   O     O_R   0.318987 0.426883 0.690833 -0.322459
N20   N     N_R   0.753480 0.617890 0.362979 0.137210
O47   O     O_R   0.685876 0.589874 0.330063 -0.308360
O48   O     O_R   0.803411 0.638495 0.467976 -0.277839
N21   N     N_R   0.257394 0.011248 0.793613 0.124896
O49   O     O_R   0.223609 0.978046 0.828648 -0.317661
O50   O     O_R   0.216096 0.057092 0.723523 -0.296403
N22   N     N_R   0.743071 0.003221 0.206658 0.128684
O51   O     O_R   0.774259 0.967838 0.170246 -0.305951
O52   O     O_R   0.787840 0.048160 0.278710 -0.278637
N23   N     N_R   0.757216 0.507548 0.793701 0.124106
O53   O     O_R   0.724021 0.472232 0.827193 -0.336807
O54   O     O_R   0.715181 0.553979 0.725812 -0.301036
N24   N     N_R   0.242977 0.506191 0.206637 0.123349
O55   O     O_R   0.275192 0.471717 0.170671 -0.321524
O56   O     O_R   0.286376 0.551748 0.277940 -0.303565

loop_
_geom_bond_atom_site_label_1
_geom_bond_atom_site_label_2
_geom_bond_distance
_ccdc_geom_bond_type
O16   Cu4   1.939345 S    
C18   C50   1.392022 A    
C47   C63   1.427485 A    
C17   C25   1.393063 A    
C17   C49   1.394649 A    
O2    C2    1.293515 A    
C12   C28   1.416563 A    
N13   O33   1.301252 A    
C54   C74   1.395046 A    
C91   C95   1.432829 A    
C58   C61   1.421159 A    
C53   C73   1.389411 A    
C96   C100  1.420259 A    
C99   C111  1.411880 A    
N22   O52   1.301324 A    
O4    Cu1   1.953430 S    
N13   O34   1.301169 A    
C93   C101  1.444902 A    
C5    C16   1.478728 S    
C43   C59   1.427755 A    
N17   O41   1.301145 A    
C92   H27   1.074814 S    
C95   C99   1.420281 A    
C6    C15   1.480156 S    
C10   C34   1.412194 A    
C29   N18   1.434383 S    
C83   H35   1.080819 S    
C62   C69   1.407066 A    
N3    C91   1.369321 A    
C81   H33   1.080922 S    
C91   H28   1.074830 S    
N21   O50   1.301340 A    
O12   Cu2   1.939345 S    
N3    C87   1.353059 A    
C106  C110  1.397698 A    
C60   C67   1.410394 A    
C83   C87   1.391334 A    
N4    C88   1.353153 A    
C105  C109  1.397956 A    
C59   C64   1.424645 A    
C18   H14   1.084599 S    
C14   C38   1.416397 A    
C11   C35   1.417584 A    
C82   C98   1.410019 A    
N16   O40   1.301267 A    
O11   Cu1   1.939347 S    
C31   N20   1.436002 S    
C13   C29   1.415745 A    
O6    C6    1.294027 A    
C105  H37   1.075883 S    
C45   C53   1.417212 A    
C42   C50   1.417148 A    
C15   C39   1.418342 A    
C100  C112  1.411882 A    
C35   N8    1.437256 S    
N9    O26   1.300733 A    
C94   C98   1.420214 A    
N22   O51   1.301398 A    
C66   C74   1.387566 A    
C39   C47   1.420828 A    
C44   C60   1.427686 A    
C65   C73   1.382067 A    
C38   C46   1.424373 A    
C26   N13   1.434308 S    
O6    Cu4   1.968862 S    
C41   C57   1.430525 A    
N5    O18   1.301947 A    
C102  C105  1.409088 A    
C35   C43   1.421668 A    
C103  C104  1.435411 A    
C36   C44   1.420970 A    
O13   Cu4   1.953837 S    
O3    C3    1.288571 A    
N12   O31   1.301854 A    
C64   C71   1.410070 A    
O14   Cu3   1.953837 S    
C68   H20   1.076699 S    
N2    C90   1.369457 A    
C81   C97   1.410281 A    
C16   C32   1.415386 A    
Cu4   N3    2.008822 S    
C109  N21   1.437302 S    
C77   H5    1.084274 S    
C24   C32   1.391471 A    
C95   C103  1.444924 A    
O16   C8    1.299775 A    
C101  C106  1.409064 A    
C11   C27   1.415320 A    
C71   H23   1.076680 S    
O1    Cu1   1.968863 S    
C70   H22   1.077223 S    
C82   C86   1.391115 A    
N24   O56   1.301332 A    
O4    C4    1.300277 A    
C60   C63   1.424092 A    
C21   C29   1.390353 A    
C59   C68   1.410093 A    
C75   H3    1.084460 S    
O9    Cu2   1.953837 S    
C4    C9    1.490055 S    
N17   O42   1.300890 A    
C23   C55   1.393247 A    
O10   C2    1.298700 A    
C80   H8    1.084466 S    
C22   C54   1.394223 A    
C106  H38   1.075778 S    
C55   C75   1.390086 A    
N15   O37   1.301392 A    
C48   C64   1.427696 A    
C108  C112  1.397846 A    
N18   O43   1.301151 A    
C112  N24   1.437249 S    
C37   N10   1.438189 S    
O2    Cu2   1.968862 S    
C90   C94   1.432883 A    
C73   H1    1.084451 S    
N19   O45   1.301261 A    
C72   C80   1.382975 A    
C34   C42   1.417331 A    
C30   N17   1.432579 S    
N1    C89   1.369169 A    
Cu1   Cu2   2.672706 S    
C107  C111  1.397607 A    
O7    Cu4   1.953432 S    
C69   C77   1.387641 A    
C68   C76   1.382964 A    
Cu2   N1    2.008822 S    
N10   O28   1.302035 A    
C65   H17   1.077233 S    
Cu1   N2    2.008821 S    
N7    O21   1.302131 A    
C67   H19   1.076599 S    
C63   C72   1.410269 A    
C50   C78   1.389362 A    
C46   C62   1.425074 A    
C97   C109  1.411936 A    
Cu3   N4    2.008821 S    
O15   Cu3   1.939347 S    
C69   H21   1.081439 S    
C104  C107  1.409077 A    
C84   C88   1.391350 A    
C7    C14   1.480873 S    
O11   C3    1.299767 A    
O12   C4    1.296698 A    
C38   N9    1.447025 S    
N21   O49   1.301389 A    
C86   H29   1.079374 S    
O13   C5    1.298692 A    
N23   O54   1.301300 A    
C103  C108  1.409092 A    
C83   C99   1.410164 A    
C74   H2    1.084376 S    
C22   C30   1.393953 A    
C81   C85   1.391410 A    
C61   C70   1.410534 A    
C24   H12   1.084667 S    
C58   C65   1.410488 A    
O9    C1    1.299554 A    
C36   N7    1.437071 S    
C72   H24   1.076644 S    
C43   C51   1.416463 A    
C57   C66   1.409003 A    
N5    O17   1.302032 A    
C87   H32   1.080123 S    
C19   H15   1.084571 S    
C66   H18   1.077074 S    
C15   C31   1.416419 A    
C1    C12   1.480274 S    
C47   C55   1.416060 A    
N24   O55   1.301394 A    
C33   C41   1.428761 A    
C33   N6    1.434790 S    
C110  N22   1.437228 S    
C49   C77   1.397959 A    
Cu3   Cu4   2.672706 S    
N6    O19   1.301471 A    
O10   Cu1   1.953837 S    
C19   C27   1.391307 A    
C52   C80   1.390048 A    
N1    C85   1.353157 A    
C20   C28   1.391972 A    
C76   H4    1.084467 S    
C89   C93   1.432707 A    
C67   C75   1.383167 A    
N20   O48   1.301414 A    
C32   N19   1.434410 S    
C13   C37   1.412168 A    
C20   C52   1.393134 A    
C84   C100  1.410278 A    
C42   C58   1.422252 A    
O3    Cu2   1.953432 S    
C92   C96   1.432703 A    
N14   O36   1.301121 A    
C16   C40   1.417625 A    
C108  H40   1.075870 S    
C20   H16   1.084541 S    
C14   C30   1.415231 A    
N12   O32   1.302133 A    
C98   C110  1.411774 A    
C88   H31   1.080611 S    
C93   C97   1.420165 A    
C48   C56   1.416417 A    
C79   H7    1.084468 S    
O1    C1    1.293962 A    
C8    C13   1.470893 S    
C78   H6    1.084443 S    
C34   N5    1.438195 S    
C10   C26   1.415634 A    
C40   C48   1.421583 A    
C41   C49   1.418251 A    
N10   O27   1.301951 A    
C94   C102  1.444996 A    
N7    O22   1.301861 A    
C22   H10   1.084689 S    
C96   C104  1.444908 A    
C71   C79   1.382858 A    
C101  C102  1.435459 A    
C56   C76   1.390175 A    
N6    O20   1.302128 A    
O5    Cu3   1.968863 S    
O14   C6    1.299460 A    
C89   H26   1.074744 S    
C9    C33   1.423431 A    
C57   C62   1.421303 A    
C23   C31   1.392203 A    
C25   N14   1.433430 S    
O7    C7    1.296471 A    
C37   C45   1.417405 A    
C28   N15   1.435907 S    
O15   C7    1.297969 A    
O8    C8    1.288412 A    
C12   C36   1.418406 A    
N4    C92   1.369262 A    
C90   H25   1.074851 S    
N19   O46   1.301178 A    
C44   C52   1.416200 A    
C51   C79   1.390205 A    
N9    O25   1.302030 A    
C18   C26   1.390421 A    
C84   H36   1.080904 S    
C21   C53   1.392033 A    
N11   O29   1.302062 A    
C23   H11   1.084521 S    
C107  H39   1.075861 S    
C17   H13   1.084893 S    
N14   O35   1.300938 A    
N2    C86   1.353197 A    
N16   O39   1.301142 A    
O5    C5    1.293710 A    
C27   N16   1.434454 S    
C9    C25   1.415448 A    
N23   O53   1.301426 A    
N15   O38   1.301419 A    
O8    Cu3   1.953430 S    
C19   C51   1.393085 A    
C45   C61   1.422324 A    
C82   H34   1.080894 S    
C21   H9    1.084618 S    
C2    C11   1.478417 S    
C39   N12   1.437128 S    
C24   C56   1.393101 A    
N8    O23   1.301864 A    
C85   H30   1.080590 S    
C3    C10   1.471085 S    
N8    O24   1.302060 A    
N20   O47   1.301177 A    
C70   C78   1.382092 A    
N18   O44   1.301241 A    
C40   N11   1.437303 S    
C111  N23   1.436956 S    
N11   O30   1.301872 A    
C46   C54   1.415778 A    
