data_str_m3_o14_o24_f0_pcu.sym.218
_audit_creation_date              2012-12-10T17:49:38-0500
_audit_creation_method            fapswitch 2.2
_symmetry_space_group_name_H-M    P1
_symmetry_Int_Tables_number       1
_space_group_crystal_system       triclinic
_cell_length_a                    10.493759
_cell_length_b                    10.632569
_cell_length_c                    9.930486
_cell_angle_alpha                 90.258926
_cell_angle_beta                  90.345089
_cell_angle_gamma                 92.680805
_cell_volume                      1106.75464656

loop_
_atom_site_label
_atom_site_type_symbol
_atom_type_description
_atom_site_fract_x
_atom_site_fract_y
_atom_site_fract_z
_atom_type_partial_charge
C1    C     C_R   0.502733 0.260825 0.499719 0.834456
C2    C     C_3   0.963120 0.605738 0.448174 -0.242742
C3    C     C_3   0.040010 0.507722 0.371924 -0.088648
C4    C     C_3   0.122431 0.495687 0.498603 -0.065227
C5    C     C_R   0.713163 0.144188 0.632150 -0.243538
C6    C     C_R   0.808916 0.085338 0.701723 -0.208100
C7    C     C_R   0.808203 0.954469 0.707716 0.444650
C8    C     C_R   0.712287 0.882123 0.640451 -0.309199
C9    C     C_R   0.612893 0.940870 0.571096 0.038712
C10   C     C_R   0.612750 0.072707 0.568478 0.102670
C11   C     C_R   0.513048 0.129165 0.498777 -0.061853
C12   C     C_R   0.257502 0.497823 0.499489 0.880565
C13   C     C_R   0.419790 0.059679 0.427047 -0.206724
C14   C     C_R   0.420632 0.931301 0.427840 -0.178251
C15   C     C_R   0.514304 0.872537 0.500948 -0.065154
C16   C     C_R   0.333724 0.331727 0.138393 -0.164953
C17   C     C_R   0.253964 0.246414 0.067536 -0.184493
C18   C     C_R   0.255003 0.245181 0.928094 -0.188641
C19   C     C_R   0.334449 0.330458 0.858527 -0.170326
C20   C     C_R   0.418271 0.416697 0.926920 0.169627
C21   C     C_R   0.418135 0.416976 0.071431 0.171077
C22   C     C_R   0.578595 0.579363 0.072298 -0.095236
C23   C     C_R   0.505805 0.739573 0.500400 0.863528
C24   C     C_R   0.578514 0.579386 0.929294 -0.053173
C25   C     C_R   0.742458 0.499371 0.500538 0.854428
C26   C     C_3   0.037354 0.385808 0.551852 -0.330196
C27   C     C_3   0.951815 0.398830 0.425538 -0.227930
C28   C     C_3   0.877465 0.497054 0.501532 -0.043114
C29   C     C_3   0.961643 0.484793 0.625572 0.629213
C30   C     C_3   0.048266 0.594188 0.574698 -0.210961
H1    H     H_    0.907503 0.320284 0.364832 0.164294
H2    H     H_    0.716984 0.780823 0.641864 0.182598
H3    H     H_    0.346150 0.877300 0.373952 0.157960
H4    H     H_    0.642886 0.644265 0.126554 0.163911
H5    H     H_    0.326706 0.328202 0.245266 0.198011
H6    H     H_    0.190601 0.181195 0.121298 0.167761
H7    H     H_    0.192428 0.178923 0.873252 0.190932
H8    H     H_    0.327077 0.326357 0.751568 0.202574
H9    H     H_    0.642668 0.644327 0.876357 0.186975
H10   H     H_    0.072758 0.297147 0.593605 0.141993
H11   H     H_    0.094138 0.671131 0.636147 0.201844
H12   H     H_    0.928052 0.694451 0.406204 0.158830
H13   H     H_    0.076762 0.516768 0.267610 0.158555
H14   H     H_    0.344577 0.105060 0.372977 0.141164
H15   H     H_    0.719857 0.245743 0.627841 0.186713
H16   H     H_    0.884269 0.142126 0.750603 0.177326
N1    N     N_R   0.498800 0.498800 0.142780 -0.127450
N2    N     N_R   0.498760 0.498720 0.857170 -0.128211
O1    O     O_R   0.500000 0.316780 0.614690 -0.635974
O2    O     O_R   0.499990 0.316750 0.385360 -0.631114
O3    O     O_R   0.313960 0.499980 0.614650 -0.643057
O4    O     O_R   0.313940 0.499960 0.385310 -0.640961
O5    O     O_R   0.500010 0.683250 0.614640 -0.610973
O6    O     O_R   0.500000 0.683220 0.385310 -0.613680
O7    O     O_R   0.686060 0.500040 0.614690 -0.581426
O8    O     O_R   0.686040 0.500020 0.385350 -0.617390
Zn1   Zn    Zn3+2 0.500010 0.500020 0.653130 0.962786
Zn2   Zn    Zn3+2 0.499990 0.499980 0.346870 0.941945
S1    S     S_3+6 0.929881 0.883133 0.798323 -0.008554
O9    O     O_2   0.939151 0.940397 0.936849 -0.278713
O10   O     O_2   0.902196 0.743799 0.810158 -0.300036
O11   O     O_3   0.069903 0.910815 0.719871 -0.558235
H17   H     H_    0.050344 0.899805 0.622701 0.325011
O12   O     O_3   0.909437 0.475497 0.755955 -0.578677
C31   C     C_3   0.005353 0.445050 0.848168 -0.216638
H18   H     H_    0.091268 0.510157 0.840794 0.176496
H19   H     H_    0.031187 0.345939 0.833567 0.136517
H20   H     H_    0.967376 0.453585 0.951649 0.196425

loop_
_geom_bond_atom_site_label_1
_geom_bond_atom_site_label_2
_ccdc_geom_bond_type
C8    C9    A    
C4    C26   S    
C1    O1    A    
C30   H11   S    
C29   C30   S    
O3    Zn1   S    
C17   H6    S    
C26   C29   S    
C4    C12   S    
C1    O2    A    
C19   C20   A    
C1    C11   S    
C25   O8    A    
O2    Zn2   S    
C2    C30   S    
C31   H20   S    
C26   H10   S    
O12   C31   S    
C24   H9    S    
C14   H3    S    
C15   C23   S    
C17   C18   A    
C9    C15   A    
C29   O12   S    
S1    O9    D    
C13   C14   A    
C13   H14   S    
N1    Zn2   S    
C11   C13   A    
C3    H13   S    
C26   C27   S    
C20   N2    A    
O4    Zn2   S    
C2    H12   S    
C9    C10   A    
C3    C27   S    
C28   C29   S    
C12   O4    A    
C18   H7    S    
O8    Zn2   S    
C23   O5    A    
C6    C7    A    
C2    C3    S    
O7    Zn1   S    
C16   H5    S    
C5    C6    A    
C22   H4    S    
C22   C24   A    
S1    O10   D    
C7    C8    A    
C10   C11   A    
C5    C10   A    
C3    C4    S    
C24   N2    A    
N2    Zn1   S    
C12   O3    A    
O1    Zn1   S    
C20   C21   A    
C27   H1    S    
C23   O6    A    
C31   H18   S    
O6    Zn2   S    
C7    S1    S    
C27   C28   S    
C16   C21   A    
O5    Zn1   S    
C19   H8    S    
C18   C19   A    
S1    O11   S    
C2    C28   S    
C6    H16   S    
C31   H19   S    
C14   C15   A    
C5    H15   S    
C22   N1    A    
C4    C30   S    
O11   H17   S    
C25   O7    A    
C21   N1    A    
C16   C17   A    
C25   C28   S    
C8    H2    S    
