data_str_m3_o4_o18_f0_pcu.sym.192
_audit_creation_date              2013-03-05T16:42:22-0500
_audit_creation_method            fapswitch 2.2
_symmetry_space_group_name_H-M    P1
_symmetry_Int_Tables_number       1
_space_group_crystal_system       triclinic
_cell_length_a                    9.897047
_cell_length_b                    10.724827
_cell_length_c                    15.477999
_cell_angle_alpha                 88.927595
_cell_angle_beta                  68.788563
_cell_angle_gamma                 86.539117
_cell_volume                      1528.79290638

loop_
_atom_site_label
_atom_site_type_symbol
_atom_site_description
_atom_site_fract_x
_atom_site_fract_y
_atom_site_fract_z
_atom_type_partial_charge
O1    O     O_R   0.385310 0.683210 0.499990 -0.617813
O2    O     O_R   0.614650 0.683240 0.500000 -0.606902
C1    C     C_R   0.499368 0.740154 0.494577 0.831529
O3    O     O_R   0.319830 0.499970 0.632240 -0.580004
O4    O     O_R   0.549170 0.500000 0.632250 -0.584791
C2    C     C_R   0.409157 0.501619 0.675428 0.924663
Zn1   Zn    Zn3+2 0.346870 0.499980 0.499990 1.036175
Zn2   Zn    Zn3+2 0.653130 0.500020 0.500010 0.965875
O5    O     O_R   0.385350 0.316760 0.500000 -0.558512
O6    O     O_R   0.614690 0.316790 0.500010 -0.632050
O7    O     O_R   0.450830 0.500000 0.367750 -0.509383
O8    O     O_R   0.680170 0.500030 0.367760 -0.638460
C3    C     C_R   0.502414 0.260008 0.502863 0.957706
C4    C     C_R   0.588471 0.510345 0.324927 0.879378
C5    C     C_R   0.349447 0.505063 0.776314 -0.294017
C6    C     C_R   0.635045 0.544819 0.226845 -0.206369
C7    C     C_R   0.190037 0.424464 0.921562 -0.260531
C8    C     C_R   0.230401 0.435492 0.825798 0.465838
C9    C     C_R   0.415753 0.574788 0.823832 0.335399
C10   C     C_R   0.396720 0.543280 0.915802 -0.001157
C11   C     C_R   0.274620 0.474555 0.966895 -0.022483
C12   C     C_R   0.497406 0.574153 0.957241 0.004410
C13   C     C_R   0.462192 0.553795 0.053051 0.014238
C14   C     C_R   0.334087 0.493285 0.103668 -0.252130
C15   C     C_R   0.240885 0.453630 0.061543 0.433920
C16   C     C_R   0.638026 0.612712 0.904376 -0.139679
C17   C     C_R   0.741710 0.630178 0.943945 0.365980
C18   C     C_R   0.709837 0.600369 0.037958 -0.038294
C19   C     C_R   0.564816 0.578779 0.093809 -0.040743
C20   C     C_R   0.818337 0.585241 0.077320 -0.182365
C21   C     C_R   0.781388 0.550149 0.170209 -0.225038
C22   C     C_R   0.527830 0.578822 0.189713 0.495954
H1    H     H_    0.866070 0.530907 0.198199 0.205076
H2    H     H_    0.098417 0.369624 0.958798 0.213272
H3    H     H_    0.311220 0.464663 0.174507 0.213745
H4    H     H_    0.675026 0.621680 0.830265 0.263916
H5    H     H_    0.932148 0.591672 0.035920 0.172023
C23   C     C_R   0.371843 0.946082 0.523489 -0.154677
C24   C     C_R   0.499180 0.872809 0.479923 -0.244523
C25   C     C_R   0.629838 0.932220 0.431519 0.440475
C26   C     C_R   0.633653 0.060296 0.443811 -0.233831
H6    H     H_    0.732071 0.107186 0.406689 0.175637
C27   C     C_R   0.509881 0.127381 0.502783 -0.187404
C28   C     C_R   0.380687 0.069579 0.541626 -0.034442
C29   C     C_3   0.281531 0.060227 0.641632 0.816521
C30   C     C_3   0.251728 0.930496 0.615593 0.245530
H7    H     H_    0.275297 0.853874 0.658400 0.063592
C31   C     C_R   0.886550 0.560662 0.567955 0.200176
N1    N     N_R   0.856900 0.500860 0.500610 -0.147230
C32   C     C_R   0.967686 0.431625 0.437139 -0.298767
H8    H     H_    0.943734 0.381305 0.385024 0.162699
C33   C     C_R   0.113082 0.428878 0.437645 0.629267
N2    N     N_R   0.142540 0.500820 0.500610 -0.130844
C34   C     C_R   0.028545 0.557855 0.569005 -0.049403
C35   C     C_3   0.017855 0.692028 0.589255 -0.466708
C36   C     C_3   0.867004 0.698291 0.585001 0.332215
H9    H     H_    0.020745 0.708931 0.659197 0.256832
H10   H     H_    0.097954 0.739396 0.530371 0.217982
H11   H     H_    0.856335 0.751198 0.524810 0.118021
O9    O     O_3   0.118876 0.390600 0.111087 -0.795626
H12   H     H_    0.104303 0.392524 0.177846 0.323236
O10   O     O_3   0.754695 0.869315 0.373700 -0.774921
H13   H     H_    0.728015 0.791075 0.352492 0.334669
O11   O     O_3   0.358027 0.060146 0.703119 -0.797625
H14   H     H_    0.438158 0.994278 0.683231 0.288360
O12   O     O_3   0.160498 0.147636 0.667695 -0.572666
C37   C     C_3   0.062974 0.119846 0.757848 -0.089892
H15   H     H_    0.108113 0.142868 0.811307 0.213433
H16   H     H_    0.034216 0.020695 0.766211 0.151228
H17   H     H_    0.960149 0.176886 0.771657 0.138658
O13   O     O_3   0.109421 0.925680 0.612424 -0.624419
C38   C     C_3   0.087883 0.987251 0.535812 -0.286317
H18   H     H_    0.155544 0.941482 0.469083 0.158037
H19   H     H_    0.107865 0.087820 0.533850 0.207924
H20   H     H_    0.973200 0.981015 0.542568 0.165595
O14   O     O_3   0.229248 0.363213 0.371989 -0.561020
C39   C     C_3   0.190209 0.248718 0.346746 -0.357870
H21   H     H_    0.288900 0.184782 0.321033 0.202379
H22   H     H_    0.148853 0.263138 0.289399 0.166059
H23   H     H_    0.109275 0.201636 0.405906 0.138243
O15   O     O_3   0.387759 0.616561 0.246618 -0.596807
C40   C     C_3   0.382760 0.745808 0.263485 -0.265839
H24   H     H_    0.406484 0.800004 0.198123 0.160552
H25   H     H_    0.458791 0.768177 0.298522 0.142698
H26   H     H_    0.271485 0.775580 0.310526 0.184444
O16   O     O_3   0.757297 0.726459 0.671415 -0.558617
C41   C     C_3   0.734698 0.857180 0.682883 -0.230184
H27   H     H_    0.706819 0.902149 0.625553 0.132971
H28   H     H_    0.830406 0.898408 0.689905 0.204427
H29   H     H_    0.641883 0.877978 0.748289 0.218272
O17   O     O_3   0.871555 0.676530 0.887992 -0.807675
H30   H     H_    0.916514 0.716741 0.927116 0.334744
O18   O     O_3   0.161240 0.370238 0.779493 -0.579351
C42   C     C_3   0.030400 0.436878 0.787087 -0.206015
H31   H     H_    0.984593 0.394310 0.739758 0.185174
H32   H     H_    0.048440 0.535705 0.764960 0.205623
H33   H     H_    0.949702 0.430815 0.858737 0.158674
O19   O     O_3   0.484932 0.681461 0.785640 -0.743728
H34   H     H_    0.458854 0.707929 0.731680 0.333682

loop_
_geom_bond_atom_site_label_1
_geom_bond_atom_site_label_2
_geom_bond_distance
_ccdc_geom_bond_type
C5    C8    1.401163 A    
C35   C36   1.515481 S    
O18   C42   1.408096 S    
C38   H19   1.106139 S    
C26   H6    1.084040 S    
C9    C10   1.404169 A    
C41   H27   1.114102 S    
O15   C40   1.409937 S    
C39   H21   1.109360 S    
C28   C29   1.508627 S    
C6    C21   1.399591 A    
C31   C34   1.409805 A    
C22   O15   1.386877 S    
C16   C17   1.394807 A    
C13   C19   1.415697 A    
C18   C19   1.412704 A    
C19   C22   1.394379 A    
C38   H20   1.107561 S    
O4    C2    1.301743 A    
O7    C4    1.292076 A    
C25   O10   1.380129 S    
Zn1   O5    1.978877 S    
N1    C32   1.366837 A    
O5    C3    1.290639 A    
C2    C5    1.456252 S    
C30   H7    1.112201 S    
C32   C33   1.440364 A    
C13   C14   1.415609 A    
C21   H1    1.082223 S    
C17   O17   1.379950 S    
C15   O9    1.382826 S    
O12   C37   1.418498 S    
C1    C24   1.436458 S    
C26   C27   1.400150 A    
O3    Zn1   1.966033 S    
C9    O19   1.379658 S    
Zn1   O7    1.929807 S    
C39   H22   1.108780 S    
C23   C24   1.394925 A    
C14   H3    1.078831 S    
C37   H15   1.110699 S    
C14   C15   1.396345 A    
O3    C2    1.287918 A    
O17   H30   0.989242 S    
O16   C41   1.410592 S    
C42   H33   1.111145 S    
C32   H8    1.080835 S    
N2    C34   1.358072 A    
C7    C11   1.405391 A    
C20   H5    1.081457 S    
O9    H12   0.990725 S    
O1    C1    1.291185 A    
C5    C9    1.399942 A    
C27   C28   1.380632 A    
C23   C28   1.373468 A    
O10   H13   0.990635 S    
C36   O16   1.408460 S    
Zn2   O8    1.966030 S    
C7    C8    1.393294 A    
O14   C39   1.412185 S    
C42   H32   1.112460 S    
C30   O13   1.430940 S    
C16   H4    1.074861 S    
C25   C26   1.394860 A    
O8    C4    1.302282 A    
C40   H24   1.113120 S    
C40   H25   1.113465 S    
C35   H9    1.111745 S    
C4    C6    1.465275 S    
C41   H29   1.108700 S    
C7    H2    1.083440 S    
Zn1   N2    2.018287 S    
C3    C27   1.419860 S    
C33   N2    1.375145 A    
C39   H23   1.111675 S    
C31   C36   1.492957 S    
C11   C15   1.396702 A    
C34   C35   1.467864 S    
C31   N1    1.361270 A    
O1    Zn1   2.024020 S    
O2    Zn2   1.978877 S    
C10   C12   1.422779 A    
C38   H18   1.111269 S    
C33   O14   1.390705 S    
O6    C3    1.285593 A    
O4    Zn2   1.929807 S    
C6    C22   1.405696 A    
C40   H26   1.109480 S    
C29   O11   1.414275 S    
C36   H11   1.115909 S    
C37   H17   1.108101 S    
O11   H14   0.993271 S    
C18   C20   1.413963 A    
O2    C1    1.290230 A    
O13   C38   1.422756 S    
C20   C21   1.399412 A    
C41   H28   1.109692 S    
C42   H31   1.108339 S    
C23   C30   1.504055 S    
C24   C25   1.421276 A    
C29   C30   1.530307 S    
C10   C11   1.422379 A    
Zn2   O6    2.024020 S    
O19   H34   0.991453 S    
C12   C16   1.417823 A    
C35   H10   1.107090 S    
C29   O12   1.416093 S    
C8    O18   1.379706 S    
C12   C13   1.411141 A    
C37   H16   1.110524 S    
Zn2   N1    2.020664 S    
C17   C18   1.407745 A    
