data_str_m4_o22_o22_f0_acs.sym.106
_audit_creation_date              2012-12-11T15:06:48-0500
_audit_creation_method            fapswitch 2.2
_symmetry_space_group_name_H-M    P1
_symmetry_Int_Tables_number       1
_space_group_crystal_system       triclinic
_cell_length_a                    19.672409
_cell_length_b                    11.342038
_cell_length_c                    18.713392
_cell_angle_alpha                 89.754401
_cell_angle_beta                  89.481563
_cell_angle_gamma                 90.074426
_cell_volume                      4175.21650438

loop_
_atom_site_label
_atom_site_type_symbol
_atom_type_description
_atom_site_fract_x
_atom_site_fract_y
_atom_site_fract_z
_atom_type_partial_charge
C1    C     C_R   0.762529 0.518664 0.637393 0.537532
C2    C     C_R   0.229275 0.488646 0.367923 0.534262
C3    C     C_R   0.262529 0.018664 0.637393 0.537532
C4    C     C_R   0.729275 0.988646 0.367923 0.534262
C5    C     C_3   0.812786 0.077099 0.451654 -0.231538
C6    C     C_3   0.187806 0.119865 0.550293 -0.260630
C7    C     C_3   0.312786 0.577099 0.451654 -0.231538
C8    C     C_3   0.687806 0.619865 0.550293 -0.260630
C9    C     C_3   0.740490 0.025374 0.444203 0.045748
C10   C     C_3   0.253293 0.050012 0.560900 0.053327
C11   C     C_3   0.240490 0.525374 0.444203 0.045748
C12   C     C_3   0.753293 0.550012 0.560900 0.053327
C13   C     C_3   0.761970 0.084008 0.577011 0.092003
C14   C     C_3   0.238394 0.089526 0.424391 0.093391
C15   C     C_3   0.261971 0.584008 0.577011 0.092003
C16   C     C_3   0.738394 0.589526 0.424391 0.093391
C17   C     C_3   0.761689 0.949065 0.573905 -0.084496
C18   C     C_3   0.234949 0.956041 0.434267 -0.095504
C19   C     C_3   0.261690 0.449065 0.573905 -0.084496
C20   C     C_3   0.734949 0.456041 0.434267 -0.095503
C21   C     C_3   0.822346 0.120383 0.527626 -0.263766
C22   C     C_3   0.178386 0.138914 0.470048 -0.252725
C23   C     C_3   0.322346 0.620383 0.527626 -0.263766
C24   C     C_3   0.678386 0.638914 0.470048 -0.252725
C25   C     C_3   0.000200 0.202411 0.458560 -0.236969
C26   C     C_3   0.997531 0.203577 0.541063 -0.237146
C27   C     C_3   0.500200 0.702411 0.458560 -0.236969
C28   C     C_3   0.497532 0.703577 0.541063 -0.237146
C29   C     C_3   0.060041 0.405444 0.470074 -0.228052
C30   C     C_3   0.933330 0.401136 0.526844 -0.228372
C31   C     C_3   0.560041 0.905444 0.470074 -0.228052
C32   C     C_3   0.433330 0.901136 0.526844 -0.228372
C33   C     C_3   0.938008 0.385901 0.445428 -0.249357
C34   C     C_3   0.056465 0.391413 0.551606 -0.252310
C35   C     C_3   0.438008 0.885901 0.445428 -0.249358
C36   C     C_3   0.556465 0.891413 0.551606 -0.252310
C37   C     C_3   0.006347 0.330692 0.429401 0.055930
C38   C     C_3   0.989185 0.331884 0.568565 0.055002
C39   C     C_3   0.506347 0.830692 0.429401 0.055930
C40   C     C_3   0.489185 0.831884 0.568565 0.055002
C41   C     C_3   0.820277 0.030976 0.047564 -0.233031
C42   C     C_3   0.186914 0.009889 0.956750 -0.228063
C43   C     C_3   0.320277 0.530976 0.047564 -0.233031
C44   C     C_3   0.686914 0.509889 0.956750 -0.228063
C45   C     C_R   0.776711 0.125704 0.648442 0.595021
C46   C     C_R   0.224572 0.123471 0.350754 0.609606
C47   C     C_R   0.276711 0.625704 0.648442 0.595021
C48   C     C_R   0.724572 0.623471 0.350754 0.609606
C49   C     C_3   0.822224 0.036502 0.967335 -0.226434
C50   C     C_3   0.184727 0.016591 0.036890 -0.233130
C51   C     C_3   0.322224 0.536502 0.967335 -0.226434
C52   C     C_3   0.684727 0.516591 0.036890 -0.233131
C53   C     C_3   0.693194 0.012683 0.033267 -0.223869
C54   C     C_3   0.317683 0.034193 0.967949 -0.215720
C55   C     C_3   0.193194 0.512683 0.033267 -0.223869
C56   C     C_3   0.817684 0.534192 0.967949 -0.215720
C57   C     C_3   0.745027 0.204572 0.061140 -0.252976
C58   C     C_3   0.244094 0.199881 0.937439 -0.258284
C59   C     C_3   0.245027 0.704572 0.061140 -0.252977
C60   C     C_3   0.744095 0.699881 0.937439 -0.258285
C61   C     C_3   0.750003 0.073126 0.075998 0.058014
C62   C     C_3   0.252500 0.068254 0.925542 0.062471
C63   C     C_3   0.250003 0.573126 0.075998 0.058014
C64   C     C_3   0.752500 0.568254 0.925542 0.062472
C65   C     C_3   0.760408 0.105734 0.936632 0.060100
C66   C     C_3   0.240395 0.102426 0.064390 0.055722
C67   C     C_3   0.260408 0.605734 0.936632 0.060100
C68   C     C_3   0.740395 0.602426 0.064390 0.055722
C69   C     C_3   0.699212 0.026630 0.950892 -0.258063
C70   C     C_3   0.308802 0.044872 0.049994 -0.250085
C71   C     C_3   0.199211 0.526631 0.950892 -0.258062
C72   C     C_3   0.808802 0.544871 0.049994 -0.250085
C73   C     C_3   0.745073 0.221745 0.978880 -0.220374
C74   C     C_3   0.238684 0.217502 0.019435 -0.232080
C75   C     C_3   0.245073 0.721745 0.978880 -0.220375
C76   C     C_3   0.738684 0.717502 0.019435 -0.232081
C77   C     C_3   0.995194 0.478827 0.042195 -0.234084
C78   C     C_3   0.991647 0.478744 0.961304 -0.227508
C79   C     C_3   0.495194 0.978826 0.042195 -0.234085
C80   C     C_3   0.491646 0.978744 0.961304 -0.227508
C81   C     C_3   0.067391 0.296667 0.025540 -0.228983
C82   C     C_3   0.936984 0.270663 0.974770 -0.216432
C83   C     C_3   0.567391 0.796667 0.025540 -0.228983
C84   C     C_3   0.436985 0.770662 0.974769 -0.216429
C85   C     C_3   0.945850 0.279121 0.056520 -0.251992
C86   C     C_3   0.056986 0.297132 0.943776 -0.259485
C87   C     C_3   0.445850 0.779120 0.056520 -0.251992
C88   C     C_3   0.556986 0.797133 0.943776 -0.259484
C89   C     C_R   0.969817 0.342014 0.645202 0.559496
C90   C     C_R   0.027795 0.341353 0.353183 0.549106
C91   C     C_R   0.469817 0.842014 0.645202 0.559496
C92   C     C_R   0.527795 0.841352 0.353183 0.549106
C93   C     C_3   0.009071 0.352061 0.070039 0.058353
C94   C     C_3   0.987450 0.350824 0.931381 0.062337
C95   C     C_3   0.509071 0.852061 0.070039 0.058353
C96   C     C_3   0.487451 0.850823 0.931381 0.062337
C97   C     C_R   0.760638 0.532793 0.849107 0.538393
C98   C     C_R   0.240660 0.536638 0.152463 0.542111
C99   C     C_R   0.260638 0.032793 0.849107 0.538392
C100  C     C_R   0.740660 0.036637 0.152463 0.542111
C101  C     C_R   0.774168 0.133069 0.859098 0.547156
C102  C     C_R   0.226261 0.131809 0.141492 0.549205
C103  C     C_R   0.274168 0.633069 0.859098 0.547156
C104  C     C_R   0.726262 0.631809 0.141492 0.549204
C105  C     C_R   0.966962 0.353242 0.854733 0.545992
C106  C     C_R   0.031163 0.353412 0.146382 0.542535
C107  C     C_R   0.466962 0.853242 0.854733 0.545992
C108  C     C_R   0.531163 0.853412 0.146382 0.542535
C109  C     C_3   0.689110 0.120331 0.468618 -0.251486
C110  C     C_3   0.311815 0.127877 0.532362 -0.255720
C111  C     C_3   0.189110 0.620331 0.468618 -0.251486
C112  C     C_3   0.811815 0.627877 0.532362 -0.255720
C113  C     C_3   0.693162 0.133795 0.549260 -0.231094
C114  C     C_3   0.309100 0.134107 0.451132 -0.225211
C115  C     C_3   0.193162 0.633794 0.549260 -0.231094
C116  C     C_3   0.809100 0.634107 0.451132 -0.225210
C117  C     C_3   0.736958 0.918030 0.498260 -0.267619
C118  C     C_3   0.244354 0.933604 0.515496 -0.231862
C119  C     C_3   0.236958 0.418030 0.498260 -0.267618
C120  C     C_3   0.744354 0.433604 0.515496 -0.231862
Cr1   Cr    Cr6+3 0.885690 0.492860 0.745310 1.000813
Cr2   Cr    Cr6+3 0.114310 0.492860 0.254690 1.002031
Cr3   Cr    Cr6+3 0.385690 0.992860 0.745310 1.000813
Cr4   Cr    Cr6+3 0.614310 0.992860 0.254690 1.002031
Cr5   Cr    Cr6+3 0.729880 0.332270 0.748190 1.011538
Cr6   Cr    Cr6+3 0.270120 0.332270 0.251810 1.008362
Cr7   Cr    Cr6+3 0.229880 0.832270 0.748190 1.011538
Cr8   Cr    Cr6+3 0.770120 0.832270 0.251810 1.008362
Cr9   Cr    Cr6+3 0.888120 0.178590 0.753010 0.998112
Cr10  Cr    Cr6+3 0.111880 0.178590 0.246990 0.997992
Cr11  Cr    Cr6+3 0.388120 0.678590 0.753010 0.998112
Cr12  Cr    Cr6+3 0.611880 0.678590 0.246990 0.997992
H1    H     H_    0.636901 0.099885 0.453186 0.123824
H2    H     H_    0.361316 0.097808 0.549972 0.129912
H3    H     H_    0.136901 0.599885 0.453186 0.123824
H4    H     H_    0.861316 0.597808 0.549972 0.129912
H5    H     H_    0.867540 0.074444 0.547162 0.120383
H6    H     H_    0.133462 0.086679 0.456517 0.120744
H7    H     H_    0.367540 0.574445 0.547162 0.120384
H8    H     H_    0.633462 0.586678 0.456517 0.120744
H9    H     H_    0.766092 0.845995 0.476714 0.108537
H10   H     H_    0.195966 0.894987 0.534065 0.114529
H11   H     H_    0.266092 0.345995 0.476714 0.108537
H12   H     H_    0.695966 0.394987 0.534065 0.114529
H13   H     H_    0.814593 0.915176 0.578621 0.087717
H14   H     H_    0.182881 0.924870 0.420509 0.095679
H15   H     H_    0.314593 0.415176 0.578621 0.087717
H16   H     H_    0.682881 0.424870 0.420509 0.095679
H17   H     H_    0.040159 0.145716 0.438166 0.134089
H18   H     H_    0.958406 0.145647 0.562227 0.133476
H19   H     H_    0.540159 0.645716 0.438166 0.134089
H20   H     H_    0.458406 0.645647 0.562227 0.133476
H21   H     H_    0.953342 0.159683 0.438312 0.108082
H22   H     H_    0.044754 0.164322 0.562147 0.107785
H23   H     H_    0.453342 0.659682 0.438312 0.108082
H24   H     H_    0.544754 0.664322 0.562147 0.107786
H25   H     H_    0.609204 0.889650 0.445008 0.109371
H26   H     H_    0.383108 0.881238 0.548566 0.114149
H27   H     H_    0.109203 0.389650 0.445008 0.109371
H28   H     H_    0.883108 0.381238 0.548566 0.114150
H29   H     H_    0.598769 0.837364 0.571899 0.156602
H30   H     H_    0.396456 0.828487 0.426849 0.150639
H31   H     H_    0.098769 0.337364 0.571899 0.156602
H32   H     H_    0.896456 0.328487 0.426849 0.150639
H33   H     H_    0.935208 0.471979 0.417649 0.154158
H34   H     H_    0.058751 0.479036 0.577575 0.151771
H35   H     H_    0.435208 0.971979 0.417649 0.154158
H36   H     H_    0.558751 0.979036 0.577575 0.151771
H37   H     H_    0.943876 0.495372 0.536507 0.128391
H38   H     H_    0.048358 0.499684 0.459611 0.131144
H39   H     H_    0.443876 0.995372 0.536507 0.128391
H40   H     H_    0.548358 0.999684 0.459611 0.131144
H41   H     H_    0.833224 0.939290 0.062765 0.138265
H42   H     H_    0.180529 0.918450 0.940870 0.137877
H43   H     H_    0.333224 0.439290 0.062765 0.138265
H44   H     H_    0.680529 0.418449 0.940870 0.137877
H45   H     H_    0.700121 0.205843 0.443103 0.111887
H46   H     H_    0.307947 0.216955 0.555501 0.102095
H47   H     H_    0.200121 0.705843 0.443103 0.111887
H48   H     H_    0.807947 0.716955 0.555501 0.102095
H49   H     H_    0.860671 0.086323 0.070488 0.116888
H50   H     H_    0.141397 0.054746 0.934570 0.116151
H51   H     H_    0.360671 0.586323 0.070488 0.116887
H52   H     H_    0.641397 0.554746 0.934570 0.116151
H53   H     H_    0.871116 0.071420 0.950546 0.136100
H54   H     H_    0.132288 0.042183 0.051955 0.135153
H55   H     H_    0.371115 0.571421 0.950546 0.136100
H56   H     H_    0.632288 0.542183 0.051955 0.135153
H57   H     H_    0.822413 0.945221 0.945684 0.115799
H58   H     H_    0.192383 0.928423 0.060652 0.120557
H59   H     H_    0.322413 0.445221 0.945684 0.115799
H60   H     H_    0.692382 0.428423 0.060652 0.120557
H61   H     H_    0.700269 0.922448 0.047971 0.108787
H62   H     H_    0.337687 0.948480 0.952262 0.109415
H63   H     H_    0.200269 0.422448 0.047971 0.108787
H64   H     H_    0.837687 0.448479 0.952262 0.109415
H65   H     H_    0.705898 0.939847 0.924761 0.113065
H66   H     H_    0.311496 0.957051 0.076025 0.110960
H67   H     H_    0.205898 0.439847 0.924761 0.113065
H68   H     H_    0.811496 0.457051 0.076026 0.110960
H69   H     H_    0.697096 0.238534 0.085200 0.118232
H70   H     H_    0.288022 0.249975 0.914985 0.114618
H71   H     H_    0.197096 0.738534 0.085200 0.118232
H72   H     H_    0.788022 0.749974 0.914985 0.114618
H73   H     H_    0.788057 0.252365 0.085646 0.109329
H74   H     H_    0.197970 0.232705 0.909994 0.110034
H75   H     H_    0.288057 0.752365 0.085646 0.109329
H76   H     H_    0.697971 0.732705 0.909994 0.110034
H77   H     H_    0.777702 0.294771 0.962379 0.107456
H78   H     H_    0.189204 0.249966 0.029830 0.109429
H79   H     H_    0.277702 0.794770 0.962379 0.107456
H80   H     H_    0.689204 0.749966 0.029830 0.109429
H81   H     H_    0.692461 0.246057 0.965026 0.118336
H82   H     H_    0.278562 0.278887 0.037358 0.123494
H83   H     H_    0.192461 0.746057 0.965026 0.118335
H84   H     H_    0.778563 0.778886 0.037357 0.123494
H85   H     H_    0.643111 0.045062 0.051493 0.129862
H86   H     H_    0.356079 0.100717 0.952279 0.122148
H87   H     H_    0.143111 0.545062 0.051493 0.129861
H88   H     H_    0.856079 0.600716 0.952280 0.122148
H89   H     H_    0.684565 0.225311 0.564110 0.123072
H90   H     H_    0.325337 0.221398 0.431111 0.123902
H91   H     H_    0.184565 0.725310 0.564111 0.123072
H92   H     H_    0.825337 0.721398 0.431111 0.123902
H93   H     H_    0.652308 0.066574 0.928831 0.115026
H94   H     H_    0.349300 0.101584 0.072530 0.118789
H95   H     H_    0.152308 0.566574 0.928831 0.115026
H96   H     H_    0.849300 0.601583 0.072530 0.118789
H97   H     H_    0.034380 0.543463 0.057823 0.131782
H98   H     H_    0.950283 0.534708 0.944135 0.132573
H99   H     H_    0.534379 0.043462 0.057823 0.131783
H100  H     H_    0.450282 0.034706 0.944135 0.132573
H101  H     H_    0.947196 0.511604 0.065664 0.121022
H102  H     H_    0.037477 0.523601 0.939027 0.117831
H103  H     H_    0.447196 0.011604 0.065664 0.121022
H104  H     H_    0.537476 0.023601 0.939027 0.117831
H105  H     H_    0.608155 0.854679 0.036143 0.109259
H106  H     H_    0.384259 0.782919 0.959222 0.108344
H107  H     H_    0.108155 0.354678 0.036142 0.109259
H108  H     H_    0.884258 0.282921 0.959224 0.108344
H109  H     H_    0.597095 0.849338 0.915964 0.112632
H110  H     H_    0.400661 0.819801 0.082149 0.109222
H111  H     H_    0.097094 0.349337 0.915963 0.112632
H112  H     H_    0.900661 0.319801 0.082150 0.109222
H113  H     H_    0.953076 0.190025 0.080079 0.117977
H114  H     H_    0.059839 0.206000 0.922343 0.113578
H115  H     H_    0.453076 0.690024 0.080079 0.117977
H116  H     H_    0.559840 0.706000 0.922343 0.113577
H117  H     H_    0.951004 0.179526 0.960460 0.122910
H118  H     H_    0.077787 0.206060 0.044169 0.131799
H119  H     H_    0.451005 0.679524 0.960459 0.122909
H120  H     H_    0.577787 0.706060 0.044170 0.131800
H121  H     H_    0.650400 0.086417 0.574670 0.169712
H122  H     H_    0.349277 0.077831 0.429755 0.165591
H123  H     H_    0.150400 0.586417 0.574670 0.169712
H124  H     H_    0.849277 0.577831 0.429755 0.165591
H125  H     H_    0.686571 0.888744 0.508170 0.116964
H126  H     H_    0.283083 0.869369 0.525446 0.094029
H127  H     H_    0.186571 0.388744 0.508170 0.116964
H128  H     H_    0.783082 0.369369 0.525446 0.094029
H129  H     H_    0.851333 0.007270 0.440688 0.138947
H130  H     H_    0.143837 0.070187 0.573020 0.131349
H131  H     H_    0.351333 0.507270 0.440688 0.138947
H132  H     H_    0.643837 0.570187 0.573020 0.131349
H133  H     H_    0.823807 0.147792 0.412744 0.119509
H134  H     H_    0.188944 0.204453 0.577891 0.115028
H135  H     H_    0.323807 0.647792 0.412744 0.119509
H136  H     H_    0.688944 0.704453 0.577891 0.115028
H137  H     H_    0.833874 0.213922 0.528636 0.100225
H138  H     H_    0.166867 0.229937 0.455837 0.101300
H139  H     H_    0.333874 0.713922 0.528636 0.100225
H140  H     H_    0.666867 0.729937 0.455837 0.101300
O1    O     O_R   0.957210 0.449410 0.665480 -0.521838
O2    O     O_R   0.042790 0.449410 0.334520 -0.528781
O3    O     O_R   0.457210 0.949410 0.665480 -0.521838
O4    O     O_R   0.542790 0.949410 0.334520 -0.528781
O5    O     O_R   0.736260 0.212010 0.826560 -0.502658
O6    O     O_R   0.263740 0.212010 0.173440 -0.503107
O7    O     O_R   0.236260 0.712010 0.826560 -0.502658
O8    O     O_R   0.763740 0.712010 0.173440 -0.503107
O9    O     O_R   0.832520 0.095300 0.836000 -0.532605
O10   O     O_R   0.167480 0.095300 0.164000 -0.530540
O11   O     O_R   0.332520 0.595300 0.836000 -0.532605
O12   O     O_R   0.667480 0.595300 0.164000 -0.530540
O13   O     O_R   0.946380 0.253940 0.826940 -0.512722
O14   O     O_R   0.053620 0.253940 0.173060 -0.513347
O15   O     O_R   0.446380 0.753940 0.826940 -0.512722
O16   O     O_R   0.553620 0.753940 0.173060 -0.513347
O17   O     O_3   0.834560 0.334570 0.748840 -0.287367
O18   O     O_3   0.165440 0.334570 0.251160 -0.294410
O19   O     O_3   0.334560 0.834570 0.748840 -0.287367
O20   O     O_3   0.665440 0.834570 0.251160 -0.294410
O21   O     O_R   0.820730 0.541240 0.668250 -0.518258
O22   O     O_R   0.179270 0.541240 0.331750 -0.508470
O23   O     O_R   0.320730 0.041240 0.668250 -0.518258
O24   O     O_R   0.679270 0.041240 0.331750 -0.508470
O25   O     O_R   0.714240 0.455060 0.663710 -0.531557
O26   O     O_R   0.285760 0.455060 0.336290 -0.528674
O27   O     O_R   0.214240 0.955060 0.663710 -0.531557
O28   O     O_R   0.785760 0.955060 0.336290 -0.528674
O29   O     O_R   0.736780 0.204870 0.675910 -0.500672
O30   O     O_R   0.263220 0.204870 0.324090 -0.509754
O31   O     O_R   0.236780 0.704870 0.675910 -0.500672
O32   O     O_R   0.763220 0.704870 0.324090 -0.509754
O33   O     O_R   0.833070 0.087590 0.673490 -0.540883
O34   O     O_R   0.166930 0.087590 0.326510 -0.534991
O35   O     O_R   0.333070 0.587590 0.673490 -0.540883
O36   O     O_R   0.666930 0.587590 0.326510 -0.534991
O37   O     O_R   0.946890 0.246800 0.676300 -0.514251
O38   O     O_R   0.053110 0.246800 0.323700 -0.515588
O39   O     O_R   0.446890 0.746800 0.676300 -0.514251
O40   O     O_R   0.553110 0.746800 0.323700 -0.515588
O41   O     O_R   0.956650 0.457120 0.827980 -0.525169
O42   O     O_R   0.043350 0.457120 0.172020 -0.525837
O43   O     O_R   0.456650 0.957120 0.827980 -0.525169
O44   O     O_R   0.543350 0.957120 0.172020 -0.525837
O45   O     O_R   0.820220 0.548390 0.818890 -0.511708
O46   O     O_R   0.179780 0.548390 0.181110 -0.506523
O47   O     O_R   0.320220 0.048390 0.818890 -0.511708
O48   O     O_R   0.679780 0.048390 0.181110 -0.506523
O49   O     O_R   0.713680 0.462770 0.826210 -0.531447
O50   O     O_R   0.286320 0.462770 0.173790 -0.529264
O51   O     O_R   0.213680 0.962770 0.826210 -0.531447
O52   O     O_R   0.786320 0.962770 0.173790 -0.529264
C121  C     C_2   0.724437 0.890346 0.636197 0.174289
H141  H     H_    0.745287 0.810494 0.659406 0.112974
O53   O     O_2   0.673146 0.932522 0.662826 -0.536342
C122  C     C_2   0.279482 0.887391 0.382499 0.162331
H142  H     H_    0.270915 0.795052 0.375518 0.113060
O54   O     O_2   0.319489 0.935474 0.341396 -0.532390
C123  C     C_2   0.224437 0.390346 0.636197 0.174288
H143  H     H_    0.245287 0.310494 0.659406 0.112974
O55   O     O_2   0.173146 0.432522 0.662826 -0.536342
C124  C     C_2   0.779482 0.387391 0.382499 0.162331
H144  H     H_    0.770915 0.295052 0.375518 0.113060
O56   O     O_2   0.819489 0.435474 0.341396 -0.532390

loop_
_geom_bond_atom_site_label_1
_geom_bond_atom_site_label_2
_ccdc_geom_bond_type
C83   H105  S    
C5    H133  S    
C82   C94   S    
C119  H11   S    
C82   H117  S    
C119  H127  S    
C120  H12   S    
C45   O33   A    
C53   C69   S    
C104  O8    A    
C43   C63   S    
C44   C64   S    
Cr6   O6    S    
C80   H100  S    
C63   C98   S    
Cr2   O2    S    
C31   H40   S    
C28   C40   S    
C36   H36   S    
C30   C38   S    
Cr9   O33   S    
C56   C72   S    
C21   H5    S    
C8    H132  S    
C18   C118  S    
C81   C86   S    
C5    H129  S    
C83   C88   S    
C48   O32   A    
C74   H82   S    
C89   O1    A    
C41   C49   S    
C111  H3    S    
C54   H86   S    
Cr1   O45   S    
C114  H122  S    
Cr2   O42   S    
C109  H1    S    
Cr4   O48   S    
C88   H109  S    
C26   C38   S    
Cr10  O34   S    
C120  H128  S    
Cr11  O39   S    
C60   C76   S    
C24   H8    S    
Cr8   O52   S    
C30   H37   S    
C54   C70   S    
C48   O36   A    
C68   C72   S    
C23   H139  S    
C97   O45   A    
C13   C21   S    
C87   H115  S    
C79   H99   S    
C31   H25   S    
C64   C97   S    
C36   H29   S    
C15   C115  S    
C20   C120  S    
C116  H124  S    
C101  O5    A    
C59   C63   S    
C70   H94   S    
Cr4   O20   S    
C57   C61   S    
C118  H126  S    
C82   C85   S    
Cr6   O50   S    
C77   H97   S    
Cr11  O19   S    
C60   C64   S    
Cr9   O13   S    
C13   C45   S    
C102  O6    A    
C78   C94   S    
C43   H51   S    
C95   C108  S    
C113  H89   S    
C62   C99   S    
C107  O43   A    
C5    C21   S    
C58   H70   S    
C110  H46   S    
C31   C36   S    
C47   O35   A    
C4    O28   A    
Cr5   O17   S    
C90   O38   A    
C54   H62   S    
Cr1   O21   S    
C80   H104  S    
Cr2   O18   S    
C65   C101  S    
Cr10  O14   S    
Cr3   O23   S    
Cr11  O11   S    
C67   C103  S    
C66   C70   S    
C37   C90   S    
C24   H140  S    
C73   H77   S    
C66   C74   S    
C117  H125  S    
C25   H17   S    
C57   C73   S    
C121  O53   D    
C85   C93   S    
C60   H72   S    
C56   H88   S    
C55   C63   S    
C6    H134  S    
C56   C64   S    
C7    H131  S    
Cr7   O51   S    
C42   C62   S    
C8    C12   S    
C112  H48   S    
Cr5   O29   S    
C76   H80   S    
C19   C123  S    
C70   H66   S    
C56   H64   S    
C84   H119  S    
C85   H113  S    
C1    C12   S    
C43   H43   S    
C112  H4    S    
C2    C11   S    
C77   H101  S    
Cr3   O3    S    
C7    C11   S    
C53   H85   S    
C6    H130  S    
C42   H42   S    
Cr9   O37   S    
C124  H144  S    
C55   H87   S    
C25   C26   S    
C85   H112  S    
C105  O13   A    
C107  O15   A    
C5    C9    S    
C108  O16   A    
C59   H71   S    
C93   C106  S    
C88   H116  S    
C123  O55   D    
C78   H102  S    
C90   O2    A    
C51   C67   S    
C7    H135  S    
C42   C50   S    
Cr2   O46   S    
Cr3   O43   S    
C110  H2    S    
C61   C100  S    
C67   C75   S    
C91   O3    A    
C50   H54   S    
C112  C116  S    
C51   H59   S    
C58   C74   S    
Cr10  O38   S    
C59   H75   S    
C41   H41   S    
C33   H33   S    
C44   H44   S    
C122  H142  S    
C17   C117  S    
C68   C76   S    
C13   C17   S    
C98   O46   A    
C14   C22   S    
C3    O23   A    
C7    C23   S    
C8    C24   S    
C40   C91   S    
C101  O9    A    
Cr7   O27   S    
C99   O51   A    
Cr8   O20   S    
C49   H53   S    
C57   H69   S    
C52   H56   S    
Cr7   O7    S    
C4    C9    S    
Cr4   O24   S    
Cr8   O8    S    
C58   C62   S    
C111  H47   S    
C88   C96   S    
C94   C105  S    
C59   C75   S    
C83   H120  S    
C53   H61   S    
C12   C112  S    
C81   H118  S    
C41   H49   S    
C21   H137  S    
C14   C46   S    
C77   C78   S    
C42   H50   S    
C15   C19   S    
C115  H91   S    
C75   H79   S    
C1    O25   A    
C58   H74   S    
C6    C22   S    
C2    O22   A    
Cr11  O35   S    
Cr6   O18   S    
C86   H111  S    
Cr8   O28   S    
Cr2   O22   S    
C15   C47   S    
Cr3   O19   S    
C46   O34   A    
C20   C124  S    
C19   C119  S    
C27   H23   S    
C73   H81   S    
Cr12  O36   S    
C16   C116  S    
C9    C109  S    
C113  H121  S    
C25   H21   S    
C26   H18   S    
C105  O41   A    
C60   H76   S    
C87   H110  S    
C54   C62   S    
C18   H14   S    
Cr3   O47   S    
C29   C34   S    
C108  O44   A    
C33   C37   S    
C41   C61   S    
C81   H107  S    
C79   C95   S    
C116  H92   S    
C117  H9    S    
C123  H143  S    
C17   C121  S    
Cr5   O25   S    
C76   H84   S    
Cr6   O30   S    
C114  H90   S    
Cr12  O12   S    
C32   H39   S    
C91   O39   A    
C100  O52   A    
C39   C92   S    
C27   H19   S    
C106  O14   A    
C14   C18   S    
C84   H106  S    
C68   C104  S    
C69   H93   S    
C17   H13   S    
C6    C10   S    
C71   H67   S    
C1    O21   A    
C78   H98   S    
C22   H6    S    
Cr5   O49   S    
C19   H15   S    
C14   C114  S    
C104  O12   A    
C43   C51   S    
Cr5   O5    S    
C65   C69   S    
C77   C93   S    
C10   C110  S    
C67   C71   S    
C121  H141  S    
C50   H58   S    
Cr1   O1    S    
C51   H55   S    
C3    O27   A    
C79   H103  S    
C109  H45   S    
C72   H96   S    
C29   C37   S    
C11   C111  S    
C34   H34   S    
C55   H63   S    
C9    C117  S    
C102  O10   A    
C35   C39   S    
C84   C87   S    
C103  O7    A    
C8    H136  S    
C11   C119  S    
C16   C48   S    
C29   H27   S    
C30   H28   S    
C38   C89   S    
C49   C65   S    
C74   H78   S    
C23   H7    S    
Cr7   O31   S    
C124  O56   D    
Cr8   O32   S    
C49   H57   S    
Cr1   O41   S    
C57   H73   S    
C65   C73   S    
C52   H60   S    
Cr4   O44   S    
C86   C94   S    
C25   C37   S    
C12   C120  S    
C27   C39   S    
C82   H108  S    
C35   H35   S    
Cr12  O20   S    
C55   C71   S    
C29   H38   S    
C80   C96   S    
C44   H52   S    
C52   C68   S    
C16   C20   S    
C22   H138  S    
C15   C23   S    
Cr9   O17   S    
C86   H114  S    
C69   H65   S    
C53   C61   S    
C2    O26   A    
C103  O11   A    
C32   H26   S    
C35   H30   S    
C32   C35   S    
C36   C40   S    
C33   H32   S    
C122  O54   D    
C34   H31   S    
C97   O49   A    
C66   C102  S    
Cr7   O19   S    
C87   C95   S    
C99   O47   A    
C46   O30   A    
C10   C118  S    
C72   H68   S    
C81   C93   S    
C83   C95   S    
Cr10  O18   S    
C20   H16   S    
Cr12  O40   S    
Cr9   O9    S    
C50   C66   S    
C100  O48   A    
C28   H20   S    
C45   O29   A    
C26   H22   S    
C92   O4    A    
C84   C96   S    
C106  O42   A    
C92   O40   A    
C110  C114  S    
C30   C33   S    
C34   C38   S    
C71   H95   S    
C96   C107  S    
C47   O31   A    
C4    O24   A    
C118  H10   S    
C89   O37   A    
Cr6   O26   S    
C109  C113  S    
Cr1   O17   S    
Cr10  O10   S    
C3    C10   S    
Cr11  O15   S    
Cr4   O4    S    
C44   C52   S    
Cr12  O16   S    
C75   H83   S    
C31   C39   S    
C32   C40   S    
C18   C122  S    
C79   C80   S    
C115  H123  S    
C98   O50   A    
C16   C24   S    
C27   C28   S    
C28   H24   S    
C111  C115  S    
C13   C113  S    
