data_str_m9_o16_o26_f0_sra.sym.7
_audit_creation_date              2012-12-11T15:15:47-0500
_audit_creation_method            fapswitch 2.2
_symmetry_space_group_name_H-M    P1
_symmetry_Int_Tables_number       1
_space_group_crystal_system       triclinic
_cell_length_a                    20.637521
_cell_length_b                    22.759603
_cell_length_c                    6.943564
_cell_angle_alpha                 90.000703
_cell_angle_beta                  87.265321
_cell_angle_gamma                 89.999833
_cell_volume                      3257.690252

loop_
_atom_site_label
_atom_site_type_symbol
_atom_type_description
_atom_site_fract_x
_atom_site_fract_y
_atom_site_fract_z
_atom_type_partial_charge
O1    O     O_R   0.387100 0.552640 0.378490 -0.535612
O2    O     O_R   0.612900 0.052640 0.621510 -0.535613
O3    O     O_R   0.249610 0.559600 0.072250 -0.548161
O4    O     O_R   0.750390 0.059600 0.927750 -0.548170
O5    O     O_R   0.249120 0.447360 0.902040 -0.542939
O6    O     O_R   0.750880 0.947360 0.097960 -0.542928
C1    C     C_R   0.226924 0.573329 0.243666 0.699948
C2    C     C_R   0.773075 0.073329 0.756335 0.699944
O7    O     O_R   0.386610 0.559560 0.048860 -0.536682
O8    O     O_R   0.613390 0.059560 0.951140 -0.536684
O9    O     O_R   0.387100 0.447320 0.878470 -0.535860
O10   O     O_R   0.612900 0.947320 0.121530 -0.535862
C3    C     C_R   0.407807 0.574790 0.214631 0.690952
C4    C     C_R   0.592193 0.074790 0.785371 0.690949
O11   O     O_R   0.249120 0.552680 0.402050 -0.542582
O12   O     O_R   0.750880 0.052680 0.597950 -0.542578
O13   O     O_3   0.318110 0.463180 0.223790 -0.369268
O14   O     O_3   0.681890 0.963180 0.776210 -0.369256
V1    V     V_3+5 0.318110 0.506830 0.948930 1.416666
V2    V     V_3+5 0.681890 0.006830 0.051070 1.416672
O15   O     O_R   0.386610 0.440400 0.548840 -0.537834
O16   O     O_R   0.613390 0.940400 0.451160 -0.537841
C5    C     C_R   0.407877 0.425217 0.714595 0.697579
C6    C     C_R   0.592123 0.925217 0.285403 0.697559
O17   O     O_R   0.249610 0.440440 0.572240 -0.546755
O18   O     O_R   0.750390 0.940440 0.427760 -0.546734
C7    C     C_R   0.226728 0.427012 0.743772 0.685336
C8    C     C_R   0.773268 0.927011 0.256227 0.685328
V3    V     V_3+5 0.318110 0.493170 0.448930 1.416467
V4    V     V_3+5 0.681890 0.993170 0.551070 1.416495
O19   O     O_3   0.318110 0.536820 0.723940 -0.369169
O20   O     O_3   0.681890 0.036820 0.276060 -0.369176
C9    C     C_R   0.170748 0.386672 0.757879 -0.046556
C10   C     C_R   0.829239 0.886665 0.242121 -0.046545
C11   C     C_R   0.154777 0.352577 0.597981 -0.183860
C12   C     C_R   0.845070 0.852425 0.401805 -0.183885
C13   C     C_R   0.099734 0.316957 0.606805 -0.128790
C14   C     C_R   0.900107 0.816796 0.393032 -0.128715
C15   C     C_R   0.059400 0.315220 0.775250 0.163992
C16   C     C_R   0.940575 0.815197 0.224852 0.163928
C17   C     C_R   0.075006 0.349313 0.934612 -0.151999
C18   C     C_R   0.925105 0.849440 0.065705 -0.152009
C19   C     C_R   0.130647 0.384279 0.927021 -0.171047
C20   C     C_R   0.869470 0.884414 0.073239 -0.171017
C21   C     C_R   0.901556 0.180976 0.905759 0.338962
C22   C     C_R   0.098427 0.680962 0.094262 0.338935
C23   C     C_R   0.846852 0.144426 0.909703 -0.191091
C24   C     C_R   0.153139 0.644421 0.090312 -0.191086
C25   C     C_R   0.865673 0.121600 0.571331 -0.168342
C26   C     C_R   0.134317 0.621586 0.428676 -0.168348
C27   C     C_R   0.920773 0.157127 0.565784 -0.183358
C28   C     C_R   0.079208 0.657101 0.434226 -0.183306
C29   C     C_R   0.938745 0.187913 0.729863 0.079417
C30   C     C_R   0.061231 0.687883 0.270149 0.079396
C31   C     C_2   0.999958 0.279281 0.787191 -0.221001
C32   C     C_2   0.000019 0.779255 0.212968 -0.220912
C33   C     C_2   0.997385 0.225281 0.710241 -0.214932
C34   C     C_2   0.002577 0.725232 0.289747 -0.214976
C35   C     C_R   0.828378 0.114617 0.743769 -0.114881
C36   C     C_R   0.171616 0.614611 0.256239 -0.114869
H1    H     H_    0.184537 0.353747 0.465251 0.126457
H2    H     H_    0.815201 0.853485 0.534327 0.126452
H3    H     H_    0.819916 0.137732 0.045581 0.139001
H4    H     H_    0.180081 0.637736 0.954437 0.138996
H5    H     H_    0.853322 0.098454 0.441800 0.140738
H6    H     H_    0.146673 0.598441 0.558203 0.140741
H7    H     H_    0.038645 0.208430 0.624247 0.135594
H8    H     H_    0.961299 0.708342 0.375558 0.135569
H9    H     H_    0.044240 0.348573 0.065506 0.108553
H10   H     H_    0.955976 0.848815 0.935026 0.108612
H11   H     H_    0.141370 0.410471 0.051808 0.124638
H12   H     H_    0.858857 0.910729 0.948643 0.124634
H13   H     H_    0.958392 0.296689 0.869760 0.152288
H14   H     H_    0.041612 0.796683 0.130579 0.152233
H15   H     H_    0.087925 0.292006 0.480405 0.106838
H16   H     H_    0.911803 0.791731 0.519288 0.106860
H17   H     H_    0.949703 0.160713 0.432148 0.157347
H18   H     H_    0.050276 0.660681 0.567859 0.157347
C37   C     C_R   0.576365 0.361430 0.672015 -0.162260
C38   C     C_R   0.423635 0.861430 0.327996 -0.162262
H19   H     H_    0.535043 0.447525 0.652927 0.106915
H20   H     H_    0.464958 0.947525 0.347084 0.106916
H21   H     H_    0.666736 0.278701 0.666188 0.123014
H22   H     H_    0.333264 0.778702 0.333835 0.123011
H23   H     H_    0.625203 0.377798 0.643498 0.110969
H24   H     H_    0.374797 0.877799 0.356522 0.110967
C39   C     C_R   0.461502 0.382029 0.714565 -0.039389
C40   C     C_R   0.538498 0.882029 0.285432 -0.039383
C41   C     C_R   0.475110 0.095129 0.821764 -0.163811
C42   C     C_R   0.524890 0.595128 0.178230 -0.163807
C43   C     C_R   0.421683 0.132411 0.828978 -0.121965
C44   C     C_R   0.578317 0.632410 0.171009 -0.121969
C45   C     C_R   0.429403 0.192731 0.801676 -0.157309
C46   C     C_R   0.570597 0.692731 0.198312 -0.157313
C47   C     C_R   0.491547 0.217718 0.765679 0.078124
C48   C     C_R   0.508453 0.717718 0.234318 0.078125
C49   C     C_R   0.546447 0.178911 0.757102 0.069337
C50   C     C_R   0.453553 0.678911 0.242902 0.069337
C51   C     C_R   0.500989 0.279804 0.738172 0.074165
C52   C     C_R   0.499011 0.779804 0.261826 0.074166
C53   C     C_R   0.565110 0.301167 0.701525 0.140469
C54   C     C_R   0.434890 0.801167 0.298483 0.140470
C55   C     C_R   0.617817 0.262408 0.693882 -0.202015
C56   C     C_R   0.382184 0.762409 0.306132 -0.202017
C57   C     C_R   0.608776 0.202399 0.721429 -0.195689
C58   C     C_R   0.391224 0.702399 0.278585 -0.195691
C59   C     C_R   0.449413 0.321692 0.745009 -0.216416
C60   C     C_R   0.550587 0.821693 0.254982 -0.216423
C61   C     C_R   0.525085 0.401321 0.677651 -0.169196
C62   C     C_R   0.474915 0.901322 0.322356 -0.169193
C63   C     C_R   0.537662 0.117317 0.785746 -0.084365
C64   C     C_R   0.462338 0.617316 0.214257 -0.084366
H25   H     H_    0.399500 0.308989 0.771897 0.092287
H26   H     H_    0.600500 0.808989 0.228088 0.092280
H27   H     H_    0.467614 0.048472 0.844777 0.105993
H28   H     H_    0.532386 0.548471 0.155216 0.105993
H29   H     H_    0.385672 0.218603 0.809788 0.106960
H30   H     H_    0.614328 0.718602 0.190194 0.106953
H31   H     H_    0.373603 0.114361 0.856736 0.117104
H32   H     H_    0.626397 0.614360 0.143245 0.117100
H33   H     H_    0.651260 0.174411 0.714240 0.109183
H34   H     H_    0.348740 0.674411 0.285779 0.109182
N1    N     N_2   0.921729 0.204918 0.083140 -0.544354
H35   H     H_    0.970020 0.215709 0.090200 0.261714
C65   C     C_3   0.877252 0.245805 0.179587 -0.586555
H36   H     H_    0.899166 0.263295 0.310896 0.206931
H37   H     H_    0.831211 0.223500 0.224971 0.209146
H38   H     H_    0.866704 0.283152 0.083073 0.190891
N2    N     N_2   0.078254 0.704913 0.916892 -0.544324
H39   H     H_    0.029963 0.715708 0.909853 0.261753
C66   C     C_3   0.122727 0.745810 0.820486 -0.586509
H40   H     H_    0.100820 0.763292 0.689156 0.206943
H41   H     H_    0.168779 0.723518 0.775139 0.209125
H42   H     H_    0.133251 0.783161 0.917013 0.190867

loop_
_geom_bond_atom_site_label_1
_geom_bond_atom_site_label_2
_ccdc_geom_bond_type
V4    O20   S    
C41   H27   S    
O13   V3    S    
C42   C64   A    
O4    C2    A    
C66   H42   S    
V1    O19   S    
C22   N2    S    
C56   C58   A    
N1    H35   S    
C15   C17   A    
C14   H16   S    
C21   N1    S    
O9    V1    S    
C25   H5    S    
O10   V2    S    
H20   C62   S    
O16   C6    A    
C11   C13   A    
N2    H39   S    
C3    C64   S    
O3    C1    A    
C2    C35   S    
C23   H3    S    
C49   C63   A    
C47   C51   A    
C24   H4    S    
O12   V4    S    
C18   H10   S    
C60   H26   S    
O7    C3    A    
C59   H25   S    
C38   H24   S    
C9    C11   A    
O5    C7    A    
O7    V1    S    
O6    C8    A    
O8    V2    S    
C16   C32   S    
C45   H29   S    
C48   C50   A    
C65   H38   S    
C26   C28   A    
O3    V1    S    
O14   V4    S    
C42   H28   S    
C41   C43   A    
C10   C12   A    
C24   C36   A    
C40   C62   A    
C16   C18   A    
C13   H15   S    
C8    C10   S    
C45   C47   A    
C5    C39   S    
C17   C19   A    
C22   C30   A    
C18   C20   A    
C33   H7    S    
C28   H18   S    
O1    V3    S    
C28   C30   A    
O11   V3    S    
C21   C23   A    
O17   V3    S    
C4    C63   S    
C13   C15   A    
C22   C24   A    
C52   C60   A    
C23   C35   A    
C32   H14   S    
C37   C61   A    
C57   H33   S    
C9    C19   A    
C50   C64   A    
C11   H1    S    
O8    C4    A    
C29   C33   S    
C1    O11   A    
C12   H2    S    
C25   C27   A    
O15   V3    S    
C7    C9    S    
C38   C54   A    
C27   C29   A    
C31   H13   S    
C54   C56   A    
C27   H17   S    
C43   C45   A    
C6    C40   S    
C42   C44   A    
C58   H34   S    
C44   C46   A    
C10   C20   A    
C55   C57   A    
C46   C48   A    
C26   H6    S    
H21   C55   S    
O5    V1    S    
C34   H8    S    
C51   C53   A    
H19   C61   S    
O18   V4    S    
C31   C33   D    
C65   H36   S    
H22   C56   S    
C43   H31   S    
O1    C3    A    
C66   H40   S    
C1    C36   S    
C37   H23   S    
C51   C59   A    
C17   H9    S    
C52   C54   A    
V2    O20   S    
C41   C63   A    
C19   H11   S    
O16   V4    S    
C66   H41   S    
C39   C59   A    
C25   C35   A    
C47   C49   A    
C39   C61   A    
C15   C31   S    
O6    V2    S    
O10   C6    A    
O18   C8    A    
C50   C58   A    
C53   C55   A    
O2    V4    S    
C26   C36   A    
O15   C5    A    
C44   H32   S    
C49   C57   A    
V3    O19   S    
C12   C14   A    
C14   C16   A    
C46   H30   S    
C40   C60   A    
C48   C52   A    
O9    C5    A    
O13   V1    S    
C32   C34   D    
C20   H12   S    
O14   V2    S    
O2    C4    A    
N1    C65   S    
C21   C29   A    
O4    V2    S    
C30   C34   S    
C2    O12   A    
C38   C62   A    
C65   H37   S    
C37   C53   A    
N2    C66   S    
O17   C7    A    
