data_str_m2_o16_o16_f0_pcu.sym.198
_audit_creation_date              2012-12-10T17:31:24-0500
_audit_creation_method            fapswitch 2.2
_symmetry_space_group_name_H-M    P1
_symmetry_Int_Tables_number       1
_space_group_crystal_system       triclinic
_cell_length_a                    18.992491
_cell_length_b                    18.434541
_cell_length_c                    12.35936
_cell_angle_alpha                 89.999988
_cell_angle_beta                  129.209091
_cell_angle_gamma                 90.000018
_cell_volume                      3352.93106603

loop_
_atom_site_label
_atom_site_type_symbol
_atom_type_description
_atom_site_fract_x
_atom_site_fract_y
_atom_site_fract_z
_atom_type_partial_charge
C1    C     C_R   0.614472 0.899571 0.655545 0.803824
C2    C     C_R   0.614472 0.100429 0.655545 0.803824
C3    C     C_R   0.114472 0.399571 0.655545 0.803824
C4    C     C_R   0.114472 0.600429 0.655545 0.803823
C5    C     C_R   0.243687 0.778677 0.034750 0.086266
C6    C     C_R   0.243686 0.221322 0.034748 0.086266
C7    C     C_R   0.743686 0.278678 0.034749 0.086265
C8    C     C_R   0.743686 0.721322 0.034749 0.086266
C9    C     C_R   0.658825 0.282650 0.006648 0.165240
C10   C     C_R   0.658825 0.717350 0.006648 0.165240
C11   C     C_R   0.158825 0.782651 0.006647 0.165239
C12   C     C_R   0.158825 0.217350 0.006648 0.165239
C13   C     C_R   0.582086 0.251306 0.885826 -0.238600
C14   C     C_R   0.582086 0.748693 0.885824 -0.238600
C15   C     C_R   0.082086 0.751308 0.885822 -0.238599
C16   C     C_R   0.082086 0.248693 0.885824 -0.238600
C17   C     C_R   0.589227 0.212872 0.796693 -0.187983
C18   C     C_R   0.589228 0.787128 0.796693 -0.187983
C19   C     C_R   0.089228 0.712873 0.796692 -0.187983
C20   C     C_R   0.089228 0.287128 0.796692 -0.187983
C21   C     C_R   0.318947 0.811925 0.156225 -0.254233
C22   C     C_R   0.318946 0.188074 0.156223 -0.254233
C23   C     C_R   0.818946 0.311926 0.156223 -0.254234
C24   C     C_R   0.818947 0.688075 0.156223 -0.254233
C25   C     C_R   0.226391 0.855275 0.214571 -0.195328
C26   C     C_R   0.226392 0.144726 0.214573 -0.195329
C27   C     C_R   0.726392 0.355273 0.214574 -0.195329
C28   C     C_R   0.726391 0.644726 0.214572 -0.195329
C29   C     C_R   0.684414 0.155384 0.748039 -0.112431
C30   C     C_R   0.684415 0.844617 0.748040 -0.112431
C31   C     C_R   0.184415 0.655383 0.748041 -0.112430
C32   C     C_R   0.184415 0.344617 0.748040 -0.112431
C33   C     C_R   0.684854 1.000000 0.286600 -0.306437
C34   C     C_R   0.184854 0.500000 0.286600 -0.306437
C35   C     C_R   0.343353 0.000000 0.627185 0.072697
C36   C     C_R   0.843353 0.500000 0.627185 0.072697
C37   C     C_R   0.308840 0.000000 0.698652 -0.252941
C38   C     C_R   0.808840 0.500000 0.698652 -0.252941
C39   C     C_R   0.383913 0.098517 0.342186 0.787022
C40   C     C_R   0.383913 0.901483 0.342186 0.787022
C41   C     C_R   0.883913 0.598517 0.342186 0.787022
C42   C     C_R   0.883913 0.401483 0.342186 0.787023
C43   C     C_R   0.367650 0.000000 0.844298 -0.186037
C44   C     C_R   0.867651 0.500000 0.844298 -0.186037
C45   C     C_R   0.462518 1.000000 0.921152 -0.007233
C46   C     C_R   0.962518 0.500000 0.921152 -0.007233
C47   C     C_R   0.494832 0.000000 0.842953 0.287468
C48   C     C_R   0.994832 0.500000 0.842953 0.287468
C49   C     C_R   0.526396 0.000000 0.072009 -0.038395
C50   C     C_R   0.026396 0.500000 0.072009 -0.038395
C51   C     C_R   0.620644 0.000000 0.140360 0.175824
C52   C     C_R   0.120644 0.500000 0.140360 0.175824
C53   C     C_R   0.650629 0.000000 0.062730 -0.271352
C54   C     C_R   0.150629 0.500000 0.062730 -0.271352
C55   C     C_R   0.589370 0.000000 0.917897 -0.169325
C56   C     C_R   0.089370 0.500000 0.917897 -0.169325
C57   C     C_R   0.501612 0.000000 0.159380 0.015516
C58   C     C_R   0.001612 0.500000 0.159380 0.015516
C59   C     C_R   0.656123 0.000000 0.365817 0.083671
C60   C     C_R   0.156123 0.500000 0.365817 0.083671
C61   C     C_R   0.651269 0.319680 0.098158 -0.197945
C62   C     C_R   0.651269 0.680319 0.098157 -0.197945
C63   C     C_R   0.151269 0.819682 0.098155 -0.197946
C64   C     C_R   0.151270 0.180319 0.098157 -0.197946
C65   C     C_R   0.309729 0.852868 0.241187 -0.046310
C66   C     C_R   0.309729 0.147132 0.241187 -0.046311
C67   C     C_R   0.809729 0.352867 0.241188 -0.046311
C68   C     C_R   0.809729 0.647132 0.241187 -0.046310
C69   C     C_R   0.766764 0.155631 0.768700 0.165910
C70   C     C_R   0.766765 0.844370 0.768702 0.165910
C71   C     C_R   0.266766 0.655628 0.768705 0.165909
C72   C     C_R   0.266765 0.344371 0.768703 0.165911
C73   C     C_R   0.337673 0.700798 0.869272 -0.201890
C74   C     C_R   0.337671 0.299199 0.869268 -0.201889
C75   C     C_R   0.837669 0.200804 0.869264 -0.201889
C76   C     C_R   0.837671 0.799198 0.869267 -0.201888
C77   C     C_R   0.330713 0.742214 0.955642 -0.219181
C78   C     C_R   0.330711 0.257783 0.955637 -0.219182
C79   C     C_R   0.830710 0.242218 0.955635 -0.219181
C80   C     C_R   0.830711 0.757783 0.955637 -0.219181
C81   C     C_R   0.750615 0.241454 0.941183 0.082996
C82   C     C_R   0.750615 0.758547 0.941184 0.082995
C83   C     C_R   0.250617 0.741452 0.941186 0.082996
C84   C     C_R   0.250615 0.258547 0.941183 0.082996
C85   C     C_R   0.674143 0.202727 0.827889 0.029932
C86   C     C_R   0.674143 0.797273 0.827889 0.029932
C87   C     C_R   0.174144 0.702727 0.827890 0.029932
C88   C     C_R   0.174143 0.297273 0.827889 0.029932
Cu1   Cu    Cu3+1 0.526340 0.000000 0.421010 0.954913
Cu2   Cu    Cu3+1 0.026340 0.500000 0.421010 0.954913
Cu3   Cu    Cu3+1 0.473640 0.000000 0.578990 0.915868
Cu4   Cu    Cu3+1 0.973640 0.500000 0.578990 0.915869
H1    H     H_    0.218348 0.887312 0.279606 0.142997
H2    H     H_    0.218350 0.112691 0.279610 0.142997
H3    H     H_    0.718350 0.387309 0.279610 0.142997
H4    H     H_    0.718349 0.612690 0.279609 0.142997
H5    H     H_    0.722745 0.000000 0.114711 0.151934
H6    H     H_    0.222745 0.500000 0.114711 0.151935
H7    H     H_    0.757065 0.000000 0.339486 0.137410
H8    H     H_    0.257065 0.500000 0.339486 0.137410
H9    H     H_    0.431461 1.000000 0.116102 0.126497
H10   H     H_    0.931461 0.500000 0.116102 0.126497
H11   H     H_    0.296980 0.000000 0.514233 0.117945
H12   H     H_    0.796980 0.500000 0.514233 0.117945
H13   H     H_    0.337155 0.000000 0.893997 0.138213
H14   H     H_    0.837155 0.500000 0.893997 0.138213
H15   H     H_    0.619579 1.000000 0.868906 0.205923
H16   H     H_    0.119579 0.500000 0.868905 0.205923
H17   H     H_    0.516114 0.256474 0.859897 0.135555
H18   H     H_    0.516113 0.743525 0.859895 0.135555
H19   H     H_    0.016113 0.756477 0.859892 0.135554
H20   H     H_    0.016114 0.243525 0.859895 0.135554
H21   H     H_    0.586618 0.323105 0.077065 0.128046
H22   H     H_    0.586618 0.676893 0.077062 0.128046
H23   H     H_    0.086617 0.823109 0.077059 0.128047
H24   H     H_    0.086618 0.176894 0.077064 0.128047
H25   H     H_    0.385981 0.808215 0.186870 0.144606
H26   H     H_    0.385979 0.191782 0.186866 0.144607
H27   H     H_    0.885979 0.308217 0.186866 0.144607
H28   H     H_    0.885980 0.691783 0.186867 0.144607
H29   H     H_    0.388939 0.775308 0.030842 0.141217
H30   H     H_    0.388936 0.224688 0.030835 0.141218
H31   H     H_    0.888935 0.275314 0.030832 0.141218
H32   H     H_    0.888936 0.724687 0.030835 0.141218
H33   H     H_    0.400213 0.701896 0.883881 0.129853
H34   H     H_    0.400211 0.298101 0.883875 0.129854
H35   H     H_    0.900209 0.201903 0.883869 0.129854
H36   H     H_    0.900210 0.798099 0.883873 0.129853
H37   H     H_    0.526677 0.192668 0.701521 0.170784
H38   H     H_    0.526677 0.807331 0.701520 0.170784
H39   H     H_    0.026678 0.692670 0.701519 0.170783
H40   H     H_    0.026677 0.307331 0.701520 0.170784
H41   H     H_    0.705601 0.000000 0.478515 0.159675
H42   H     H_    0.205601 0.500000 0.478515 0.159675
N1    N     N_R   0.566260 0.000000 0.302220 -0.180493
N2    N     N_R   0.066260 0.500000 0.302220 -0.180493
N3    N     N_R   0.434410 0.000000 0.697680 -0.204454
N4    N     N_R   0.934410 0.500000 0.697680 -0.204454
O1    O     O_R   0.608610 0.924520 0.551740 -0.538856
O2    O     O_R   0.608610 0.075480 0.551740 -0.538856
O3    O     O_R   0.108610 0.424520 0.551740 -0.538856
O4    O     O_R   0.108610 0.575480 0.551740 -0.538855
O5    O     O_R   0.564110 0.924510 0.685150 -0.609995
O6    O     O_R   0.564110 0.075490 0.685150 -0.609995
O7    O     O_R   0.064110 0.424510 0.685150 -0.609995
O8    O     O_R   0.064110 0.575490 0.685150 -0.609994
O9    O     O_R   0.435880 0.075470 0.314850 -0.585508
O10   O     O_R   0.435880 0.924530 0.314850 -0.585507
O11   O     O_R   0.935880 0.575470 0.314850 -0.585507
O12   O     O_R   0.935880 0.424530 0.314850 -0.585508
O13   O     O_R   0.391380 0.075460 0.448260 -0.593543
O14   O     O_R   0.391380 0.924540 0.448260 -0.593543
O15   O     O_R   0.891380 0.575460 0.448260 -0.593543
O16   O     O_R   0.891380 0.424540 0.448260 -0.593543
H43   H     H_    0.236073 0.000000 0.640803 0.143556
H44   H     H_    0.736073 0.500000 0.640803 0.143556
N5    N     N_3   0.780120 0.108490 0.690813 -0.583256
H45   H     H_    0.836121 0.075279 0.761303 0.202238
H46   H     H_    0.795687 0.140408 0.638494 0.213351
N6    N     N_3   0.780121 0.891512 0.690817 -0.583256
H47   H     H_    0.836121 0.924723 0.761307 0.202238
H48   H     H_    0.795690 0.859594 0.638498 0.213350
N7    N     N_3   0.280122 0.608486 0.690820 -0.583257
H49   H     H_    0.336120 0.575273 0.761309 0.202238
H50   H     H_    0.295694 0.640403 0.638505 0.213351
N8    N     N_3   0.280122 0.391514 0.690820 -0.583256
H51   H     H_    0.336122 0.424726 0.761311 0.202237
H52   H     H_    0.295692 0.359597 0.638502 0.213350

loop_
_geom_bond_atom_site_label_1
_geom_bond_atom_site_label_2
_ccdc_geom_bond_type
C26   H2    S    
Cu1   O10   S    
C34   C60   A    
C25   H1    S    
N5    H45   S    
C64   H24   S    
C2    O6    A    
C14   C18   A    
C53   C55   A    
C27   H3    S    
N7    H49   S    
C3    O3    A    
C38   H44   S    
Cu2   O12   S    
Cu4   N4    S    
C32   C72   A    
C74   H34   S    
C15   C19   A    
C18   C86   A    
C71   N7    S    
C2    C29   S    
C9    C61   A    
C28   C68   A    
C5    C11   A    
C35   H11   S    
C4    O4    A    
Cu3   O14   S    
C12   C64   A    
C73   H33   S    
C41   O11   A    
C77   C83   A    
C21   H25   S    
C6    C22   A    
C39   O13   A    
C49   C57   A    
C40   O14   A    
C14   H18   S    
C43   H13   S    
C23   C67   A    
C29   C69   A    
C9    C13   A    
C56   H16   S    
C13   H17   S    
C27   C61   A    
Cu3   N3    S    
C11   C15   A    
Cu3   O5    S    
C22   C66   A    
C12   C16   A    
C44   C46   A    
Cu1   O1    S    
C69   N5    S    
C76   C80   A    
Cu4   O15   S    
C58   H10   S    
C30   C86   A    
C60   N2    A    
C29   C85   A    
C1    O1    A    
C63   H23   S    
C31   C71   A    
C42   O16   A    
C33   C59   A    
N8    H52   S    
C10   C62   A    
C37   H43   S    
C20   H40   S    
Cu2   O11   S    
C78   H30   S    
C6    C12   A    
C21   C65   A    
C30   C70   A    
C52   C54   A    
C41   C68   S    
C46   C48   A    
C45   C47   A    
C19   H39   S    
Cu2   Cu4   S    
C54   C56   A    
C24   H28   S    
C6    C84   A    
C40   O10   A    
Cu4   O8    S    
C26   C66   A    
C15   H19   S    
C31   C87   A    
C72   C74   A    
C10   C14   A    
C79   C81   A    
C77   H29   S    
C49   C51   A    
C82   C86   A    
C79   H31   S    
C59   H41   S    
C55   H15   S    
C33   H7    S    
N6    H48   S    
C37   C43   A    
C34   H8    S    
C38   C44   A    
C1    O5    A    
C78   C84   A    
Cu2   N2    S    
C50   C52   A    
C45   C49   A    
C16   C20   A    
Cu1   O2    S    
C4    O8    A    
C47   N3    A    
C50   C58   A    
C25   C65   A    
C43   C45   A    
Cu2   O4    S    
Cu1   N1    S    
C80   C82   A    
C7    C81   A    
C3    O7    A    
C44   H14   S    
C40   C65   S    
C61   H21   S    
N8    H51   S    
C76   H36   S    
C39   C66   S    
C17   C85   A    
C18   H38   S    
Cu1   Cu3   S    
C70   C76   A    
C39   O9    A    
C60   H42   S    
C16   H20   S    
C47   C55   A    
Cu3   O6    S    
C80   H32   S    
C35   C37   A    
Cu1   O9    S    
C22   H26   S    
C41   O15   A    
N7    H50   S    
Cu4   O7    S    
C72   N8    S    
C8    C10   A    
C57   N1    A    
C84   C88   A    
C83   C87   A    
C5    C83   A    
C62   H22   S    
C26   C64   A    
C33   C51   A    
C57   H9    S    
C46   C50   A    
C34   C52   A    
C48   N4    A    
C28   H4    S    
C53   H5    S    
N6    H47   S    
C36   C38   A    
C19   C87   A    
C2    O2    A    
C35   N3    A    
Cu3   O13   S    
C25   C63   A    
C58   N2    A    
C36   H12   S    
C42   C67   S    
C75   C79   A    
C7    C23   A    
Cu2   O3    S    
C20   C88   A    
C59   N1    A    
C1    C30   S    
C8    C24   A    
C69   C75   A    
C70   N6    S    
C3    C32   S    
C42   O12   A    
C4    C31   S    
C27   C67   A    
C24   C68   A    
C13   C17   A    
C7    C9    A    
C8    C82   A    
C5    C21   A    
C48   C56   A    
N5    H46   S    
C74   C78   A    
C71   C73   A    
C73   C77   A    
C54   H6    S    
C23   H27   S    
Cu4   O16   S    
C51   C53   A    
C11   C63   A    
C36   N4    A    
C17   H37   S    
C81   C85   A    
C28   C62   A    
C75   H35   S    
C32   C88   A    
