data_str_m3_o12_o15_f0_pcu.sym.45
_audit_creation_date              2012-12-10T17:16:41-0500
_audit_creation_method            fapswitch 2.2
_symmetry_space_group_name_H-M    P1
_symmetry_Int_Tables_number       1
_space_group_crystal_system       triclinic
_cell_length_a                    10.246942
_cell_length_b                    10.420011
_cell_length_c                    10.551081
_cell_angle_alpha                 90.409132
_cell_angle_beta                  96.268899
_cell_angle_gamma                 81.440023
_cell_volume                      1107.31480623

loop_
_atom_site_label
_atom_site_type_symbol
_atom_type_description
_atom_site_fract_x
_atom_site_fract_y
_atom_site_fract_z
_atom_type_partial_charge
C1    C     C_R   0.443528 0.504917 0.265411 0.856516
C2    C     C_R   0.495596 0.740306 0.479616 0.902432
C3    C     C_R   0.750605 0.057097 0.592089 0.247091
C4    C     C_R   0.248478 0.942701 0.393136 0.249780
C5    C     C_R   0.864049 0.977298 0.559058 -0.240005
C6    C     C_R   0.134567 0.026589 0.418812 -0.234287
C7    C     C_R   0.854243 0.886699 0.462150 -0.230898
C8    C     C_R   0.141762 0.118548 0.514587 -0.230077
C9    C     C_R   0.729839 0.863045 0.407592 0.271230
C10   C     C_R   0.264863 0.137451 0.576314 0.278636
C11   C     C_R   0.614482 0.925704 0.458611 0.024307
C12   C     C_R   0.556702 0.487737 0.734275 0.845896
C13   C     C_R   0.382315 0.073291 0.530017 0.024776
C14   C     C_R   0.623889 0.036131 0.533640 0.031615
C15   C     C_R   0.373879 0.962376 0.455686 0.033964
C16   C     C_R   0.492015 0.877440 0.445356 -0.238048
C17   C     C_R   0.505713 0.120700 0.546454 -0.237336
C18   C     C_3   0.768861 0.152676 0.698187 -0.885102
C19   C     C_3   0.232516 0.844008 0.290091 -0.896621
C20   C     C_3   0.723374 0.779144 0.290473 -0.864037
C21   C     C_3   0.267556 0.216096 0.696700 -0.888271
C22   C     C_3   0.713943 0.506469 0.938994 -0.383904
C23   C     C_2   0.412526 0.492725 0.127844 -0.007976
C24   C     C_3   0.825472 0.392465 0.965609 -0.875787
C25   C     C_3   0.290297 0.573086 0.058006 -0.409794
C26   C     C_3   0.324542 0.690788 0.989953 -0.848492
C27   C     C_3   0.892672 0.591069 0.628876 -0.835883
C28   C     C_3   0.087674 0.483332 0.336852 -0.830966
C29   C     C_2   0.590036 0.463137 0.870558 0.004324
C30   C     C_2   0.503122 0.414571 0.068074 -0.178245
C31   C     C_2   0.499566 0.413073 0.930934 -0.191793
C32   C     C_2   0.063397 0.514211 0.472562 0.182373
C33   C     C_2   0.927330 0.514070 0.511744 0.202340
C34   C     C_R   0.503736 0.259011 0.518218 0.897307
H1    H     H_    0.051364 0.174841 0.541219 0.155769
H2    H     H_    0.673463 0.197430 0.731001 0.228176
H3    H     H_    0.829578 0.102218 0.781941 0.222120
H4    H     H_    0.328672 0.791288 0.266678 0.229710
H5    H     H_    0.171413 0.773516 0.321308 0.244796
H6    H     H_    0.181194 0.893053 0.201371 0.228136
H7    H     H_    0.771555 0.821839 0.214947 0.213825
H8    H     H_    0.776988 0.680115 0.312763 0.261312
H9    H     H_    0.619601 0.772375 0.251276 0.226096
H10   H     H_    0.213026 0.172525 0.766628 0.219805
H11   H     H_    0.370604 0.216556 0.741314 0.224995
H12   H     H_    0.943737 0.832755 0.431140 0.162728
H13   H     H_    0.218624 0.317161 0.676542 0.250173
H14   H     H_    0.793637 0.316227 0.023016 0.259384
H15   H     H_    0.855633 0.350122 0.874563 0.266054
H16   H     H_    0.912833 0.426862 0.019366 0.240827
H17   H     H_    0.749308 0.579097 0.879567 0.196034
H18   H     H_    0.691854 0.555666 0.029691 0.223112
H19   H     H_    0.388955 0.744853 0.055214 0.246964
H20   H     H_    0.375933 0.661219 0.905031 0.275457
H21   H     H_    0.231758 0.756845 0.957350 0.243184
H22   H     H_    0.237803 0.512156 0.988838 0.208996
H23   H     H_    0.960704 0.986875 0.607248 0.169056
H24   H     H_    0.219498 0.609986 0.126367 0.208388
H25   H     H_    0.925030 0.529281 0.715170 0.210953
H26   H     H_    0.942271 0.678854 0.637234 0.199482
H27   H     H_    0.788188 0.629755 0.628821 0.298279
H28   H     H_    0.163609 0.395885 0.333651 0.267878
H29   H     H_    0.998356 0.467226 0.273693 0.182171
H30   H     H_    0.117145 0.569300 0.294394 0.236508
H31   H     H_    0.039252 0.018099 0.366946 0.166128
H32   H     H_    0.409880 0.387712 0.878729 0.162427
H33   H     H_    0.590347 0.359901 0.121186 0.170547
H34   H     H_    0.874773 0.382646 0.381968 0.152440
H35   H     H_    0.141146 0.565301 0.645035 0.158663
H36   H     H_    0.821481 0.230088 0.665678 0.254108
N1    N     N_2   0.157300 0.551390 0.551120 -0.203081
N2    N     N_2   0.842700 0.448610 0.448880 -0.206731
O1    O     O_R   0.568940 0.489660 0.307530 -0.613673
O2    O     O_R   0.431060 0.510340 0.692470 -0.622065
O3    O     O_R   0.348880 0.522640 0.340350 -0.610960
O4    O     O_R   0.651120 0.477360 0.659650 -0.601566
O5    O     O_R   0.610030 0.300280 0.483580 -0.590029
O6    O     O_R   0.389970 0.699720 0.516420 -0.579024
O7    O     O_R   0.389970 0.333270 0.516400 -0.593863
O8    O     O_R   0.610030 0.666730 0.483600 -0.607394
Zn1   Zn    Zn3+2 0.646940 0.477980 0.478080 0.908471
Zn2   Zn    Zn3+2 0.353060 0.522020 0.521920 0.910169

loop_
_geom_bond_atom_site_label_1
_geom_bond_atom_site_label_2
_ccdc_geom_bond_type
C18   H36   S    
C31   H32   S    
C22   C29   S    
C12   O2    A    
C12   C29   S    
C25   H22   S    
C26   H21   S    
C20   H7    S    
C27   C33   S    
C18   H3    S    
C27   H26   S    
C34   O5    A    
C30   C31   S    
C11   C14   A    
C15   C16   A    
C3    C18   S    
H35   N1    S    
C27   H27   S    
C33   N2    D    
C4    C19   S    
C6    H31   S    
C2    C16   S    
C30   H33   S    
N1    Zn2   S    
C14   C17   A    
O2    Zn2   S    
C26   H20   S    
O1    Zn1   S    
C32   N1    D    
C21   H11   S    
C10   C21   S    
C24   H16   S    
C1    O3    A    
C23   C30   D    
C28   C32   S    
C4    C6    A    
C5    C7    A    
C6    C8    A    
C25   C26   S    
C8    H1    S    
C24   H14   S    
C7    H12   S    
C2    O6    A    
C19   H4    S    
C34   O7    A    
C21   H10   S    
C11   C16   A    
O6    Zn2   S    
C9    C20   S    
O5    Zn1   S    
H34   N2    S    
C9    C11   A    
C3    C14   A    
C19   H5    S    
C28   H30   S    
C1    C23   S    
C12   O4    A    
C22   C24   S    
C17   C34   S    
C26   H19   S    
C20   H9    S    
C22   H18   S    
C24   H15   S    
C7    C9    A    
N2    Zn1   S    
O8    Zn1   S    
C3    C5    A    
C10   C13   A    
O4    Zn1   S    
O7    Zn2   S    
C20   H8    S    
O3    Zn2   S    
C13   C17   A    
C5    H23   S    
C1    O1    A    
C32   C33   S    
C4    C15   A    
C13   C15   A    
C29   C31   D    
C27   H25   S    
C23   C25   S    
C2    O8    A    
C19   H6    S    
C28   H29   S    
C8    C10   A    
C25   H24   S    
C18   H2    S    
C22   H17   S    
C21   H13   S    
C28   H28   S    
