data_str_m2_o4_o14_f0_pcu.sym.118
_audit_creation_date              2012-12-10T18:59:13-0500
_audit_creation_method            fapswitch 2.2
_symmetry_space_group_name_H-M    P1
_symmetry_Int_Tables_number       1
_space_group_crystal_system       triclinic
_cell_length_a                    10.78837
_cell_length_b                    10.779198
_cell_length_c                    9.583016
_cell_angle_alpha                 90.574046
_cell_angle_beta                  90.044041
_cell_angle_gamma                 91.914719
_cell_volume                      1113.72991161

loop_
_atom_site_label
_atom_site_type_symbol
_atom_type_description
_atom_site_fract_x
_atom_site_fract_y
_atom_site_fract_z
_atom_type_partial_charge
C1    C     C_R   0.510336 0.263261 0.499318 0.850107
C2    C     C_R   0.061589 0.400853 0.587187 0.090628
C3    C     C_R   0.128148 0.485796 0.500695 -0.077585
C4    C     C_R   0.065852 0.564136 0.411514 -0.175453
C5    C     C_R   0.938092 0.564352 0.411423 -0.193747
C6    C     C_R   0.870339 0.485835 0.500093 -0.080711
C7    C     C_R   0.463627 0.064448 0.606607 0.091768
C8    C     C_R   0.524621 0.130120 0.500624 -0.235487
C9    C     C_R   0.601954 0.063811 0.407259 0.461740
C10   C     C_R   0.593332 0.933299 0.407982 -0.253874
C11   C     C_R   0.515705 0.870650 0.503279 -0.172704
C12   C     C_R   0.262432 0.495250 0.500226 0.811950
C13   C     C_R   0.460983 0.937302 0.609631 0.135799
C14   C     C_3   0.330800 0.929651 0.661926 -0.431952
C15   C     C_3   0.333238 0.070355 0.657558 -0.461780
C16   C     C_R   0.557567 0.594715 0.074947 0.184578
C17   C     C_R   0.432024 0.411483 0.069316 0.498344
C18   C     C_R   0.433284 0.414284 0.921479 -0.117444
C19   C     C_R   0.557756 0.594438 0.927907 0.243297
C20   C     C_3   0.691840 0.632190 0.922621 -0.452265
C21   C     C_3   0.691802 0.632234 0.081071 -0.467266
C22   C     C_R   0.502835 0.737415 0.500607 0.813161
C23   C     C_R   0.737100 0.495603 0.500027 0.789627
C24   C     C_R   0.121705 0.313408 0.670433 -0.185489
C25   C     C_R   0.053775 0.228603 0.751250 -0.098576
C26   C     C_R   0.925093 0.227726 0.749585 -0.086630
C27   C     C_R   0.863545 0.311804 0.667316 -0.114497
C28   C     C_R   0.930468 0.400489 0.586298 0.088410
Cu1   Cu    Cu3+1 0.499990 0.499980 0.640670 0.945802
Cu2   Cu    Cu3+1 0.500010 0.500020 0.359330 1.048641
H1    H     H_    0.116606 0.628127 0.344244 0.156837
H2    H     H_    0.325025 0.892470 0.769593 0.215393
H3    H     H_    0.328045 0.114326 0.762660 0.231087
H4    H     H_    0.384541 0.343504 0.860308 0.184377
H5    H     H_    0.750191 0.559203 0.876632 0.222094
H6    H     H_    0.706926 0.726254 0.877950 0.205380
H7    H     H_    0.707257 0.726271 0.127810 0.207154
H8    H     H_    0.101053 0.161659 0.813550 0.181494
H9    H     H_    0.872626 0.160207 0.810484 0.164887
H10   H     H_    0.763606 0.303019 0.664959 0.159169
H11   H     H_    0.891811 0.628682 0.344309 0.151603
H12   H     H_    0.647832 0.880100 0.335412 0.184685
N1    N     N_R   0.500790 0.500930 0.147930 -0.242617
N2    N     N_R   0.500790 0.500890 0.852020 -0.225731
O1    O     O_R   0.500000 0.319640 0.618810 -0.610525
O2    O     O_R   0.500010 0.319680 0.381230 -0.461843
O3    O     O_R   0.319640 0.499980 0.618820 -0.599601
O4    O     O_R   0.319650 0.500020 0.381230 -0.524936
O5    O     O_R   0.499990 0.680320 0.618770 -0.572995
O6    O     O_R   0.500000 0.680360 0.381190 -0.588716
O7    O     O_R   0.680350 0.499980 0.618770 -0.605117
O8    O     O_R   0.680360 0.500020 0.381180 -0.558714
H13   H     H_    0.269715 0.106716 0.577454 0.190386
S1    S     S_3+6 0.352093 0.274967 0.133820 0.025716
O9    O     O_2   0.259765 0.228717 0.026132 -0.358577
O10   O     O_2   0.445361 0.176015 0.152067 -0.260839
O11   O     O_3   0.272414 0.290940 0.282554 -0.520692
H14   H     H_    0.247986 0.205324 0.310477 0.352593
H15   H     H_    0.750002 0.559118 0.125433 0.231592
H16   H     H_    0.221135 0.307218 0.671955 0.150019
S2    S     S_3+6 0.721379 0.132744 0.302403 0.010069
O12   O     O_2   0.748777 0.047536 0.181949 -0.292641
O13   O     O_2   0.689925 0.256993 0.245624 -0.256541
O14   O     O_3   0.849630 0.149575 0.401297 -0.565753
H17   H     H_    0.911670 0.192578 0.341041 0.381542
H18   H     H_    0.265241 0.884868 0.585601 0.191369

loop_
_geom_bond_atom_site_label_1
_geom_bond_atom_site_label_2
_ccdc_geom_bond_type
S2    O14   S    
C2    C28   A    
C17   N1    A    
C16   C21   S    
C18   N2    A    
C25   H8    S    
C10   H12   S    
C1    C8    S    
C11   C13   A    
C9    C10   A    
C11   C22   S    
C23   O7    A    
C19   C20   S    
C22   O6    A    
C27   H10   S    
C12   O4    A    
O14   H17   S    
C7    C15   S    
C17   C18   A    
C23   O8    A    
C7    C8    A    
Cu1   O5    S    
C13   C14   S    
C20   C21   S    
C5    C6    A    
C18   H4    S    
C16   N1    A    
C1    O1    A    
C26   C27   A    
Cu1   Cu2   S    
Cu1   O3    S    
C12   O3    A    
C9    S2    S    
C6    C23   S    
C15   H13   S    
Cu2   O4    S    
C25   C26   A    
C15   H3    S    
C21   H15   S    
C2    C3    A    
C16   C19   A    
Cu1   N2    S    
C2    C24   A    
S2    O12   D    
C26   H9    S    
S1    O10   D    
Cu2   N1    S    
C4    H1    S    
Cu1   O1    S    
C10   C11   A    
C3    C4    A    
C20   H6    S    
C19   N2    A    
C7    C13   A    
C21   H7    S    
C24   C25   A    
C14   H18   S    
Cu1   O7    S    
C22   O5    A    
C27   C28   A    
S2    O13   D    
Cu2   O8    S    
C14   C15   S    
C4    C5    A    
C24   H16   S    
C5    H11   S    
C3    C12   S    
C1    O2    A    
Cu2   O6    S    
O11   H14   S    
S1    O9    D    
C20   H5    S    
C17   S1    S    
Cu2   O2    S    
C6    C28   A    
C14   H2    S    
C8    C9    A    
S1    O11   S    
