data_str_m12_o4_o9_f0_bcu.sym.90
_audit_creation_date              2012-12-11T17:10:40-0500
_audit_creation_method            fapswitch 2.2
_symmetry_space_group_name_H-M    P1
_symmetry_Int_Tables_number       1
_space_group_crystal_system       triclinic
_cell_length_a                    14.782959
_cell_length_b                    14.868419
_cell_length_c                    14.912255
_cell_angle_alpha                 109.678107
_cell_angle_beta                  109.838921
_cell_angle_gamma                 108.985125
_cell_volume                      2520.29869709

loop_
_atom_site_label
_atom_site_type_symbol
_atom_type_description
_atom_site_fract_x
_atom_site_fract_y
_atom_site_fract_z
_atom_type_partial_charge
C1    C     C_R   0.185202 0.278216 0.253891 -0.165197
C2    C     C_R   0.459274 0.458094 0.787062 -0.093673
C3    C     C_R   0.565452 0.196560 0.498043 0.044023
C4    C     C_R   0.198184 0.571438 0.497223 0.057504
C5    C     C_R   0.474863 0.721018 0.407212 -0.147473
C6    C     C_R   0.815695 0.566363 0.592963 -0.136440
C7    C     C_R   0.488815 0.398391 0.192939 -0.157642
C8    C     C_R   0.707355 0.799329 0.804277 -0.158045
C9    C     C_R   0.801826 0.710390 0.804791 -0.137965
C10   C     C_R   0.399763 0.492451 0.194752 -0.146704
C11   C     C_R   0.564543 0.815448 0.591533 -0.126525
C12   C     C_R   0.537419 0.444599 0.760440 0.546714
C13   C     C_R   0.723154 0.477046 0.408810 -0.117936
C14   C     C_R   0.548942 0.825049 0.498309 0.069642
C15   C     C_R   0.827253 0.555820 0.501618 0.057506
C16   C     C_R   0.424035 0.426066 0.128416 0.090334
C17   C     C_R   0.802359 0.803218 0.868924 0.066373
C18   C     C_R   0.110732 0.599285 0.190401 -0.126029
C19   C     C_R   0.108275 0.626177 0.288568 -0.149028
C20   C     C_R   0.023082 0.551966 0.291873 0.085299
C21   C     C_R   0.938513 0.452469 0.194472 -0.114896
C22   C     C_R   0.941922 0.425629 0.096853 -0.080356
C23   C     C_R   0.504852 0.200600 0.407737 -0.155195
C24   C     C_R   0.028201 0.498713 0.094926 -0.132617
C25   C     C_R   0.929419 0.571163 0.400851 -0.241415
C26   C     C_R   0.931155 0.607046 0.501478 0.058841
C27   C     C_R   0.034863 0.676687 0.600043 0.031031
C28   C     C_R   0.127061 0.672942 0.597017 -0.233792
C29   C     C_R   0.118205 0.611344 0.496320 0.057228
C30   C     C_R   0.024428 0.577958 0.397558 0.029134
C31   C     C_R   0.998883 0.823404 0.696500 -0.140046
C32   C     C_R   0.017447 0.905498 0.792497 -0.099522
C33   C     C_R   0.087861 0.924806 0.895466 -0.086329
C34   C     C_R   0.291385 0.598690 0.589605 -0.126042
C35   C     C_R   0.138010 0.860497 0.902686 -0.124550
C36   C     C_R   0.119623 0.778083 0.806853 -0.175817
C37   C     C_R   0.050344 0.759193 0.702622 0.110002
C38   C     C_R   0.419486 0.329286 0.863656 0.167816
C39   C     C_R   0.409453 0.411961 0.842355 0.055577
C40   C     C_R   0.351848 0.456674 0.883463 -0.193147
C41   C     C_R   0.337786 0.444973 0.967368 -0.224210
C42   C     C_R   0.381700 0.388778 0.011236 0.031436
C43   C     C_R   0.403767 0.316730 0.945416 0.169731
C44   C     C_3   0.475024 0.265510 0.962183 -0.607692
C45   C     C_R   0.595079 0.289570 0.590269 -0.084976
C46   C     C_3   0.491263 0.277128 0.870823 -0.414906
C47   C     C_R   0.549669 0.925411 0.394599 0.164491
C48   C     C_R   0.594126 0.925817 0.494208 0.031567
C49   C     C_R   0.667697 0.028303 0.592031 -0.202073
C50   C     C_R   0.671445 0.123740 0.592390 -0.203072
C51   C     C_R   0.602201 0.116065 0.494659 0.035051
C52   C     C_R   0.554216 0.019609 0.394916 0.167506
C53   C     C_3   0.441611 0.956935 0.294450 -0.526301
C54   C     C_3   0.435996 0.854031 0.294367 -0.530842
C55   C     C_R   0.966437 0.069869 0.130699 -0.072458
C56   C     C_R   0.199161 0.504159 0.407415 -0.143471
C57   C     C_R   0.068195 0.072297 0.171215 0.025643
C58   C     C_R   0.065606 0.970445 0.139564 -0.174876
C59   C     C_R   0.970615 0.874910 0.046718 -0.208981
C60   C     C_R   0.878725 0.881900 0.986792 0.073209
C61   C     C_R   0.872866 0.975886 0.039348 0.085099
C62   C     C_3   0.828084 0.038973 0.996544 -0.629073
C63   C     C_3   0.930521 0.142703 0.095838 0.424953
C64   C     C_R   0.437435 0.529285 0.752786 -0.228011
C65   C     C_R   0.276345 0.184630 0.249501 -0.119815
C66   C     C_R   0.172643 0.174234 0.224737 0.049334
H1    H     H_    0.123827 0.302206 0.251633 0.128261
H2    H     H_    0.878782 0.616474 0.678717 0.118045
H3    H     H_    0.506026 0.332516 0.164886 0.101908
H4    H     H_    0.670029 0.845813 0.832048 0.110741
H5    H     H_    0.854829 0.678724 0.833374 0.098492
H6    H     H_    0.336869 0.514622 0.168252 0.088435
H7    H     H_    0.617810 0.879984 0.676850 0.095249
H8    H     H_    0.700204 0.446778 0.323318 0.093604
H9    H     H_    0.030680 0.477708 0.019221 0.112530
H10   H     H_    0.177018 0.655995 0.188452 0.108218
H11   H     H_    0.173703 0.703705 0.362391 0.118138
H12   H     H_    0.871493 0.394524 0.194565 0.145483
H13   H     H_    0.877817 0.347883 0.022754 0.116861
H14   H     H_    0.853670 0.534358 0.324345 0.119748
H15   H     H_    0.204769 0.716803 0.673365 0.118047
H16   H     H_    0.945609 0.810974 0.617434 0.114931
H17   H     H_    0.978016 0.954874 0.787105 0.108648
H18   H     H_    0.103567 0.989744 0.969607 0.119974
H19   H     H_    0.191711 0.875000 0.982655 0.106770
H20   H     H_    0.159171 0.729070 0.814122 0.106743
H21   H     H_    0.329752 0.512235 0.862726 0.128019
H22   H     H_    0.485877 0.153500 0.324290 0.103810
H23   H     H_    0.307937 0.493834 0.006904 0.126004
H24   H     H_    0.554500 0.317888 0.041867 0.197009
H25   H     H_    0.427579 0.178513 0.939683 0.212101
H26   H     H_    0.580173 0.331595 0.905763 0.236881
H27   H     H_    0.452443 0.196757 0.795227 0.195034
H28   H     H_    0.710792 0.033657 0.670161 0.125773
H29   H     H_    0.717313 0.199093 0.670894 0.127498
H30   H     H_    0.379359 0.974383 0.310725 0.200060
H31   H     H_    0.444840 0.960893 0.222386 0.187291
H32   H     H_    0.370881 0.814201 0.311324 0.196773
H33   H     H_    0.325335 0.660438 0.673742 0.083722
H34   H     H_    0.434977 0.798307 0.221726 0.189935
H35   H     H_    0.140018 0.966059 0.175134 0.118966
H36   H     H_    0.975829 0.800957 0.014830 0.127430
H37   H     H_    0.825301 0.027790 0.917865 0.167970
H38   H     H_    0.750184 0.027630 0.997155 0.208367
H39   H     H_    0.983637 0.187705 0.070501 0.060721
H40   H     H_    0.657054 0.320967 0.673534 0.152784
H41   H     H_    0.146553 0.473962 0.321757 0.133746
H42   H     H_    0.380996 0.558937 0.758693 0.131433
H43   H     H_    0.298159 0.120720 0.238707 0.089139
H44   H     H_    0.447960 0.696423 0.321989 0.111450
N1    N     N_R   0.291070 0.347930 0.293870 -0.036878
N2    N     N_R   0.708930 0.502750 0.556810 -0.044022
N3    N     N_R   0.502760 0.445970 0.293860 -0.039618
N4    N     N_R   0.652110 0.708890 0.706130 -0.037831
N5    N     N_R   0.708930 0.652070 0.706130 -0.040987
N6    N     N_R   0.445950 0.502780 0.293850 -0.037874
N7    N     N_R   0.502760 0.708900 0.556790 -0.038855
N8    N     N_R   0.652110 0.445950 0.443190 -0.041394
N9    N     N_R   0.554050 0.497220 0.706150 -0.094314
N10   N     N_R   0.497240 0.291100 0.443210 -0.042430
N11   N     N_R   0.347890 0.554050 0.556810 -0.035051
N12   N     N_R   0.554050 0.347900 0.556830 -0.046340
N13   N     N_R   0.291070 0.497250 0.443190 -0.041822
N14   N     N_R   0.497240 0.554030 0.706140 -0.065679
N15   N     N_R   0.347890 0.291110 0.293870 -0.037940
N16   N     N_R   0.445950 0.652100 0.443170 -0.038861
Ni1   Ni    Ni4+2 0.369690 0.500010 0.369700 0.213937
Ni2   Ni    Ni4+2 0.630310 0.499990 0.630300 0.215745
Ni3   Ni    Ni4+2 0.500000 0.369720 0.369720 0.203971
Ni4   Ni    Ni4+2 0.500000 0.630280 0.630280 0.200245
O1    O     O_3   0.610406 0.414129 0.807641 -0.677573
C67   C     C_3   0.709852 0.509475 0.899392 0.242486
H45   H     H_    0.710490 0.517351 0.976411 0.112780
H46   H     H_    0.721977 0.588414 0.901274 0.088569
C68   C     C_3   0.808511 0.497606 0.900643 -0.972550
H47   H     H_    0.813985 0.497205 0.828098 0.241281
H48   H     H_    0.885993 0.567951 0.976763 0.232612
H49   H     H_    0.799505 0.419571 0.898091 0.261149
O2    O     O_3   0.904391 0.211983 0.163156 -0.630943
C69   C     C_3   0.898050 0.190895 0.247211 0.308134
H50   H     H_    0.979713 0.207067 0.306383 0.097251
H51   H     H_    0.833408 0.104543 0.211149 0.100297
C70   C     C_3   0.867126 0.267310 0.311152 -0.944623
H52   H     H_    0.787681 0.256626 0.254435 0.253098
H53   H     H_    0.857752 0.248279 0.374445 0.220798
H54   H     H_    0.933270 0.354036 0.353217 0.262591

loop_
_geom_bond_atom_site_label_1
_geom_bond_atom_site_label_2
_ccdc_geom_bond_type
C70   H54   S    
C41   H23   S    
N16   Ni1   S    
C12   O1    S    
C68   H49   S    
C25   H14   S    
C41   C42   A    
C3    C23   A    
C35   C36   A    
C69   C70   S    
C57   C66   S    
C2    C12   A    
N4    N5    A    
C44   H24   S    
C68   H47   S    
C20   C30   S    
C53   C54   S    
C52   C53   S    
C26   C27   A    
C62   C63   S    
C31   H16   S    
N3    Ni3   S    
C18   C24   A    
C40   H21   S    
C28   C29   A    
C69   H51   S    
C22   H13   S    
C38   C39   A    
C11   C14   A    
C50   H29   S    
C46   H26   S    
C5    H44   S    
C70   H52   S    
C70   H53   S    
C18   C19   A    
C19   H11   S    
C1    H1    S    
C6    C15   A    
C2    C39   S    
C47   C48   A    
C44   C46   S    
C67   H45   S    
N6    Ni1   S    
C55   C63   S    
C21   H12   S    
N1    N15   A    
C49   H28   S    
C63   H39   S    
N7    N16   A    
N11   Ni4   S    
C4    C29   S    
C8    N4    A    
N3    N6    A    
N9    Ni2   S    
C6    H2    S    
C59   C60   A    
N9    N14   A    
C21   C22   A    
C4    C56   A    
C53   H30   S    
N4    Ni4   S    
C54   H34   S    
C6    N2    A    
C2    C64   A    
C64   H42   S    
C62   H38   S    
C4    C34   A    
N11   N13   A    
N10   Ni3   S    
C9    N5    A    
C56   N13   A    
C13   N8    A    
C69   H50   S    
C11   H7    S    
C23   N10   A    
C3    C51   S    
C15   C26   S    
C14   C48   S    
C36   H20   S    
C58   C59   A    
C64   N14   A    
C3    C45   A    
N5    Ni2   S    
C31   C37   A    
C60   C61   A    
C65   N15   A    
C5    N16   A    
C43   C44   S    
C56   H41   S    
C29   C30   A    
C12   N9    A    
N13   Ni1   S    
C31   C32   A    
C1    C66   A    
N14   Ni4   S    
C50   C51   A    
C58   H35   S    
C13   H8    S    
N7    Ni4   S    
C65   H43   S    
C5    C14   A    
C44   H25   S    
C47   C54   S    
C9    C17   A    
C40   C41   A    
C49   C50   A    
C34   N11   A    
C23   H22   S    
C13   C15   A    
N1    Ni1   S    
C22   C24   A    
C42   C43   A    
O1    C67   S    
C11   N7    A    
C16   C42   S    
C39   C40   A    
C10   N6    A    
C45   H40   S    
N10   N12   A    
C62   H37   S    
C25   C30   A    
C68   H48   S    
C32   H17   S    
C36   C37   A    
C18   H10   S    
C28   H15   S    
C59   H36   S    
C63   O2    S    
C7    C16   A    
C9    H5    S    
C7    H3    S    
O2    C69   S    
C24   H9    S    
C47   C52   A    
C45   N12   A    
C34   H33   S    
C8    H4    S    
C8    C17   A    
C53   H31   S    
C32   C33   A    
C7    N3    A    
C19   C20   A    
C55   C57   A    
C25   C26   A    
C51   C52   A    
N8    Ni3   S    
C10   C16   A    
C1    N1    A    
C38   C46   S    
N2    N8    A    
C35   H19   S    
C57   C58   A    
C46   H27   S    
C27   C37   S    
C67   C68   S    
C48   C49   A    
C55   C61   A    
C33   C35   A    
N12   Ni2   S    
C61   C62   S    
C33   H18   S    
N2    Ni2   S    
C17   C60   S    
N15   Ni3   S    
C38   C43   A    
C20   C21   A    
C67   H46   S    
C65   C66   A    
C27   C28   A    
C54   H32   S    
C10   H6    S    
