data_str_m2_o14_o16_f0_pcu.sym.170
_audit_creation_date              2012-12-10T17:18:55-0500
_audit_creation_method            fapswitch 2.2
_symmetry_space_group_name_H-M    P1
_symmetry_Int_Tables_number       1
_space_group_crystal_system       triclinic
_cell_length_a                    9.603948
_cell_length_b                    10.807163
_cell_length_c                    13.485399
_cell_angle_alpha                 92.3863
_cell_angle_beta                  73.060229
_cell_angle_gamma                 90.833885
_cell_volume                      1337.7740234

loop_
_atom_site_label
_atom_site_type_symbol
_atom_type_description
_atom_site_fract_x
_atom_site_fract_y
_atom_site_fract_z
_atom_type_partial_charge
C1    C     C_R   0.499261 0.737466 0.504503 0.898626
C2    C     C_R   0.449506 0.439305 0.972619 0.044462
C3    C     C_R   0.494452 0.443265 0.862942 0.074574
C4    C     C_R   0.554398 0.462113 0.027342 0.097328
C5    C     C_R   0.702695 0.479101 0.971235 0.153141
C6    C     C_R   0.747717 0.458031 0.864574 -0.224761
C7    C     C_R   0.645802 0.434196 0.811930 -0.171553
C8    C     C_R   0.516202 0.473460 0.135843 -0.255396
C9    C     C_R   0.765956 0.520104 0.130302 -0.184583
C10   C     C_R   0.386389 0.454023 0.809508 -0.192764
C11   C     C_R   0.301418 0.871893 0.686732 0.334482
C12   C     C_R   0.424106 0.486428 0.698636 0.916657
C13   C     C_R   0.184940 0.933415 0.759124 0.211526
C14   C     C_R   0.170310 0.062301 0.755365 0.231816
C15   C     C_R   0.265138 0.127925 0.674633 0.324949
C16   C     C_R   0.380178 0.066130 0.597504 -0.086198
C17   C     C_R   0.391585 0.935224 0.600670 -0.084331
C18   C     C_R   0.496833 0.871491 0.518405 -0.025239
C19   C     C_R   0.600194 0.935821 0.444032 -0.218989
C20   C     C_R   0.597217 0.062954 0.445074 -0.208393
C21   C     C_R   0.487638 0.129058 0.518131 -0.015416
C22   C     C_R   0.909837 0.336523 0.361895 -0.142318
C23   C     C_R   0.495140 0.263113 0.508214 0.836184
C24   C     C_R   0.007516 0.254740 0.295948 -0.231015
C25   C     C_R   0.150484 0.253371 0.296979 -0.224085
C26   C     C_R   0.196729 0.333935 0.363845 -0.144840
C27   C     C_R   0.100892 0.418749 0.432821 0.214065
C28   C     C_R   0.951577 0.419423 0.432332 0.210752
C29   C     C_R   0.900968 0.576421 0.564618 -0.079946
C30   C     C_R   0.048862 0.576483 0.564527 -0.064145
C31   C     C_R   0.577608 0.500879 0.300569 0.769408
C32   C     C_R   0.805518 0.512826 0.022618 -0.107197
C33   C     C_R   0.621513 0.498223 0.187268 -0.057425
C34   C     C_R   0.240153 0.432036 0.863566 -0.139612
C35   C     C_R   0.200320 0.399695 0.966973 0.463403
C36   C     C_R   0.302779 0.409543 0.022569 -0.302330
Cu1   Cu    Cu3+1 0.359340 0.500010 0.500010 0.974396
Cu2   Cu    Cu3+1 0.640660 0.499990 0.499990 0.941713
H1    H     H_    0.848006 0.542931 0.168801 0.163260
H2    H     H_    0.678737 0.110195 0.385429 0.137365
H3    H     H_    0.825189 0.639051 0.617668 0.156570
H4    H     H_    0.803242 0.330273 0.354139 0.196643
H5    H     H_    0.971768 0.192097 0.243417 0.156922
H6    H     H_    0.226691 0.189810 0.245112 0.159826
H7    H     H_    0.308798 0.325422 0.357670 0.194388
H8    H     H_    0.862423 0.458295 0.821678 0.150608
H9    H     H_    0.083416 0.639220 0.617465 0.167598
H10   H     H_    0.916777 0.532898 0.979080 0.173050
H11   H     H_    0.404749 0.464541 0.182099 0.160208
H12   H     H_    0.156469 0.435328 0.824643 0.168513
H13   H     H_    0.266164 0.388525 0.103435 0.135341
H14   H     H_    0.690416 0.403433 0.732176 0.190825
H15   H     H_    0.682159 0.886866 0.382943 0.145764
N1    N     N_R   0.852480 0.498790 0.499000 -0.207684
N2    N     N_R   0.148360 0.498710 0.498970 -0.200087
O1    O     O_R   0.381190 0.680360 0.500010 -0.553709
O2    O     O_R   0.618760 0.680340 0.500000 -0.581177
O3    O     O_R   0.323240 0.499990 0.650990 -0.535822
O4    O     O_R   0.560820 0.499960 0.650980 -0.599184
O5    O     O_R   0.381240 0.319660 0.500000 -0.558461
O6    O     O_R   0.618810 0.319640 0.499990 -0.619740
O7    O     O_R   0.439180 0.500040 0.349020 -0.609480
O8    O     O_R   0.676760 0.500010 0.349010 -0.608094
O9    O     O_3   0.333354 0.751090 0.701468 -0.734748
H16   H     H_    0.274567 0.724247 0.770454 0.360884
O10   O     O_3   0.086749 0.864735 0.832241 -0.755304
H17   H     H_    0.990427 0.905646 0.851001 0.340019
O11   O     O_3   0.069678 0.128755 0.832954 -0.715173
H18   H     H_    0.051714 0.085619 0.898918 0.352938
O12   O     O_3   0.247602 0.253626 0.673474 -0.713612
H19   H     H_    0.143520 0.274876 0.704530 0.361604
O13   O     O_3   0.060561 0.358242 0.011627 -0.737132
H20   H     H_    0.048820 0.339488 0.084931 0.320137

loop_
_geom_bond_atom_site_label_1
_geom_bond_atom_site_label_2
_ccdc_geom_bond_type
C16   C21   A    
C19   C20   A    
C4    C8    A    
Cu1   O7    S    
C1    C18   S    
C29   C30   A    
C1    O1    A    
C7    H14   S    
C18   C19   A    
C3    C7    A    
C5    C6    A    
C20   H2    S    
C27   N2    A    
C29   N1    A    
C15   C16   A    
C9    H1    S    
C34   C35   A    
C9    C32   A    
O11   H18   S    
Cu1   O1    S    
C35   C36   A    
C16   C17   A    
C31   C33   S    
O12   H19   S    
Cu1   O3    S    
C26   H7    S    
Cu2   O6    S    
C12   O3    A    
C19   H15   S    
O10   H17   S    
C22   C28   A    
C13   C14   A    
C9    C33   A    
C32   H10   S    
C31   O7    A    
C25   H6    S    
C13   O10   S    
C23   O5    A    
C34   H12   S    
C31   O8    A    
C30   H9    S    
C24   C25   A    
C11   O9    S    
C28   N1    A    
O13   H20   S    
C25   C26   A    
C2    C4    A    
Cu1   Cu2   S    
C1    O2    A    
Cu2   O2    S    
Cu2   N1    S    
C17   C18   A    
C26   C27   A    
C10   C34   A    
C36   H13   S    
C10   C12   S    
C35   O13   S    
C21   C23   S    
C22   C24   A    
Cu2   O8    S    
C2    C36   A    
C15   O12   S    
C11   C17   A    
C6    H8    S    
C29   H3    S    
C4    C5    A    
C6    C7    A    
C30   N2    A    
O9    H16   S    
C5    C32   A    
C2    C3    A    
C3    C10   A    
C11   C13   A    
C22   H4    S    
C8    C33   A    
C12   O4    A    
Cu1   O5    S    
Cu2   O4    S    
Cu1   N2    S    
C23   O6    A    
C20   C21   A    
C27   C28   A    
C24   H5    S    
C14   O11   S    
C14   C15   A    
C8    H11   S    
