data_str_m2_o4_o9_f0_pcu.sym.100
_audit_creation_date              2012-12-10T19:10:02-0500
_audit_creation_method            fapswitch 2.2
_symmetry_space_group_name_H-M    P1
_symmetry_Int_Tables_number       1
_space_group_crystal_system       triclinic
_cell_length_a                    10.834938
_cell_length_b                    10.806206
_cell_length_c                    9.53398
_cell_angle_alpha                 89.99014
_cell_angle_beta                  90.138015
_cell_angle_gamma                 90.212147
_cell_volume                      1116.27106266

loop_
_atom_site_label
_atom_site_type_symbol
_atom_type_description
_atom_site_fract_x
_atom_site_fract_y
_atom_site_fract_z
_atom_type_partial_charge
C1    C     C_R   0.502694 0.262450 0.500135 0.795971
C2    C     C_R   0.226096 0.709894 0.017362 -0.139210
C3    C     C_R   0.932908 0.544527 0.385915 -0.249304
C4    C     C_R   0.871387 0.493189 0.500869 -0.080858
C5    C     C_R   0.938460 0.443839 0.614966 0.003444
C6    C     C_R   0.066459 0.451864 0.613407 -0.249430
C7    C     C_R   0.128147 0.504137 0.498649 -0.079795
C8    C     C_R   0.060699 0.550711 0.383178 0.009012
C9    C     C_R   0.885607 0.426538 0.869675 -0.166862
C10   C     C_R   0.827934 0.365263 0.981051 -0.161219
C11   C     C_R   0.762045 0.255889 0.956773 -0.108520
C12   C     C_R   0.262226 0.502685 0.499573 0.792875
C13   C     C_R   0.754575 0.207055 0.821250 -0.112877
C14   C     C_R   0.812805 0.267614 0.709730 -0.113037
C15   C     C_R   0.878533 0.378094 0.733280 0.132097
C16   C     C_R   0.488041 0.064231 0.624064 0.110605
C17   C     C_R   0.514801 0.129638 0.501935 -0.098861
C18   C     C_R   0.558994 0.065173 0.384606 -0.188538
C19   C     C_R   0.559215 0.935979 0.385197 -0.194771
C20   C     C_R   0.514055 0.871184 0.502291 -0.098353
C21   C     C_R   0.487703 0.936982 0.624520 0.111229
C22   C     C_3   0.376865 0.931595 0.717457 -0.470704
C23   C     C_R   0.502271 0.737817 0.500206 0.794642
C24   C     C_3   0.377608 0.071967 0.716719 -0.450280
C25   C     C_R   0.591077 0.559681 0.073757 0.253499
C26   C     C_R   0.418718 0.429327 0.074311 -0.047330
C27   C     C_R   0.418587 0.429443 0.925233 -0.082471
C28   C     C_R   0.591714 0.558835 0.926451 0.300495
C29   C     C_3   0.625309 0.692319 0.919293 -0.507565
C30   C     C_3   0.621623 0.694092 0.078296 -0.524277
C31   C     C_R   0.737587 0.496428 0.500345 0.787878
C32   C     C_R   0.232973 0.773124 0.145363 0.051909
C33   C     C_R   0.179835 0.721133 0.265874 -0.150251
C34   C     C_R   0.119200 0.606163 0.257816 0.121716
C35   C     C_R   0.112361 0.544039 0.128814 -0.173389
C36   C     C_R   0.165781 0.595849 0.009250 -0.167475
Cu1   Cu    Cu3+1 0.499990 0.499980 0.640670 0.943525
Cu2   Cu    Cu3+1 0.500010 0.500020 0.359330 0.945362
H1    H     H_    0.266696 0.748628 0.923628 0.125930
H2    H     H_    0.716535 0.209195 0.042888 0.123010
H3    H     H_    0.703657 0.122282 0.802654 0.127574
H4    H     H_    0.806113 0.229053 0.605100 0.100698
H5    H     H_    0.588482 0.113928 0.291146 0.159652
H6    H     H_    0.590209 0.887668 0.292799 0.155393
H7    H     H_    0.294804 0.890283 0.664752 0.191772
H8    H     H_    0.398790 0.893235 0.822412 0.191484
H9    H     H_    0.296171 0.112892 0.662972 0.192053
H10   H     H_    0.400316 0.112976 0.820629 0.203209
H11   H     H_    0.351013 0.374562 0.130093 0.149539
H12   H     H_    0.350749 0.374800 0.869130 0.132936
H13   H     H_    0.719467 0.706705 0.876049 0.196309
H14   H     H_    0.552284 0.749772 0.870834 0.215774
H15   H     H_    0.713050 0.712347 0.127373 0.190076
H16   H     H_    0.543837 0.750086 0.118938 0.220802
H17   H     H_    0.184797 0.769891 0.365130 0.105833
H18   H     H_    0.066746 0.454964 0.121400 0.131495
H19   H     H_    0.161181 0.547251 0.910213 0.138956
H20   H     H_    0.881156 0.582586 0.298477 0.150649
H21   H     H_    0.118281 0.412270 0.699815 0.144886
H22   H     H_    0.933506 0.512870 0.888980 0.128433
H23   H     H_    0.832882 0.403462 0.085885 0.133542
N1    N     N_R   0.500790 0.500930 0.147930 -0.187995
N2    N     N_R   0.500790 0.500890 0.852020 -0.187184
O1    O     O_R   0.500000 0.319640 0.618810 -0.577252
O2    O     O_R   0.500010 0.319680 0.381230 -0.585221
O3    O     O_R   0.319640 0.499990 0.618790 -0.594327
O4    O     O_R   0.319650 0.500030 0.381210 -0.568841
O5    O     O_R   0.499990 0.680320 0.618770 -0.583995
O6    O     O_R   0.500000 0.680360 0.381190 -0.580361
O7    O     O_R   0.680350 0.499970 0.618790 -0.568442
O8    O     O_R   0.680360 0.500010 0.381210 -0.593210
C37   C     C_1   0.292098 0.892465 0.151812 0.182942
N3    N     N_1   0.339220 0.988652 0.156229 -0.304998

loop_
_geom_bond_atom_site_label_1
_geom_bond_atom_site_label_2
_ccdc_geom_bond_type
C33   H17   S    
C16   C21   A    
C23   O6    A    
C19   C20   A    
C13   H3    S    
C7    C8    A    
C32   C37   S    
C12   O4    A    
C25   C28   A    
C30   H16   S    
C26   C27   A    
Cu1   Cu2   S    
C28   C29   S    
C18   C19   A    
C5    C6    A    
Cu1   O5    S    
C2    C32   A    
C34   C35   A    
C2    H1    S    
C31   O7    A    
C35   C36   A    
C16   C17   A    
C1    O2    A    
Cu2   O2    S    
C13   C14   A    
C9    C10   A    
C27   H12   S    
C14   H4    S    
C31   O8    A    
Cu2   O6    S    
C16   C24   S    
Cu1   O7    S    
Cu1   N2    S    
C17   C18   A    
C7    C12   S    
C30   H15   S    
C24   H10   S    
C3    C8    A    
C26   H11   S    
C37   N3    T    
C12   O3    A    
C23   O5    A    
C3    H20   S    
C29   C30   S    
C20   C23   S    
Cu1   O3    S    
C33   C34   A    
C8    C34   S    
C20   C21   A    
C27   N2    A    
C22   H8    S    
C36   H19   S    
C22   C24   S    
C10   H23   S    
C3    C4    A    
C1    O1    A    
Cu1   O1    S    
C19   H6    S    
C29   H13   S    
C2    C36   A    
C25   C30   S    
Cu2   O8    S    
C35   H18   S    
C24   H9    S    
C6    H21   S    
C4    C5    A    
C6    C7    A    
C1    C17   S    
C9    H22   S    
C32   C33   A    
C26   N1    A    
C18   H5    S    
C11   C13   A    
C25   N1    A    
C9    C15   A    
C11   H2    S    
C5    C15   S    
C4    C31   S    
C10   C11   A    
C28   N2    A    
C22   H7    S    
Cu2   O4    S    
C14   C15   A    
C21   C22   S    
Cu2   N1    S    
C29   H14   S    
