data_str_m12_o9_o24_f0_bcu.sym.214
_audit_creation_date              2013-03-05T15:58:18-0500
_audit_creation_method            fapswitch 2.2
_symmetry_space_group_name_H-M    P1
_symmetry_Int_Tables_number       1
_space_group_crystal_system       triclinic
_cell_length_a                    14.852899
_cell_length_b                    14.944857
_cell_length_c                    15.199571
_cell_angle_alpha                 110.642477
_cell_angle_beta                  108.928333
_cell_angle_gamma                 107.970962
_cell_volume                      2623.71125326

loop_
_atom_site_label
_atom_site_type_symbol
_atom_site_description
_atom_site_fract_x
_atom_site_fract_y
_atom_site_fract_z
_atom_type_partial_charge
C1    C     C_R   0.975756 0.252137 0.064107 -0.114645
C2    C     C_R   0.082672 0.800365 0.997824 -0.131926
H1    H     H_    0.939566 0.240684 0.112495 0.095873
H2    H     H_    0.139910 0.828765 0.972069 0.087620
N1    N     N_R   0.947560 0.293820 0.002910 -0.046654
N2    N     N_R   0.052440 0.706180 0.997090 -0.044236
C3    C     C_R   0.313849 0.754225 0.222939 -0.130687
C4    C     C_R   0.699480 0.200823 0.787785 -0.142638
H3    H     H_    0.379185 0.775237 0.204573 0.095501
H4    H     H_    0.647668 0.170244 0.817925 0.091113
N3    N     N_R   0.208960 0.706170 0.152110 -0.043021
N4    N     N_R   0.791040 0.293830 0.847890 -0.039953
C5    C     C_R   0.213786 0.409203 0.907529 -0.138739
C6    C     C_R   0.776398 0.593557 0.025541 -0.096604
H5    H     H_    0.187886 0.326407 0.850947 0.178108
H6    H     H_    0.795067 0.677914 0.060988 0.130432
N5    N     N_R   0.154330 0.443160 0.946140 -0.048926
N6    N     N_R   0.845670 0.556840 0.053860 -0.036353
C7    C     C_R   0.996994 0.591050 0.299074 -0.116889
C8    C     C_R   0.950556 0.410031 0.686467 -0.107300
H7    H     H_    0.020322 0.674094 0.352252 0.121080
H8    H     H_    0.910401 0.327188 0.621368 0.112231
N7    N     N_R   0.002190 0.556820 0.208880 -0.046386
N8    N     N_R   0.997810 0.443180 0.791120 -0.042569
C9    C     C_R   0.302227 0.590669 0.999084 -0.127951
C10   C     C_R   0.686722 0.411198 0.932303 -0.136077
H9    H     H_    0.356267 0.674161 0.026835 0.094963
H10   H     H_    0.623242 0.327695 0.880709 0.097741
N9    N     N_R   0.210550 0.556810 0.002910 -0.041853
N10   N     N_R   0.789450 0.443190 0.997090 -0.043050
C11   C     C_R   0.913651 0.409645 0.212001 -0.147799
C12   C     C_R   0.031930 0.593072 0.780670 -0.098202
H11   H     H_    0.863197 0.326051 0.186416 0.117628
H12   H     H_    0.058292 0.676968 0.803014 0.108555
N11   N     N_R   0.945970 0.443180 0.152110 -0.042927
N12   N     N_R   0.054030 0.556820 0.847890 -0.044994
C13   C     C_R   0.217780 0.737414 0.308641 -0.131149
C14   C     C_R   0.787996 0.206995 0.694153 -0.143410
H13   H     H_    0.192937 0.731865 0.366227 0.116270
H14   H     H_    0.815909 0.189251 0.637071 0.110820
N13   N     N_R   0.151530 0.706170 0.208880 -0.041749
N14   N     N_R   0.848470 0.293830 0.791120 -0.043421
C15   C     C_R   0.070893 0.253309 0.976268 -0.081287
C16   C     C_R   0.991305 0.798877 0.088477 -0.124167
H15   H     H_    0.126514 0.246056 0.947074 0.159019
H16   H     H_    0.967392 0.826665 0.147785 0.189704
N15   N     N_R   0.004980 0.293810 0.946140 -0.047714
N16   N     N_R   0.995020 0.706190 0.053860 -0.046925
C17   C     C_R   0.055523 0.227241 0.052031 0.039780
C18   C     C_R   0.044741 0.859943 0.054863 0.039555
C19   C     C_R   0.320981 0.777397 0.323084 0.060708
C20   C     C_R   0.694099 0.145473 0.689749 0.081235
C21   C     C_R   0.304459 0.499904 0.938289 0.039887
C22   C     C_R   0.676454 0.504090 0.948890 0.015962
C23   C     C_R   0.944454 0.501135 0.303962 0.038458
C24   C     C_R   0.972271 0.503577 0.679397 0.042357
C25   C     C_R   0.160482 0.035522 0.084610 -0.234075
C26   C     C_R   0.046938 0.129740 0.151763 -0.200831
C27   C     C_R   0.257787 0.076508 0.868171 -0.013510
C28   C     C_R   0.777859 0.950597 0.180023 -0.091577
H17   H     H_    0.237408 0.009999 0.793353 0.123042
H18   H     H_    0.759188 0.979764 0.243965 0.113973
Ni1   Ni    Ni4+2 0.869690 0.369690 0.000000 0.211881
Ni2   Ni    Ni4+2 0.130310 0.630310 0.000000 0.214430
Ni3   Ni    Ni4+2 0.001390 0.369680 0.869810 0.239831
Ni4   Ni    Ni4+2 0.998610 0.630320 0.130190 0.255719
C29   C     C_R   0.191334 0.063448 0.914271 -0.043814
C30   C     C_R   0.883937 0.998627 0.198309 -0.033320
H19   H     H_    0.455230 0.334332 0.062508 0.112423
H20   H     H_    0.651543 0.763435 0.914286 0.115206
H21   H     H_    0.524258 0.097651 0.007188 0.095348
H22   H     H_    0.469774 0.814317 0.883840 0.099233
C31   C     C_R   0.620188 0.271887 0.107154 -0.123773
C32   C     C_R   0.341636 0.659336 0.746223 -0.112699
H23   H     H_    0.587659 0.287131 0.042689 0.097503
H24   H     H_    0.394727 0.624406 0.740186 0.111755
C33   C     C_R   0.698821 0.359372 0.209976 -0.137728
C34   C     C_R   0.230991 0.597595 0.672176 -0.116848
H25   H     H_    0.724084 0.441483 0.223844 0.133030
H26   H     H_    0.199615 0.515310 0.609120 0.133640
C35   C     C_R   0.751050 0.340430 0.291509 0.113812
C36   C     C_R   0.161953 0.643391 0.676608 0.114561
C37   C     C_R   0.715595 0.232490 0.270624 -0.167562
C38   C     C_R   0.205437 0.751625 0.757057 -0.191234
H27   H     H_    0.754864 0.215253 0.331502 0.108291
H28   H     H_    0.154326 0.789663 0.760362 0.122462
C39   C     C_R   0.632622 0.145476 0.169042 -0.110602
C40   C     C_R   0.315726 0.812375 0.832532 -0.122563
H29   H     H_    0.606834 0.062710 0.153171 0.102990
H30   H     H_    0.348563 0.895667 0.894179 0.102970
C41   C     C_R   0.585973 0.165108 0.086849 -0.079999
C42   C     C_R   0.383981 0.766514 0.826670 -0.112837
C43   C     C_R   0.861206 0.436127 0.490250 -0.227075
C44   C     C_R   0.034759 0.582109 0.493687 -0.168219
H31   H     H_    0.794978 0.379818 0.490895 0.129344
H32   H     H_    0.104682 0.634131 0.494024 0.125071
C45   C     C_R   0.959761 0.509721 0.585164 0.088725
C46   C     C_R   0.938392 0.506341 0.397585 0.087642
C47   C     C_R   0.048593 0.582290 0.587171 0.028601
C48   C     C_R   0.849892 0.430754 0.393877 0.030863
H33   H     H_    0.120994 0.984910 0.875529 0.148214
H34   H     H_    0.947010 0.066552 0.277211 0.163309
H35   H     H_    0.337568 0.312194 0.143363 0.125029
H36   H     H_    0.837609 0.848841 0.944057 0.132877
C49   C     C_R   0.219053 0.148499 0.013538 0.067437
C50   C     C_R   0.907428 0.961565 0.114013 0.070486
C51   C     C_R   0.380041 0.259729 0.019068 -0.100353
C52   C     C_R   0.716600 0.828401 0.993702 -0.115624
C53   C     C_R   0.136458 0.916725 0.451117 0.335879
C54   C     C_R   0.903327 0.036642 0.608814 0.332666
C55   C     C_R   0.238774 0.943294 0.457246 -0.303632
C56   C     C_R   0.796683 0.987797 0.590287 -0.281207
H37   H     H_    0.258006 0.972725 0.406508 0.178978
H38   H     H_    0.780060 0.957291 0.641316 0.175601
C57   C     C_R   0.311192 0.919686 0.518720 0.069546
C58   C     C_R   0.713262 0.988200 0.514209 0.086177
C59   C     C_R   0.287451 0.883004 0.585161 -0.225311
C60   C     C_R   0.733878 0.028364 0.448401 -0.230541
H39   H     H_    0.343768 0.867245 0.635525 0.158806
H40   H     H_    0.670111 0.029987 0.389759 0.139807
C61   C     C_R   0.189145 0.862300 0.584077 -0.323308
C62   C     C_R   0.839709 0.078644 0.466972 -0.296054
H41   H     H_    0.172406 0.833117 0.634959 0.187433
H42   H     H_    0.855512 0.116405 0.420807 0.163719
C63   C     C_R   0.110728 0.874810 0.515497 0.290376
C64   C     C_R   0.925818 0.085297 0.547871 0.332276
C65   C     C_R   0.504836 0.018860 0.598607 -0.242963
C66   C     C_R   0.517034 0.875215 0.431830 -0.241698
C67   C     C_R   0.604121 0.040866 0.601297 0.048139
C68   C     C_R   0.416725 0.857936 0.426110 0.053500
C69   C     C_R   0.611216 0.967215 0.517845 0.065469
C70   C     C_R   0.411090 0.929799 0.512658 0.074582
C71   C     C_R   0.352778 0.173920 0.921008 -0.109398
C72   C     C_R   0.694386 0.866452 0.077970 -0.130179
C73   C     C_R   0.015784 0.022783 0.127778 0.076724
C74   C     C_R   0.162249 0.123215 0.071432 0.036274
H43   H     H_    0.214344 0.005080 0.069302 0.121215
H44   H     H_    0.008491 0.169385 0.187782 0.114112
C75   C     C_R   0.313144 0.247418 0.065193 -0.165984
C76   C     C_R   0.822437 0.876210 0.011258 -0.167683
C77   C     C_R   0.074462 0.974161 0.092161 0.087917
C78   C     C_R   0.097973 0.168224 0.099480 0.057903
C79   C     C_3   0.488413 0.416689 0.928906 -0.153862
C80   C     C_3   0.481622 0.592016 0.925685 -0.182213
C81   C     C_3   0.400238 0.413107 0.837799 -0.113447
C82   C     C_3   0.569808 0.594734 0.016483 -0.147337
H45   H     H_    0.328439 0.338509 0.765246 0.171299
H46   H     H_    0.639773 0.669177 0.090720 0.145061
H47   H     H_    0.496195 0.346681 0.930595 0.099607
H48   H     H_    0.474870 0.663334 0.925122 0.111853
C83   C     C_3   0.396248 0.501261 0.924063 0.179334
C84   C     C_3   0.574970 0.506601 0.930848 0.177926
C85   C     C_3   0.483516 0.504608 0.014655 -0.146379
C86   C     C_3   0.488502 0.503749 0.839405 -0.156168
H49   H     H_    0.480212 0.506269 0.087116 0.119703
H50   H     H_    0.493708 0.504376 0.768406 0.120928
N17   N     N_R   0.006378 0.841414 0.511148 0.259179
O1    O     O_R   0.940976 0.875570 0.473366 -0.338900
O2    O     O_R   0.977511 0.779132 0.549702 -0.395541
N18   N     N_R   0.033951 0.141992 0.566636 0.253936
O3    O     O_R   0.061113 0.225114 0.552204 -0.433592
O4    O     O_R   0.101344 0.103781 0.585081 -0.342162
N19   N     N_R   0.058590 0.925685 0.374124 0.252051
O5    O     O_R   0.961500 0.843827 0.307377 -0.427089
O6    O     O_R   0.090538 0.005719 0.356235 -0.411773
N20   N     N_R   0.986920 0.040141 0.692796 0.253345
O7    O     O_R   0.081713 0.125756 0.754567 -0.444028
O8    O     O_R   0.963690 0.964292 0.717693 -0.393961
H51   H     H_    0.497709 0.075598 0.660607 0.135480
H52   H     H_    0.521662 0.819884 0.366429 0.138775
H53   H     H_    0.405806 0.180050 0.886388 0.091181
H54   H     H_    0.612450 0.831977 0.064607 0.097796

loop_
_geom_bond_atom_site_label_1
_geom_bond_atom_site_label_2
_geom_bond_distance
_ccdc_geom_bond_type
C37   C39   1.398112 A    
C66   H52   1.084666 S    
N17   O1    1.297981 A    
C39   C41   1.396133 A    
N5    N9    1.396675 A    
C36   C47   1.485878 S    
C6    N6    1.331385 A    
C68   C70   1.421875 A    
N19   O5    1.300994 A    
C8    C24   1.385725 A    
C56   H38   1.083732 S    
H19   C51   1.077241 S    
C3    N3    1.333487 A    
N1    N15   1.396188 A    
N8    N12   1.396551 A    
C32   H24   1.081631 S    
C13   N13   1.317117 A    
C1    N1    1.321160 A    
C20   C67   1.449393 S    
C12   N12   1.314386 A    
N7    Ni4   1.887077 S    
N15   Ni3   1.886588 S    
C7    H7    1.076723 S    
C9    C21   1.363391 A    
C14   N14   1.317740 A    
C80   C83   1.530690 S    
C59   H39   1.083700 S    
C13   C19   1.370704 A    
C63   N17   1.445204 S    
C79   C85   1.530840 S    
C14   C20   1.378276 A    
C44   C46   1.393508 A    
N2    Ni2   1.853843 S    
N1    Ni1   1.853844 S    
C28   H18   1.078060 S    
C60   C62   1.396033 A    
C32   C42   1.398157 A    
C34   C36   1.403496 A    
C65   C70   1.366486 A    
C74   C78   1.415548 A    
C2    C18   1.394269 A    
C53   C55   1.409085 A    
C45   C47   1.409097 A    
C8    N8    1.331845 A    
C57   C59   1.395285 A    
C52   C72   1.396136 A    
N14   Ni3   1.888702 S    
N4    N14   1.396314 A    
C11   H11   1.079001 S    
C25   C74   1.387673 A    
N6    N10   1.396674 A    
C85   H49   1.110222 S    
C4    C20   1.387057 A    
C86   H50   1.109714 S    
C18   C77   1.456145 S    
C27   C29   1.389068 A    
C26   H44   1.076932 S    
C58   C69   1.473754 S    
N9    Ni2   1.853862 S    
N17   O2    1.301890 A    
C72   H54   1.080142 S    
N10   Ni1   1.853860 S    
N20   O8    1.301152 A    
C31   H23   1.078710 S    
C2    N2    1.333681 A    
C30   C50   1.406794 A    
C24   C45   1.423028 S    
C10   C22   1.386687 A    
C81   H45   1.110325 S    
C19   C68   1.446840 S    
C16   H16   1.070527 S    
C65   H51   1.083968 S    
C82   H46   1.109770 S    
C57   C70   1.480887 S    
C33   H25   1.083176 S    
C9    N9    1.326841 A    
C27   H17   1.080219 S    
C40   C42   1.396333 A    
C31   C41   1.396649 A    
C80   C82   1.541697 S    
N3    Ni2   1.891498 S    
C53   N19   1.432839 S    
C80   H48   1.103622 S    
C52   C76   1.397576 A    
N4    Ni1   1.891499 S    
C7    N7    1.321205 A    
C29   C49   1.408386 A    
C22   C84   1.456934 S    
C27   C71   1.388536 A    
H36   C76   1.083067 S    
C12   C24   1.369564 A    
C1    H1    1.071272 S    
N18   O4    1.300083 A    
C62   C64   1.404522 A    
C2    H2    1.080071 S    
C65   C67   1.391614 A    
C5    C21   1.374016 A    
C61   C63   1.400783 A    
H35   C75   1.083115 S    
N5    Ni3   1.888043 S    
C49   C75   1.396391 A    
C26   C78   1.407451 A    
C43   C45   1.396940 A    
C50   C76   1.408043 A    
C33   C35   1.406017 A    
C54   C56   1.404754 A    
C4    N4    1.322218 A    
C17   C78   1.480621 S    
C34   H26   1.083326 S    
C25   H43   1.082527 S    
C55   H37   1.083673 S    
C44   H32   1.085624 S    
C15   H15   1.072531 S    
C43   C48   1.389047 A    
C81   C83   1.529383 S    
N2    N16   1.396189 A    
N8    Ni3   1.887078 S    
C54   C64   1.422713 A    
C49   C74   1.465707 S    
C82   C84   1.534019 S    
C81   C86   1.553828 S    
C53   C63   1.422355 A    
C50   C73   1.486260 S    
C37   H27   1.083254 S    
C40   H30   1.082523 S    
C10   N10   1.330219 A    
C36   C38   1.406129 A    
C5    H5    1.077049 S    
N20   O7    1.297960 A    
C6    H6    1.079356 S    
N6    Ni4   1.888040 S    
C62   H42   1.081772 S    
C66   C69   1.384110 A    
C28   C72   1.392674 A    
C56   C58   1.397286 A    
C29   H33   1.082955 S    
C84   C86   1.532779 S    
C7    C23   1.371532 A    
C79   C81   1.537385 S    
C80   C86   1.555889 S    
C79   C84   1.529929 S    
C6    C22   1.379700 A    
C10   H10   1.079607 S    
C15   C17   1.400710 A    
C38   C40   1.397305 A    
C8    H8    1.079519 S    
C66   C68   1.398832 A    
C35   C37   1.409465 A    
N11   Ni1   1.891463 S    
N13   Ni4   1.888704 S    
C35   C48   1.487518 S    
C5    N5    1.335893 A    
C26   C73   1.387563 A    
C9    H9    1.081836 S    
N7    N11   1.396553 A    
C25   C77   1.390278 A    
N16   Ni4   1.886588 S    
N18   O3    1.301673 A    
C39   H29   1.082689 S    
C71   H53   1.078894 S    
C3    C19   1.396142 A    
C13   H13   1.072841 S    
C30   H34   1.082720 S    
C51   C71   1.403701 A    
C14   H14   1.064872 S    
C54   N20   1.434705 S    
C43   H31   1.084982 S    
C82   C85   1.530659 S    
C15   N15   1.343414 A    
C44   C47   1.367024 A    
H22   C42   1.082325 S    
C23   C46   1.431279 S    
C58   C60   1.401131 A    
N3    N13   1.396313 A    
C11   N11   1.329296 A    
C83   C85   1.527122 S    
C51   C75   1.393798 A    
C46   C48   1.413456 A    
C60   H40   1.083426 S    
C61   H41   1.070432 S    
C79   H47   1.095586 S    
C3    H3    1.080647 S    
C73   C77   1.414283 A    
H21   C41   1.082449 S    
C28   C30   1.397235 A    
C16   C18   1.367008 A    
C4    H4    1.081797 S    
C32   C34   1.396777 A    
C21   C83   1.443305 S    
C31   C33   1.396001 A    
C38   H28   1.083001 S    
N19   O6    1.300984 A    
C55   C57   1.403243 A    
C59   C61   1.389245 A    
C11   C23   1.372656 A    
N12   Ni2   1.891464 S    
C1    C17   1.393112 A    
H20   C52   1.082338 S    
C16   N16   1.323169 A    
C12   H12   1.072968 S    
C64   N18   1.439265 S    
C67   C69   1.416150 A    
