data_str_m9_o16_o20_f0_sra.sym.12
_audit_creation_date              2012-12-11T15:10:41-0500
_audit_creation_method            fapswitch 2.2
_symmetry_space_group_name_H-M    P1
_symmetry_Int_Tables_number       1
_space_group_crystal_system       triclinic
_cell_length_a                    21.1078
_cell_length_b                    7.238657
_cell_length_c                    18.315294
_cell_angle_alpha                 90.000154
_cell_angle_beta                  93.376791
_cell_angle_gamma                 89.999594
_cell_volume                      2793.57395171

loop_
_atom_site_label
_atom_site_type_symbol
_atom_type_description
_atom_site_fract_x
_atom_site_fract_y
_atom_site_fract_z
_atom_type_partial_charge
O1    O     O_R   0.448880 0.506250 0.415280 -0.529779
O2    O     O_R   0.551120 0.006250 0.584720 -0.529127
O3    O     O_R   0.434830 0.174000 0.557310 -0.521363
O4    O     O_R   0.565170 0.674000 0.442690 -0.521354
C1    C     C_R   0.417221 0.344495 0.579959 0.698710
C2    C     C_R   0.582778 0.844494 0.420041 0.698049
O5    O     O_R   0.441680 0.176440 0.414130 -0.530094
O6    O     O_R   0.558320 0.676440 0.585870 -0.529633
O7    O     O_R   0.558020 0.007570 0.440520 -0.519686
O8    O     O_R   0.441980 0.507570 0.559480 -0.519481
C3    C     C_R   0.427890 0.344759 0.388464 0.685779
C4    C     C_R   0.572101 0.844760 0.611540 0.685637
O9    O     O_3   0.538160 0.339670 0.508820 -0.365076
O10   O     O_3   0.461840 0.839670 0.491180 -0.365196
V1    V     V_3+5 0.492920 0.064260 0.498360 1.417752
V2    V     V_3+5 0.507080 0.564260 0.501640 1.418341
C5    C     C_R   0.877241 0.001358 0.689686 -0.170451
C6    C     C_R   0.122711 0.501145 0.310347 -0.171042
H1    H     H_    0.964270 0.028679 0.754776 0.105411
H2    H     H_    0.035686 0.528309 0.245234 0.105434
H3    H     H_    0.901218 0.040716 0.641554 0.109266
H4    H     H_    0.098718 0.540405 0.358480 0.109257
C7    C     C_R   0.887718 0.944189 0.819652 -0.038534
C8    C     C_R   0.112283 0.444170 0.180354 -0.037663
C9    C     C_R   0.583615 0.805983 0.744740 -0.153873
C10   C     C_R   0.416347 0.305706 0.255242 -0.190623
C11   C     C_R   0.618317 0.799845 0.811732 0.257600
C12   C     C_R   0.381340 0.299418 0.188147 0.257027
C13   C     C_R   0.683739 0.835234 0.814937 -0.181809
C14   C     C_R   0.316153 0.334707 0.185174 -0.147656
C15   C     C_R   0.715795 0.878453 0.751273 0.040071
C16   C     C_R   0.284151 0.378337 0.248798 0.023393
C17   C     C_R   0.679151 0.887385 0.683261 0.017167
C18   C     C_R   0.320827 0.387422 0.316776 0.016850
C19   C     C_R   0.782832 0.913350 0.753269 0.068841
C20   C     C_R   0.217137 0.413316 0.246786 0.068562
C21   C     C_R   0.811508 0.961301 0.687094 0.075245
C22   C     C_R   0.188454 0.461226 0.312952 0.077682
C23   C     C_R   0.774511 0.969224 0.619703 0.112344
C24   C     C_R   0.225462 0.469261 0.380339 0.113259
C25   C     C_R   0.709169 0.931266 0.619255 -0.173641
C26   C     C_R   0.290819 0.431424 0.380780 -0.173796
C27   C     C_R   0.822659 0.903293 0.819039 -0.196914
C28   C     C_R   0.177358 0.403438 0.180984 -0.196981
C29   C     C_R   0.914297 0.994290 0.754882 -0.156659
C30   C     C_R   0.085670 0.494053 0.245135 -0.156805
C31   C     C_R   0.612706 0.850017 0.680459 -0.122349
C32   C     C_R   0.387276 0.349981 0.319541 -0.104369
H5    H     H_    0.804842 0.866955 0.871000 0.093486
H6    H     H_    0.195267 0.367460 0.129027 0.093725
H7    H     H_    0.533223 0.775732 0.742827 0.120300
H8    H     H_    0.466757 0.275746 0.257518 0.104119
H9    H     H_    0.708005 0.828629 0.868157 0.105348
H10   H     H_    0.292162 0.326961 0.131772 0.123374
H11   H     H_    0.680696 0.936707 0.568449 0.122708
H12   H     H_    0.319305 0.436990 0.431576 0.121786
C33   C     C_1   0.864350 0.938922 0.131883 -0.209060
C34   C     C_1   0.135648 0.438920 0.868115 -0.206785
C35   C     C_1   0.821332 0.924797 0.175432 -0.002770
C36   C     C_1   0.178665 0.424795 0.824565 0.000331
C37   C     C_1   0.770544 0.905550 0.227262 -0.004694
C38   C     C_1   0.229452 0.405549 0.772733 -0.001337
C39   C     C_1   0.727795 0.888789 0.271013 -0.003324
C40   C     C_1   0.272202 0.388789 0.728983 0.000090
C41   C     C_1   0.677132 0.869558 0.322983 -0.001242
C42   C     C_1   0.322866 0.369559 0.677014 0.002139
C43   C     C_1   0.634493 0.855604 0.367021 -0.210904
C44   C     C_1   0.365506 0.355605 0.632977 -0.208432
O11   O     O_R   0.058070 0.289240 0.940580 -0.519935
O12   O     O_R   0.941930 0.789240 0.059420 -0.520215
O13   O     O_R   0.058330 0.616740 0.085880 -0.532078
O14   O     O_R   0.941670 0.116740 0.914120 -0.532346
C45   C     C_R   0.072058 0.448883 0.111612 0.682277
C46   C     C_R   0.927951 0.948886 0.888384 0.681260
O15   O     O_R   0.065180 0.619040 0.942700 -0.521792
O16   O     O_R   0.934820 0.119040 0.057300 -0.522084
O17   O     O_R   0.948870 0.787780 0.915270 -0.530281
O18   O     O_R   0.051130 0.287780 0.084730 -0.529985
C47   C     C_R   0.083232 0.450327 0.920250 0.705704
C48   C     C_R   0.916768 0.950328 0.079749 0.704975
O19   O     O_3   0.961870 0.453310 0.991210 -0.365775
O20   O     O_3   0.038130 0.953310 0.008790 -0.364896
V3    V     V_3+5 0.007070 0.728770 0.001630 1.417328
V4    V     V_3+5 0.992930 0.228770 0.998370 1.416578
C49   C     C_3   0.805804 0.018518 0.548964 -0.361748
C50   C     C_3   0.763272 0.015131 0.478502 -0.750885
H13   H     H_    0.743274 0.874632 0.469320 0.225665
H14   H     H_    0.724620 0.118778 0.480715 0.227396
H15   H     H_    0.791905 0.050063 0.431444 0.222894
H16   H     H_    0.826332 0.159558 0.554641 0.182161
H17   H     H_    0.845022 0.919177 0.541297 0.179336
C51   C     C_3   0.194166 0.518580 0.451071 -0.361948
C52   C     C_3   0.236708 0.515342 0.521524 -0.751517
H18   H     H_    0.256740 0.374887 0.530724 0.225359
H19   H     H_    0.275336 0.619056 0.519287 0.227500
H20   H     H_    0.208075 0.550266 0.568584 0.222723
H21   H     H_    0.173604 0.659575 0.445370 0.182176
H22   H     H_    0.154971 0.419176 0.458762 0.179276
N1    N     N_3   0.586236 0.754458 0.876353 -0.661208
H23   H     H_    0.554739 0.862179 0.885763 0.228975
H24   H     H_    0.618359 0.748853 0.921987 0.224548
N2    N     N_3   0.411154 0.254358 0.121972 -0.661536
H25   H     H_    0.459347 0.226109 0.133084 0.227028
H26   H     H_    0.408757 0.371646 0.088606 0.228491

loop_
_geom_bond_atom_site_label_1
_geom_bond_atom_site_label_2
_ccdc_geom_bond_type
C42   C44   T    
C39   C41   S    
C52   H18   S    
C7    C29   A    
C11   C13   A    
O1    C3    A    
O2    C4    A    
O16   V4    S    
C2    O7    A    
C49   H17   S    
C51   H22   S    
C23   C25   A    
C49   C50   S    
O5    C3    A    
C14   H10   S    
C11   N1    S    
C16   C20   A    
C19   C21   A    
C5    C29   A    
C1    C44   S    
C50   H14   S    
C8    C45   S    
C33   C35   T    
O17   V3    S    
C34   C36   T    
C7    C27   A    
C36   C38   S    
C37   C39   T    
C25   H11   S    
C38   C40   T    
C26   H12   S    
C41   C43   T    
C46   O17   A    
C18   C26   A    
C45   O18   A    
C15   C17   A    
C19   C27   A    
C9    C31   A    
C10   C32   A    
O5    V1    S    
O6    V2    S    
C22   C24   A    
C13   C15   A    
C33   C48   S    
C3    C32   S    
C4    C31   S    
C6    C30   A    
C51   H21   S    
O13   V3    S    
C35   C37   S    
O12   C48   A    
O14   C46   A    
O13   C45   A    
C50   H13   S    
C27   H5    S    
C5    H3    S    
C40   C42   S    
O4    V2    S    
C9    H7    S    
O12   V3    S    
C10   H8    S    
N1    H23   S    
O6    C4    A    
O1    V2    S    
C5    C21   A    
C24   C51   S    
N2    H26   S    
O2    V1    S    
O14   V4    S    
C34   C47   S    
C12   N2    S    
O4    C2    A    
C2    C43   S    
N1    H24   S    
C52   H20   S    
C17   C31   A    
C15   C19   A    
O11   C47   A    
C18   C32   A    
C23   C49   S    
C7    C46   S    
C20   C22   A    
O19   V4    S    
O3    V1    S    
C28   H6    S    
C6    H4    S    
O16   C48   A    
O3    C1    A    
C50   H15   S    
C49   H16   S    
H1    C29   S    
C9    C11   A    
C10   C12   A    
C8    C30   A    
C12   C14   A    
C6    C22   A    
C17   C25   A    
C1    O8    A    
C21   C23   A    
O11   V4    S    
O8    V2    S    
C14   C16   A    
O15   V3    S    
C13   H9    S    
C8    C28   A    
C24   C26   A    
C51   C52   S    
O7    V1    S    
N2    H25   S    
C20   C28   A    
O18   V4    S    
C52   H19   S    
O20   V3    S    
O9    V2    S    
O10   V1    S    
O15   C47   A    
H2    C30   S    
C16   C18   A    
