data_str_m4_o22_o24_f0_acs.sym.17
_audit_creation_date              2012-12-11T15:08:44-0500
_audit_creation_method            fapswitch 2.2
_symmetry_space_group_name_H-M    P1
_symmetry_Int_Tables_number       1
_space_group_crystal_system       triclinic
_cell_length_a                    19.580141
_cell_length_b                    11.307685
_cell_length_c                    18.709002
_cell_angle_alpha                 89.795861
_cell_angle_beta                  90.422147
_cell_angle_gamma                 89.947242
_cell_volume                      4142.14596376

loop_
_atom_site_label
_atom_site_type_symbol
_atom_type_description
_atom_site_fract_x
_atom_site_fract_y
_atom_site_fract_z
_atom_type_partial_charge
C1    C     C_R   0.273679 0.039962 0.855853 0.542706
C2    C     C_3   0.687396 0.534311 0.956209 -0.245751
C3    C     C_R   0.226053 0.542295 0.354640 0.544827
C4    C     C_R   0.469641 0.822340 0.646072 0.551867
C5    C     C_R   0.530350 0.822193 0.353887 0.552504
C6    C     C_R   0.969641 0.322340 0.646072 0.552672
C7    C     C_R   0.030350 0.322193 0.353888 0.551744
C8    C     C_R   0.260205 0.638812 0.644376 0.542324
C9    C     C_R   0.739902 0.638419 0.355523 0.545875
C10   C     C_R   0.760205 0.138814 0.644374 0.541058
C11   C     C_R   0.239901 0.138422 0.355525 0.542358
C12   C     C_3   0.485320 0.916873 0.034263 -0.109975
C13   C     C_3   0.806316 0.014297 0.039086 -0.241694
C14   C     C_3   0.524056 0.910536 0.962637 -0.096433
C15   C     C_3   0.979938 0.416973 0.036408 -0.112252
C16   C     C_3   0.017313 0.415829 0.963807 -0.101640
C17   C     C_3   0.434463 0.822967 0.007277 -0.162199
C18   C     C_3   0.569498 0.809344 0.993086 -0.146448
C19   C     C_3   0.930795 0.320357 0.009109 -0.164560
C20   C     C_3   0.065634 0.318161 0.991989 -0.158735
C21   C     C_3   0.473087 0.818147 0.936225 0.055671
C22   C     C_3   0.530421 0.817964 0.063764 0.050754
C23   C     C_3   0.968506 0.320119 0.937107 0.053262
C24   C     C_3   0.188679 0.023100 0.959254 -0.243468
C25   C     C_3   0.028016 0.320441 0.063856 0.054467
C26   C     C_1   0.473513 0.598264 0.422603 0.185831
C27   C     C_1   0.526843 0.598406 0.578275 0.185888
C28   C     C_1   0.973512 0.098265 0.422604 0.185807
C29   C     C_1   0.026844 0.098406 0.578275 0.185901
C30   C     C_1   0.664056 0.954086 0.892682 0.145840
C31   C     C_1   0.334385 0.959087 0.110771 0.149196
C32   C     C_1   0.165050 0.459603 0.889758 0.146481
C33   C     C_1   0.819084 0.447134 0.114602 0.154154
C34   C     C_3   0.311128 0.519857 0.957997 -0.247532
C35   C     C_3   0.682029 0.547061 0.037828 -0.241022
C36   C     C_3   0.807824 0.014439 0.956691 -0.246974
C37   C     C_3   0.188109 0.021911 0.042036 -0.246851
C38   C     C_3   0.179986 0.513758 0.021966 -0.229665
C39   C     C_3   0.815102 0.504661 0.979549 -0.236831
C40   C     C_3   0.674145 0.025676 0.022809 -0.215432
C41   C     C_R   0.725759 0.039775 0.143798 0.544048
C42   C     C_3   0.318777 0.012290 0.978206 -0.231910
C43   C     C_3   0.238927 0.700018 0.051766 -0.259778
C44   C     C_3   0.768301 0.700464 0.944530 -0.256789
C45   C     C_3   0.743525 0.199383 0.051392 -0.258114
C46   C     C_3   0.261457 0.200157 0.947612 -0.258693
C47   C     C_3   0.239767 0.567716 0.067209 0.050501
C48   C     C_3   0.760428 0.568545 0.931927 0.049658
C49   C     C_3   0.738053 0.067960 0.066574 0.045599
C50   C     C_3   0.259734 0.067999 0.932599 0.049781
C51   C     C_3   0.253494 0.603072 0.928828 0.055728
C52   C     C_R   0.774167 0.539023 0.855903 0.543381
C53   C     C_3   0.745905 0.611977 0.068782 0.051997
C54   C     C_3   0.752007 0.100479 0.927868 0.055961
C55   C     C_3   0.246390 0.103698 0.071020 0.054571
C56   C     C_3   0.182605 0.551497 0.942597 -0.113584
C57   C     C_3   0.811267 0.539466 0.059367 -0.110693
C58   C     C_3   0.680448 0.051904 0.941770 -0.111774
C59   C     C_3   0.316938 0.050797 0.057342 -0.113601
C60   C     C_3   0.257440 0.717614 0.972322 -0.251665
C61   C     C_3   0.760035 0.724802 0.024490 -0.250790
C62   C     C_3   0.758047 0.215197 0.970885 -0.249678
C63   C     C_R   0.226141 0.539866 0.144024 0.543452
C64   C     C_3   0.243363 0.218245 0.027070 -0.251358
C65   C     C_3   0.509962 0.693798 0.461665 -0.104579
C66   C     C_3   0.490219 0.693876 0.538787 -0.103859
C67   C     C_3   0.009962 0.193798 0.461665 -0.104501
C68   C     C_3   0.990220 0.193876 0.538788 -0.103963
C69   C     C_R   0.444752 0.816786 0.862519 0.543471
C70   C     C_R   0.557137 0.816733 0.137808 0.539785
C71   C     C_R   0.942459 0.316822 0.862381 0.544318
C72   C     C_R   0.056042 0.317223 0.137553 0.540878
C73   C     C_3   0.563025 0.899351 0.472693 -0.245408
C74   C     C_3   0.518006 0.717609 0.965837 -0.106940
C75   C     C_3   0.436889 0.899449 0.526830 -0.246077
C76   C     C_3   0.063025 0.399351 0.472694 -0.245454
C77   C     C_3   0.936889 0.399450 0.526831 -0.246237
C78   C     C_3   0.439689 0.876656 0.445188 -0.273644
C79   C     C_3   0.560230 0.876941 0.554463 -0.273798
C80   C     C_3   0.939689 0.376656 0.445189 -0.273689
C81   C     C_3   0.060230 0.376941 0.554464 -0.273739
C82   C     C_3   0.509603 0.822877 0.430316 0.034061
C83   C     C_3   0.490395 0.823124 0.569595 0.034321
C84   C     C_3   0.009604 0.322877 0.430317 0.034318
C85   C     C_3   0.480114 0.724079 0.037031 -0.107416
C86   C     C_3   0.990395 0.323124 0.569596 0.034211
C87   C     C_3   0.175912 0.641813 0.460173 -0.225760
C88   C     C_3   0.824162 0.641949 0.539675 -0.226243
C89   C     C_3   0.675912 0.141814 0.460171 -0.225829
C90   C     C_3   0.324163 0.141949 0.539675 -0.226315
C91   C     C_3   0.182052 0.657981 0.539498 -0.222022
C92   C     C_3   0.818106 0.657695 0.460288 -0.222093
C93   C     C_3   0.682053 0.157982 0.539497 -0.222026
C94   C     C_3   0.318106 0.157695 0.460288 -0.221836
C95   C     C_3   0.250517 0.453625 0.473788 -0.222500
C96   C     C_3   0.016240 0.222821 0.965209 -0.105058
C97   C     C_3   0.749607 0.453812 0.527024 -0.222046
C98   C     C_3   0.750517 0.953627 0.473786 -0.222601
C99   C     C_3   0.249607 0.953812 0.527025 -0.221639
C100  C     C_3   0.298729 0.650595 0.444050 -0.268477
C101  C     C_3   0.701305 0.651053 0.555494 -0.269285
C102  C     C_3   0.798728 0.150599 0.444048 -0.268234
C103  C     C_3   0.201305 0.151054 0.555495 -0.269434
C104  C     C_3   0.237677 0.571072 0.430868 0.058389
C105  C     C_3   0.762386 0.571456 0.569213 0.058748
C106  C     C_3   0.737677 0.071075 0.430866 0.057974
C107  C     C_3   0.979277 0.224074 0.037068 -0.105251
C108  C     C_3   0.262386 0.071457 0.569214 0.058698
C109  C     C_3   0.250059 0.603947 0.568663 0.060596
C110  C     C_3   0.750105 0.603620 0.431322 0.059979
C111  C     C_3   0.750060 0.103949 0.568662 0.060889
C112  C     C_3   0.250105 0.103622 0.431324 0.060781
C113  C     C_3   0.244579 0.471073 0.555658 -0.266576
C114  C     C_3   0.755630 0.470789 0.445077 -0.266943
C115  C     C_3   0.744580 0.971075 0.555657 -0.266651
C116  C     C_3   0.255630 0.970790 0.445078 -0.267427
C117  C     C_R   0.261620 0.638784 0.853095 0.550735
C118  C     C_3   0.310605 0.521606 0.040688 -0.242119
C119  C     C_R   0.736424 0.647630 0.144114 0.551950
C120  C     C_R   0.760841 0.136441 0.852186 0.546478
C121  C     C_R   0.238306 0.139329 0.146764 0.550172
C122  C     C_3   0.312903 0.646862 0.525115 -0.224057
C123  C     C_3   0.687205 0.646848 0.474461 -0.224389
C124  C     C_3   0.812903 0.146865 0.525113 -0.224148
C125  C     C_3   0.187204 0.146849 0.474462 -0.223992
C126  C     C_R   0.273883 0.042686 0.645478 0.544555
C127  C     C_R   0.726054 0.042297 0.354639 0.546630
C128  C     C_R   0.773883 0.542686 0.645478 0.544597
Cr1   Cr    Cr6+3 0.229620 0.836040 0.749110 1.022236
Cr2   Cr    Cr6+3 0.613980 0.676590 0.250790 1.025589
Cr3   Cr    Cr6+3 0.886020 0.176590 0.749210 1.022277
Cr4   Cr    Cr6+3 0.113980 0.176590 0.250790 1.022961
Cr5   Cr    Cr6+3 0.770380 0.836040 0.250890 1.021480
Cr6   Cr    Cr6+3 0.729620 0.336040 0.749110 1.021073
Cr7   Cr    Cr6+3 0.270380 0.336040 0.250890 1.022041
Cr8   Cr    Cr6+3 0.387630 0.990680 0.750730 1.013013
Cr9   Cr    Cr6+3 0.612370 0.990680 0.249270 1.014393
Cr10  Cr    Cr6+3 0.887630 0.490680 0.750730 1.013119
Cr11  Cr    Cr6+3 0.112370 0.490680 0.249270 1.012175
Cr12  Cr    Cr6+3 0.386020 0.676590 0.749210 1.023453
H1    H     H_    0.383258 0.813841 0.027127 0.120771
H2    H     H_    0.729822 0.749200 0.913135 0.154597
H3    H     H_    0.196042 0.928995 0.537811 0.138381
H4    H     H_    0.286122 0.422760 0.584176 0.116807
H5    H     H_    0.714133 0.422456 0.416804 0.117395
H6    H     H_    0.786123 0.922763 0.584174 0.116596
H7    H     H_    0.214132 0.922458 0.416805 0.116383
H8    H     H_    0.327921 0.437313 0.063550 0.129527
H9    H     H_    0.672157 0.444433 0.940219 0.127196
H10   H     H_    0.818218 0.929208 0.062316 0.135475
H11   H     H_    0.171762 0.938103 0.937338 0.128972
H12   H     H_    0.350741 0.583664 0.059546 0.120401
H13   H     H_    0.786196 0.233769 0.082803 0.155100
H14   H     H_    0.649734 0.593542 0.929466 0.127995
H15   H     H_    0.849726 0.068837 0.058830 0.115404
H16   H     H_    0.148566 0.085172 0.939731 0.122451
H17   H     H_    0.362513 0.548722 0.939930 0.139315
H18   H     H_    0.634534 0.596558 0.050233 0.132711
H19   H     H_    0.859760 0.041785 0.939468 0.138507
H20   H     H_    0.136932 0.052305 0.059819 0.140015
H21   H     H_    0.302797 0.429537 0.937849 0.123601
H22   H     H_    0.677616 0.458253 0.062940 0.128748
H23   H     H_    0.798812 0.925343 0.935375 0.124787
H24   H     H_    0.224841 0.247174 0.912664 0.150566
H25   H     H_    0.195642 0.931364 0.062754 0.123544
H26   H     H_    0.663870 0.935127 0.035875 0.092709
H27   H     H_    0.311555 0.919278 0.973945 0.099895
H28   H     H_    0.184643 0.420237 0.027189 0.099580
H29   H     H_    0.805111 0.413516 0.974097 0.100411
H30   H     H_    0.310391 0.742927 0.965537 0.099769
H31   H     H_    0.721329 0.790088 0.034755 0.104587
H32   H     H_    0.811202 0.239261 0.961310 0.101121
H33   H     H_    0.190932 0.245188 0.034228 0.099353
H34   H     H_    0.224247 0.785392 0.949585 0.136319
H35   H     H_    0.809602 0.759391 0.042280 0.125614
H36   H     H_    0.723255 0.283239 0.949725 0.136418
H37   H     H_    0.622987 0.787002 0.982790 0.112109
H38   H     H_    0.277260 0.284701 0.049397 0.136039
H39   H     H_    0.627685 0.072673 0.041826 0.126671
H40   H     H_    0.369875 0.034140 0.956149 0.131704
H41   H     H_    0.129258 0.538993 0.043634 0.131074
H42   H     H_    0.867390 0.522746 0.959433 0.129709
H43   H     H_    0.143505 0.622174 0.934712 0.121796
H44   H     H_    0.856767 0.595880 0.070040 0.115055
H45   H     H_    0.642304 0.122131 0.928758 0.120128
H46   H     H_    0.356476 0.120744 0.064445 0.121939
H47   H     H_    0.561976 0.667516 0.458692 0.118723
H48   H     H_    0.879694 0.311970 0.029720 0.116068
H49   H     H_    0.438214 0.667456 0.541935 0.119211
H50   H     H_    0.061975 0.167515 0.458692 0.118773
H51   H     H_    0.938215 0.167456 0.541936 0.119211
H52   H     H_    0.614448 0.891027 0.451885 0.113826
H53   H     H_    0.385497 0.891166 0.547726 0.113937
H54   H     H_    0.114449 0.391028 0.451887 0.114006
H55   H     H_    0.885497 0.391167 0.547727 0.113912
H56   H     H_    0.600951 0.815423 0.571837 0.121186
H57   H     H_    0.399069 0.814966 0.428210 0.121393
H58   H     H_    0.100951 0.315422 0.571838 0.121344
H59   H     H_    0.116409 0.305727 0.971050 0.121237
H60   H     H_    0.899069 0.314966 0.428211 0.121646
H61   H     H_    0.472386 0.000290 0.062158 0.126035
H62   H     H_    0.538076 0.990997 0.932217 0.128524
H63   H     H_    0.965790 0.498092 0.065973 0.122240
H64   H     H_    0.031683 0.496955 0.934042 0.129294
H65   H     H_    0.433101 0.960551 0.414954 0.120636
H66   H     H_    0.566659 0.961009 0.584173 0.119927
H67   H     H_    0.933101 0.460552 0.414955 0.120525
H68   H     H_    0.066660 0.461008 0.584174 0.120377
H69   H     H_    0.452291 0.992346 0.535122 0.130224
H70   H     H_    0.187067 0.735868 0.062183 0.130420
H71   H     H_    0.547518 0.992204 0.463774 0.130802
H72   H     H_    0.952292 0.492346 0.535123 0.130238
H73   H     H_    0.047518 0.492204 0.463775 0.130776
H74   H     H_    0.127460 0.600180 0.447621 0.137848
H75   H     H_    0.872651 0.600403 0.552635 0.138383
H76   H     H_    0.627460 0.100181 0.447620 0.137726
H77   H     H_    0.372651 0.100404 0.552635 0.138359
H78   H     H_    0.172308 0.729940 0.433711 0.124124
H79   H     H_    0.827617 0.730211 0.565603 0.123591
H80   H     H_    0.672308 0.229941 0.433710 0.124566
H81   H     H_    0.819682 0.730340 0.926859 0.135636
H82   H     H_    0.327617 0.230212 0.565603 0.123648
H83   H     H_    0.177503 0.752238 0.550999 0.144253
H84   H     H_    0.822654 0.751952 0.448260 0.145137
H85   H     H_    0.677503 0.252239 0.550998 0.144343
H86   H     H_    0.322655 0.251952 0.448260 0.145282
H87   H     H_    0.137581 0.616792 0.566356 0.123282
H88   H     H_    0.862626 0.616293 0.433750 0.122997
H89   H     H_    0.637582 0.116792 0.566355 0.123077
H90   H     H_    0.362625 0.116292 0.433750 0.122998
H91   H     H_    0.719984 0.881198 0.454252 0.110139
H92   H     H_    0.696175 0.247098 0.066757 0.132742
H93   H     H_    0.279976 0.881276 0.547238 0.110781
H94   H     H_    0.219984 0.381195 0.454253 0.110297
H95   H     H_    0.779976 0.381276 0.547238 0.110846
H96   H     H_    0.695325 0.937455 0.575761 0.115328
H97   H     H_    0.304912 0.936998 0.425272 0.115843
H98   H     H_    0.195323 0.437454 0.575762 0.115720
H99   H     H_    0.804913 0.436998 0.425270 0.116541
H100  H     H_    0.342509 0.619429 0.413376 0.158364
H101  H     H_    0.657523 0.620178 0.586323 0.157975
H102  H     H_    0.842509 0.119434 0.413373 0.158595
H103  H     H_    0.313559 0.234694 0.936885 0.131099
H104  H     H_    0.157523 0.120179 0.586325 0.157995
H105  H     H_    0.288284 0.741574 0.425544 0.109423
H106  H     H_    0.711702 0.742102 0.573378 0.109248
H107  H     H_    0.788283 0.241577 0.425541 0.110231
H108  H     H_    0.211702 0.242103 0.573379 0.109395
H109  H     H_    0.530665 0.633835 0.938196 0.126548
H110  H     H_    0.462661 0.645615 0.067545 0.130760
H111  H     H_    0.031089 0.140799 0.936850 0.127954
H112  H     H_    0.963577 0.143383 0.066576 0.128787
H113  H     H_    0.334159 0.728901 0.544941 0.102309
H114  H     H_    0.275818 0.746202 0.086597 0.150027
H115  H     H_    0.665901 0.728730 0.453913 0.102626
H116  H     H_    0.834161 0.228903 0.544939 0.102393
H117  H     H_    0.165900 0.228731 0.453915 0.102900
H118  H     H_    0.352010 0.577338 0.533734 0.134708
H119  H     H_    0.648203 0.577252 0.466192 0.134547
H120  H     H_    0.852010 0.077341 0.533730 0.134746
H121  H     H_    0.148203 0.077253 0.466194 0.134582
H122  H     H_    0.304044 0.428401 0.463122 0.137825
H123  H     H_    0.696042 0.428995 0.537810 0.138398
H124  H     H_    0.804045 0.928402 0.463120 0.137803
N1    N     N_1   0.448214 0.520978 0.391837 -0.314156
N2    N     N_1   0.552288 0.521201 0.609397 -0.313958
N3    N     N_1   0.948213 0.020979 0.391838 -0.314364
N4    N     N_1   0.052288 0.021200 0.609397 -0.313972
N5    N     N_1   0.650183 0.880976 0.851915 -0.309077
N6    N     N_1   0.348643 0.890125 0.154299 -0.303517
N7    N     N_1   0.150728 0.390751 0.846511 -0.305158
N8    N     N_1   0.826720 0.380476 0.161104 -0.306360
O1    O     O_R   0.214130 0.708570 0.829890 -0.528088
O2    O     O_R   0.542830 0.717300 0.331620 -0.504996
O3    O     O_R   0.957170 0.217300 0.668380 -0.505322
O4    O     O_R   0.042830 0.217300 0.331620 -0.504962
O5    O     O_R   0.320870 0.624890 0.673130 -0.509240
O6    O     O_R   0.679130 0.624890 0.326870 -0.506910
O7    O     O_R   0.820870 0.124890 0.673130 -0.509587
O8    O     O_R   0.179130 0.124890 0.326870 -0.508821
O9    O     O_3   0.334430 0.834430 0.749680 -0.301362
O10   O     O_3   0.665570 0.834430 0.250320 -0.306483
O11   O     O_3   0.834430 0.334430 0.749680 -0.302428
O12   O     O_R   0.785870 0.708570 0.170110 -0.527296
O13   O     O_3   0.165570 0.334430 0.250320 -0.301542
O14   O     O_R   0.236050 0.959150 0.825270 -0.509878
O15   O     O_R   0.763950 0.959150 0.174730 -0.511558
O16   O     O_R   0.736050 0.459150 0.825270 -0.509157
O17   O     O_R   0.263950 0.459150 0.174730 -0.509952
O18   O     O_R   0.332100 0.076650 0.832310 -0.529191
O19   O     O_R   0.667900 0.076650 0.167690 -0.527559
O20   O     O_R   0.832100 0.576650 0.832310 -0.531903
O21   O     O_R   0.167900 0.576650 0.167690 -0.528993
O22   O     O_R   0.446500 0.918620 0.826240 -0.497864
O23   O     O_R   0.714130 0.208570 0.829890 -0.530128
O24   O     O_R   0.553500 0.918620 0.173760 -0.495497
O25   O     O_R   0.946500 0.418620 0.826240 -0.496268
O26   O     O_R   0.053500 0.418620 0.173760 -0.499365
O27   O     O_R   0.457310 0.715830 0.831280 -0.511323
O28   O     O_R   0.542690 0.715830 0.168720 -0.513100
O29   O     O_R   0.957310 0.215830 0.831280 -0.510913
O30   O     O_R   0.042690 0.215830 0.168720 -0.513542
O31   O     O_R   0.321000 0.623520 0.824130 -0.523033
O32   O     O_R   0.679000 0.623520 0.175870 -0.519458
O33   O     O_R   0.821000 0.123520 0.824130 -0.524077
O34   O     O_R   0.285870 0.208570 0.170110 -0.527874
O35   O     O_R   0.179000 0.123520 0.175870 -0.522956
O36   O     O_R   0.213990 0.710040 0.667000 -0.524254
O37   O     O_R   0.786010 0.710040 0.333000 -0.523858
O38   O     O_R   0.713990 0.210040 0.667000 -0.524852
O39   O     O_R   0.286010 0.210040 0.333000 -0.524392
O40   O     O_R   0.235920 0.960520 0.674260 -0.496148
O41   O     O_R   0.764080 0.960520 0.325740 -0.495779
O42   O     O_R   0.735920 0.460520 0.674260 -0.495770
O43   O     O_R   0.264080 0.460520 0.325740 -0.495992
O44   O     O_R   0.331960 0.078120 0.669410 -0.530994
O45   O     O_R   0.446360 0.919990 0.675230 -0.505317
O46   O     O_R   0.668040 0.078120 0.330590 -0.529888
O47   O     O_R   0.831960 0.578120 0.669410 -0.531200
O48   O     O_R   0.168040 0.578120 0.330590 -0.531014
O49   O     O_R   0.553640 0.919990 0.324770 -0.505518
O50   O     O_R   0.946360 0.419990 0.675230 -0.504916
O51   O     O_R   0.053640 0.419990 0.324770 -0.506071
O52   O     O_R   0.457170 0.717300 0.668380 -0.505376

loop_
_geom_bond_atom_site_label_1
_geom_bond_atom_site_label_2
_ccdc_geom_bond_type
C65   H47   S    
C55   C59   S    
C35   C53   S    
C60   H34   S    
C61   H35   S    
C34   H21   S    
C126  O44   A    
C38   H41   S    
C17   C85   S    
C37   H20   S    
C99   H3    S    
C87   C91   S    
C99   H93   S    
C9    O37   A    
C97   H95   S    
C66   H49   S    
C100  C104  S    
C11   O39   A    
C59   H46   S    
C31   C59   S    
C90   H77   S    
C100  H105  S    
C76   H73   S    
C18   H37   S    
C42   H40   S    
Cr10  O11   S    
Cr6   O16   S    
Cr7   O13   S    
Cr6   O42   S    
C81   C86   S    
Cr7   O39   S    
C97   C105  S    
C111  C124  S    
Cr12  O52   S    
C30   N5    T    
C46   H103  S    
Cr4   O8    S    
C101  H106  S    
C41   C49   S    
C1    O14   A    
Cr1   O40   S    
C41   O19   A    
C40   C58   S    
C7    O51   A    
C92   H84   S    
C117  O1    A    
C99   C116  S    
C123  H119  S    
C106  C127  S    
C17   C21   S    
Cr2   O28   S    
C15   C19   S    
C24   H11   S    
C19   H48   S    
C29   C68   S    
C78   C82   S    
C16   C20   S    
C128  O47   A    
C10   C111  S    
Cr7   O17   S    
C112  C125  S    
Cr8   O22   S    
Cr6   O38   S    
Cr7   O43   S    
Cr9   O10   S    
Cr10  O50   S    
C9    O6    A    
Cr4   O35   S    
C11   O8    A    
C42   H27   S    
C25   C107  S    
C9    C110  S    
C11   C112  S    
C116  H7    S    
C15   H63   S    
C88   H79   S    
C98   C106  S    
C113  H4    S    
C77   H55   S    
C78   H65   S    
C39   H29   S    
C27   C66   S    
C5    C82   S    
C65   C82   S    
C97   H123  S    
C14   C21   S    
C93   H85   S    
C48   C52   S    
C29   N4    T    
C69   O22   A    
C32   N7    T    
C96   H111  S    
C108  C126  S    
C16   H64   S    
C43   C47   S    
C24   H16   S    
Cr4   O4    S    
C34   C118  S    
C55   C121  S    
C122  H113  S    
Cr3   O11   S    
C8    O5    A    
C99   C108  S    
C115  H6    S    
C34   C51   S    
C107  H112  S    
Cr9   O49   S    
C15   C25   S    
C127  O46   A    
C40   C49   S    
C12   C22   S    
C45   C62   S    
C63   O21   A    
C22   C85   S    
C53   C61   S    
C36   H23   S    
C120  O33   A    
C102  H102  S    
C10   O7    A    
C110  C114  S    
C126  O40   A    
C77   H72   S    
C20   C96   S    
C2    H14   S    
C103  H104  S    
C24   C50   S    
C10   O38   A    
Cr11  O26   S    
C7    O4    A    
C37   H25   S    
C68   H51   S    
C116  H97   S    
C87   C104  S    
C21   C69   S    
C3    O43   A    
C89   C106  S    
C71   O25   A    
C72   O30   A    
Cr4   O13   S    
C31   N6    T    
C24   C37   S    
C73   C79   S    
C61   H31   S    
C118  H12   S    
C92   H88   S    
C76   H54   S    
C42   C50   S    
C89   H76   S    
C113  H98   S    
C45   H92   S    
C16   C23   S    
C112  C116  S    
C74   H109  S    
C94   H90   S    
C127  O41   A    
C18   C22   S    
C123  H115  S    
C73   H71   S    
C102  H107  S    
C114  H5    S    
C42   C59   S    
C52   O16   A    
C44   C61   S    
C6    C86   S    
C90   C108  S    
Cr8   O18   S    
C88   C105  S    
C92   C110  S    
C98   C115  S    
C14   H62   S    
C94   C112  S    
C51   C117  S    
C87   H74   S    
C100  H100  S    
C74   C85   S    
C89   C93   S    
C103  C125  S    
C39   H42   S    
C36   C54   S    
C37   C55   S    
C34   H17   S    
C44   C48   S    
C38   C56   S    
C5    O49   A    
C125  H121  S    
C114  H99   S    
C51   C60   S    
C97   C114  S    
C22   C70   S    
C57   H44   S    
Cr7   O34   S    
C19   C107  S    
C2    C35   S    
C88   H75   S    
Cr1   O1    S    
Cr5   O41   S    
C80   C84   S    
C76   C84   S    
C67   H50   S    
C38   H28   S    
C28   N3    T    
C13   H10   S    
C47   C63   S    
C20   C25   S    
Cr5   O10   S    
C17   H1    S    
C87   H78   S    
C115  H96   S    
Cr10  O20   S    
C36   H19   S    
C66   C83   S    
C47   C118  S    
C12   C17   S    
C95   H94   S    
Cr2   O2    S    
C1    C50   S    
Cr3   O7    S    
Cr2   O32   S    
Cr3   O33   S    
Cr4   O30   S    
C58   H45   S    
C102  C124  S    
Cr5   O37   S    
Cr3   O29   S    
C90   C94   S    
Cr12  O27   S    
C67   C68   S    
C23   C71   S    
C6    O50   A    
C53   C57   S    
C54   C62   S    
C2    C48   S    
C40   H39   S    
C64   H38   S    
C45   C49   S    
C62   H36   S    
C3    O48   A    
Cr8   O9    S    
C93   C111  S    
C81   H68   S    
C43   H114  S    
C96   C107  S    
Cr11  O51   S    
C33   N8    T    
C45   H13   S    
C91   H83   S    
C73   C82   S    
C81   H58   S    
Cr11  O48   S    
C77   C80   S    
C75   H69   S    
C91   H87   S    
Cr12  O5    S    
Cr9   O24   S    
C71   O29   A    
C72   O26   A    
C119  O12   A    
C56   H43   S    
Cr5   O12   S    
C8    O36   A    
C103  H108  S    
C60   H30   S    
C118  H8    S    
C35   H18   S    
C89   H80   S    
C79   C83   S    
C75   C83   S    
C4    C83   S    
C128  O42   A    
C1    O18   A    
C94   H86   S    
C98   H91   S    
C27   N2    T    
C124  H120  S    
C44   H2    S    
C69   O27   A    
C70   O28   A    
C5    O2    A    
C64   H33   S    
C4    O45   A    
C32   C56   S    
C39   C48   S    
C80   H60   S    
C3    C104  S    
C121  O34   A    
C54   C120  S    
C68   C86   S    
C14   C18   S    
C19   C23   S    
Cr12  O9    S    
C124  H116  S    
Cr8   O44   S    
C101  C123  S    
Cr1   O14   S    
C90   H82   S    
C110  C123  S    
Cr1   O36   S    
C109  C122  S    
C41   O15   A    
C15   C16   S    
C39   C57   S    
C125  H117  S    
C23   C96   S    
Cr11  O13   S    
C51   C56   S    
Cr9   O19   S    
C43   H70   S    
Cr6   O23   S    
C13   H15   S    
C122  H118  S    
C95   H122  S    
C88   C92   S    
Cr5   O15   S    
C103  C108  S    
C78   H57   S    
C70   O24   A    
C101  H101  S    
C40   H26   S    
Cr10  O47   S    
C109  C113  S    
C26   N1    T    
C2    H9    S    
C7    C84   S    
C85   H110  S    
C18   C74   S    
C46   H24   S    
C52   O20   A    
C98   H124  S    
C101  C105  S    
C35   H22   S    
C73   H52   S    
C28   C67   S    
C13   C36   S    
Cr11  O21   S    
C21   C74   S    
C79   H56   S    
C46   C64   S    
Cr2   O6    S    
C20   H59   S    
Cr3   O3    S    
Cr8   O45   S    
C55   C64   S    
C117  O31   A    
C25   C72   S    
C12   H61   S    
Cr10  O25   S    
Cr1   O9    S    
C6    O3    A    
C38   C47   S    
C43   C60   S    
Cr12  O31   S    
C13   C49   S    
C75   H53   S    
C12   C14   S    
C77   C86   S    
C119  O32   A    
Cr9   O46   S    
C95   C104  S    
C63   O17   A    
C54   C58   S    
C93   H89   S    
C33   C57   S    
C105  C128  S    
C26   C65   S    
C120  O23   A    
C76   C81   S    
C53   C119  S    
C79   H66   S    
C62   H32   S    
C46   C50   S    
Cr6   O11   S    
C91   C109  S    
Cr2   O10   S    
C8    C109  S    
C95   C113  S    
C30   C58   S    
C102  C106  S    
C100  C122  S    
C75   C78   S    
C67   C84   S    
C80   H67   S    
C121  O35   A    
C65   C66   S    
C4    O52   A    
C111  C115  S    
C44   H81   S    
