data_str_m4_o22_o24_f0_acs.sym.90
_audit_creation_date              2012-12-11T15:08:59-0500
_audit_creation_method            fapswitch 2.2
_symmetry_space_group_name_H-M    P1
_symmetry_Int_Tables_number       1
_space_group_crystal_system       triclinic
_cell_length_a                    19.396864
_cell_length_b                    11.339515
_cell_length_c                    18.662146
_cell_angle_alpha                 88.973456
_cell_angle_beta                  90.561599
_cell_angle_gamma                 90.330624
_cell_volume                      4103.83803076

loop_
_atom_site_label
_atom_site_type_symbol
_atom_type_description
_atom_site_fract_x
_atom_site_fract_y
_atom_site_fract_z
_atom_type_partial_charge
C1    C     C_R   0.272440 0.043193 0.854108 0.537682
C2    C     C_R   0.727606 0.044162 0.146141 0.530563
C3    C     C_R   0.772440 0.543193 0.854108 0.537682
C4    C     C_R   0.227605 0.544162 0.146141 0.530563
C5    C     C_3   0.520248 0.722795 0.965539 -0.114095
C6    C     C_3   0.480703 0.722176 0.036294 -0.109576
C7    C     C_3   0.020248 0.222794 0.965539 -0.114095
C8    C     C_3   0.980702 0.222177 0.036294 -0.109576
C9    C     C_3   0.311966 0.529029 0.045047 -0.235018
C10   C     C_3   0.687943 0.527732 0.956439 -0.235522
C11   C     C_3   0.811966 0.029029 0.045047 -0.235017
C12   C     C_3   0.187943 0.027732 0.956439 -0.235522
C13   C     C_3   0.321518 0.553031 0.964336 -0.237418
C14   C     C_3   0.678479 0.553422 0.036604 -0.234694
C15   C     C_3   0.821518 0.053032 0.964336 -0.237418
C16   C     C_3   0.178479 0.053422 0.036604 -0.234693
C17   C     C_3   0.179692 0.522844 0.026320 -0.210388
C18   C     C_3   0.820042 0.524640 0.975446 -0.212584
C19   C     C_3   0.679693 0.022844 0.026320 -0.210389
C20   C     C_3   0.320042 0.024640 0.975446 -0.212584
C21   C     C_3   0.240623 0.707512 0.055133 -0.258259
C22   C     C_3   0.758843 0.707358 0.941688 -0.253758
C23   C     C_3   0.740623 0.207513 0.055133 -0.258259
C24   C     C_3   0.258843 0.207357 0.941688 -0.253758
C25   C     C_3   0.240972 0.575123 0.070361 0.065752
C26   C     C_3   0.758723 0.574587 0.929674 0.062505
C27   C     C_3   0.740972 0.075124 0.070361 0.065752
C28   C     C_3   0.258723 0.074587 0.929674 0.062505
C29   C     C_3   0.255239 0.609038 0.932080 0.052132
C30   C     C_3   0.744818 0.610897 0.067678 0.053126
C31   C     C_3   0.755239 0.109039 0.932080 0.052132
C32   C     C_3   0.244818 0.110897 0.067678 0.053126
C33   C     C_3   0.195004 0.523657 0.945505 -0.253169
C34   C     C_3   0.804917 0.526252 0.056321 -0.249617
C35   C     C_3   0.695005 0.023657 0.945505 -0.253169
C36   C     C_3   0.304917 0.026252 0.056321 -0.249617
C37   C     C_3   0.239029 0.724614 0.972879 -0.223263
C38   C     C_3   0.761244 0.725975 0.023628 -0.227326
C39   C     C_3   0.739029 0.224614 0.972879 -0.223262
C40   C     C_3   0.261244 0.225975 0.023628 -0.227326
C41   C     C_3   0.497611 0.703506 0.458928 -0.237902
C42   C     C_3   0.486742 0.697760 0.538913 -0.225800
C43   C     C_3   0.997611 0.203506 0.458928 -0.237902
C44   C     C_3   0.986742 0.197760 0.538913 -0.225800
C45   C     C_R   0.443976 0.816132 0.862144 0.533777
C46   C     C_R   0.555910 0.817874 0.137771 0.539435
C47   C     C_R   0.943976 0.316132 0.862144 0.533778
C48   C     C_R   0.055910 0.317874 0.137771 0.539434
C49   C     C_3   0.600565 0.820870 0.493261 -0.266327
C50   C     C_3   0.469500 0.919992 0.528116 -0.255719
C51   C     C_3   0.100565 0.320871 0.493261 -0.266327
C52   C     C_3   0.969500 0.419992 0.528116 -0.255719
C53   C     C_3   0.494783 0.922595 0.451869 -0.223534
C54   C     C_3   0.578278 0.840470 0.571901 -0.246196
C55   C     C_3   0.994783 0.422595 0.451869 -0.223534
C56   C     C_3   0.078278 0.340470 0.571901 -0.246196
C57   C     C_3   0.539616 0.816631 0.439308 0.036519
C58   C     C_3   0.501213 0.821693 0.573976 0.063884
C59   C     C_3   0.039616 0.316631 0.439308 0.036519
C60   C     C_3   0.001213 0.321693 0.573976 0.063884
C61   C     C_3   0.173994 0.628395 0.461762 -0.232792
C62   C     C_3   0.755747 0.697977 0.550612 -0.263264
C63   C     C_3   0.673994 0.128395 0.461762 -0.232792
C64   C     C_3   0.255747 0.197977 0.550612 -0.263264
C65   C     C_3   0.183433 0.645709 0.541033 -0.239829
C66   C     C_3   0.754797 0.712539 0.469090 -0.234105
C67   C     C_3   0.683433 0.145709 0.541033 -0.239829
C68   C     C_3   0.254797 0.212539 0.469090 -0.234105
C69   C     C_3   0.276529 0.488381 0.473385 -0.255271
C70   C     C_3   0.821573 0.521594 0.530386 -0.243294
C71   C     C_3   0.776529 0.988381 0.473385 -0.255271
C72   C     C_3   0.321573 0.021594 0.530386 -0.243294
C73   C     C_3   0.292201 0.690587 0.427402 -0.249605
C74   C     C_3   0.690842 0.511030 0.540245 -0.243277
C75   C     C_3   0.792201 0.190587 0.427402 -0.249605
C76   C     C_3   0.190842 0.011030 0.540245 -0.243277
C77   C     C_3   0.242975 0.586588 0.426919 0.052361
C78   C     C_3   0.758231 0.569155 0.568984 0.043224
C79   C     C_3   0.742975 0.086588 0.426919 0.052361
C80   C     C_3   0.258231 0.069155 0.568984 0.043224
C81   C     C_3   0.261886 0.648949 0.560356 0.034890
C82   C     C_3   0.750018 0.595277 0.429183 0.060918
C83   C     C_3   0.761886 0.148949 0.560356 0.034890
C84   C     C_3   0.250018 0.095277 0.429183 0.060918
C85   C     C_3   0.293978 0.526946 0.549284 -0.082858
C86   C     C_3   0.817175 0.529678 0.446997 -0.112035
C87   C     C_3   0.793978 0.026946 0.549284 -0.082858
C88   C     C_3   0.317175 0.029678 0.446997 -0.112036
C89   C     C_R   0.262036 0.640797 0.854707 0.546584
C90   C     C_R   0.737656 0.642754 0.144790 0.540684
C91   C     C_R   0.762036 0.140797 0.854707 0.546585
C92   C     C_R   0.237656 0.142754 0.144790 0.540684
C93   C     C_3   0.295066 0.735575 0.505179 -0.286404
C94   C     C_3   0.687950 0.520585 0.457853 -0.258408
C95   C     C_3   0.795066 0.235575 0.505179 -0.286404
C96   C     C_3   0.187950 0.020584 0.457853 -0.258407
C97   C     C_R   0.271633 0.045553 0.646454 0.548513
C98   C     C_R   0.727222 0.044350 0.353697 0.532908
C99   C     C_R   0.771633 0.545553 0.646454 0.548513
C100  C     C_R   0.227222 0.544350 0.353697 0.532908
C101  C     C_R   0.471230 0.822481 0.647199 0.533676
C102  C     C_R   0.560465 0.817257 0.361733 0.546114
C103  C     C_R   0.971230 0.322481 0.647199 0.533676
C104  C     C_R   0.060465 0.317257 0.361733 0.546114
C105  C     C_R   0.272807 0.685728 0.636431 0.542868
C106  C     C_R   0.741077 0.632223 0.353128 0.568959
C107  C     C_R   0.772807 0.185728 0.636431 0.542868
C108  C     C_R   0.241077 0.132223 0.353128 0.568959
C109  C     C_3   0.479228 0.915065 0.034303 -0.108841
C110  C     C_3   0.519747 0.915701 0.963056 -0.108638
C111  C     C_3   0.979228 0.415065 0.034302 -0.108841
C112  C     C_3   0.019748 0.415700 0.963056 -0.108637
C113  C     C_3   0.431459 0.816257 0.006028 -0.158916
C114  C     C_3   0.568557 0.819511 0.993554 -0.160969
C115  C     C_3   0.931459 0.316258 0.006028 -0.158916
C116  C     C_3   0.068557 0.319510 0.993554 -0.160968
C117  C     C_3   0.471933 0.818414 0.935704 0.057703
C118  C     C_3   0.528080 0.820649 0.063966 0.056336
C119  C     C_3   0.971933 0.318414 0.935704 0.057703
C120  C     C_3   0.028080 0.320649 0.063966 0.056336
Cr1   Cr    Cr6+3 0.229620 0.836040 0.749110 0.992951
Cr2   Cr    Cr6+3 0.770380 0.836040 0.250890 1.021569
Cr3   Cr    Cr6+3 0.729620 0.336040 0.749110 0.992951
Cr4   Cr    Cr6+3 0.270380 0.336040 0.250890 1.021569
Cr5   Cr    Cr6+3 0.387630 0.990680 0.750730 1.016063
Cr6   Cr    Cr6+3 0.612370 0.990680 0.249270 1.027090
Cr7   Cr    Cr6+3 0.887630 0.490680 0.750730 1.016063
Cr8   Cr    Cr6+3 0.112370 0.490680 0.249270 1.027090
Cr9   Cr    Cr6+3 0.386020 0.676590 0.749210 1.036062
Cr10  Cr    Cr6+3 0.613980 0.676590 0.250790 0.994781
Cr11  Cr    Cr6+3 0.886020 0.176590 0.749210 1.036061
Cr12  Cr    Cr6+3 0.113980 0.176590 0.250790 0.994781
H1    H     H_    0.376702 0.801483 0.016650 0.092267
H2    H     H_    0.623357 0.807760 0.982346 0.092939
H3    H     H_    0.876702 0.301485 0.016651 0.092267
H4    H     H_    0.123357 0.307757 0.982347 0.092938
H5    H     H_    0.194910 0.750494 0.078771 0.128016
H6    H     H_    0.804127 0.751336 0.916347 0.134611
H7    H     H_    0.694910 0.250494 0.078771 0.128016
H8    H     H_    0.304127 0.251336 0.916347 0.134611
H9    H     H_    0.286989 0.747172 0.079955 0.106360
H10   H     H_    0.711957 0.745604 0.916506 0.108291
H11   H     H_    0.786989 0.247172 0.079955 0.106360
H12   H     H_    0.211958 0.245604 0.916506 0.108291
H13   H     H_    0.274218 0.794069 0.955779 0.107642
H14   H     H_    0.726357 0.795305 0.038623 0.106034
H15   H     H_    0.774218 0.294070 0.955779 0.107642
H16   H     H_    0.226358 0.295305 0.038623 0.106034
H17   H     H_    0.185689 0.750519 0.957748 0.134035
H18   H     H_    0.814646 0.753289 0.037633 0.130483
H19   H     H_    0.685689 0.250519 0.957748 0.134035
H20   H     H_    0.314646 0.253289 0.037633 0.130483
H21   H     H_    0.632636 0.076961 0.034165 0.137699
H22   H     H_    0.367024 0.079626 0.965965 0.137599
H23   H     H_    0.132636 0.576961 0.034165 0.137698
H24   H     H_    0.867024 0.579626 0.965964 0.137599
H25   H     H_    0.148474 0.552069 0.914757 0.126824
H26   H     H_    0.851559 0.555937 0.086145 0.133160
H27   H     H_    0.648474 0.052069 0.914757 0.126825
H28   H     H_    0.351559 0.055937 0.086145 0.133160
H29   H     H_    0.524426 0.621452 0.443612 0.132284
H30   H     H_    0.435118 0.662126 0.549426 0.126709
H31   H     H_    0.024426 0.121452 0.443612 0.132284
H32   H     H_    0.935118 0.162126 0.549426 0.126709
H33   H     H_    0.447699 0.705205 0.430233 0.130646
H34   H     H_    0.522404 0.630840 0.562940 0.131911
H35   H     H_    0.947699 0.205205 0.430233 0.130646
H36   H     H_    0.022404 0.130840 0.562940 0.131911
H37   H     H_    0.622827 0.732406 0.493763 0.127829
H38   H     H_    0.417936 0.892264 0.522337 0.111593
H39   H     H_    0.122827 0.232406 0.493763 0.127829
H40   H     H_    0.917936 0.392264 0.522337 0.111593
H41   H     H_    0.604054 0.777275 0.609486 0.109302
H42   H     H_    0.450793 0.913555 0.414112 0.182094
H43   H     H_    0.104054 0.277275 0.609486 0.109302
H44   H     H_    0.950793 0.413555 0.414112 0.182094
H45   H     H_    0.463854 0.995224 0.063115 0.118003
H46   H     H_    0.534355 0.996402 0.932305 0.116777
H47   H     H_    0.963855 0.495225 0.063115 0.118002
H48   H     H_    0.034356 0.496401 0.932304 0.116777
H49   H     H_    0.521958 0.007213 0.440753 0.144453
H50   H     H_    0.590745 0.930217 0.589927 0.112445
H51   H     H_    0.021958 0.507213 0.440753 0.144453
H52   H     H_    0.090745 0.430217 0.589927 0.112445
H53   H     H_    0.475672 0.008090 0.552739 0.126920
H54   H     H_    0.635703 0.889607 0.476534 0.095023
H55   H     H_    0.975672 0.508090 0.552739 0.126920
H56   H     H_    0.135703 0.389607 0.476534 0.095023
H57   H     H_    0.130192 0.568511 0.452871 0.127616
H58   H     H_    0.804002 0.738116 0.570891 0.187531
H59   H     H_    0.630192 0.068511 0.452871 0.127616
H60   H     H_    0.304002 0.238116 0.570891 0.187531
H61   H     H_    0.157837 0.713784 0.436417 0.134595
H62   H     H_    0.710600 0.737588 0.575519 0.111270
H63   H     H_    0.657837 0.213784 0.436417 0.134595
H64   H     H_    0.210600 0.237588 0.575519 0.111270
H65   H     H_    0.156985 0.728809 0.554567 0.131893
H66   H     H_    0.713649 0.765752 0.446820 0.103142
H67   H     H_    0.656985 0.228809 0.554567 0.131893
H68   H     H_    0.213649 0.265752 0.446820 0.103142
H69   H     H_    0.156943 0.575700 0.571591 0.120644
H70   H     H_    0.802860 0.760248 0.454747 0.134327
H71   H     H_    0.656943 0.075700 0.571591 0.120644
H72   H     H_    0.302860 0.260248 0.454747 0.134327
H73   H     H_    0.737546 0.924283 0.479563 0.101610
H74   H     H_    0.367739 0.071264 0.548759 0.129063
H75   H     H_    0.237546 0.424283 0.479563 0.101610
H76   H     H_    0.867740 0.571264 0.548759 0.129063
H77   H     H_    0.343247 0.661935 0.408957 0.121332
H78   H     H_    0.686467 0.417823 0.557440 0.133684
H79   H     H_    0.843247 0.161935 0.408957 0.121332
H80   H     H_    0.186468 0.917823 0.557440 0.133684
H81   H     H_    0.273857 0.760848 0.389588 0.116777
H82   H     H_    0.645389 0.555455 0.563324 0.111434
H83   H     H_    0.773857 0.260848 0.389588 0.116777
H84   H     H_    0.145389 0.055455 0.563324 0.111434
H85   H     H_    0.535725 0.642131 0.937288 0.122982
H86   H     H_    0.465750 0.640817 0.066219 0.125518
H87   H     H_    0.035724 0.142129 0.937289 0.122982
H88   H     H_    0.965749 0.140818 0.066219 0.125518
H89   H     H_    0.263246 0.814507 0.504102 0.125029
H90   H     H_    0.637828 0.559371 0.441666 0.136219
H91   H     H_    0.763246 0.314507 0.504102 0.125030
H92   H     H_    0.137828 0.059371 0.441666 0.136219
H93   H     H_    0.347814 0.754884 0.520173 0.092171
H94   H     H_    0.688883 0.431378 0.434234 0.103638
H95   H     H_    0.847814 0.254884 0.520173 0.092171
H96   H     H_    0.188883 0.931377 0.434234 0.103638
H97   H     H_    0.323197 0.452563 0.447514 0.122472
H98   H     H_    0.825817 0.433136 0.552691 0.096373
H99   H     H_    0.823196 0.952563 0.447514 0.122472
H100  H     H_    0.325817 0.933135 0.552691 0.096373
H101  H     H_    0.350963 0.533537 0.553518 0.145979
H102  H     H_    0.815339 0.440567 0.424017 0.120216
H103  H     H_    0.850963 0.033537 0.553518 0.145979
H104  H     H_    0.315340 0.940567 0.424017 0.120216
H105  H     H_    0.317525 0.434703 0.056865 0.133938
H106  H     H_    0.682560 0.433318 0.947527 0.129584
H107  H     H_    0.817525 0.934703 0.056865 0.133938
H108  H     H_    0.182560 0.933318 0.947527 0.129584
H109  H     H_    0.353929 0.572867 0.075660 0.112258
H110  H     H_    0.645860 0.569796 0.924553 0.112283
H111  H     H_    0.853929 0.072867 0.075660 0.112257
H112  H     H_    0.145860 0.069796 0.924553 0.112283
H113  H     H_    0.366256 0.612890 0.955914 0.134726
H114  H     H_    0.633935 0.613036 0.043222 0.135690
H115  H     H_    0.866256 0.112890 0.955914 0.134726
H116  H     H_    0.133935 0.113036 0.043222 0.135690
H117  H     H_    0.333184 0.469086 0.937102 0.121948
H118  H     H_    0.666456 0.469940 0.066240 0.119524
H119  H     H_    0.833185 0.969087 0.937102 0.121948
H120  H     H_    0.166456 0.969940 0.066240 0.119524
H121  H     H_    0.665115 0.937284 0.048695 0.098235
H122  H     H_    0.334729 0.939246 0.955940 0.099398
H123  H     H_    0.165115 0.437284 0.048695 0.098234
H124  H     H_    0.834729 0.439246 0.955940 0.099398
H125  H     H_    0.708629 0.935053 0.927412 0.114192
H126  H     H_    0.291427 0.937513 0.076863 0.114319
H127  H     H_    0.208629 0.435053 0.927411 0.114192
H128  H     H_    0.791427 0.437513 0.076863 0.114319
O1    O     O_R   0.214130 0.708570 0.829890 -0.525903
O2    O     O_R   0.785870 0.708570 0.170110 -0.514239
O3    O     O_R   0.714130 0.208570 0.829890 -0.525903
O4    O     O_R   0.285870 0.208570 0.170110 -0.514239
O5    O     O_R   0.446360 0.919990 0.675230 -0.508215
O6    O     O_R   0.553640 0.919990 0.324770 -0.475844
O7    O     O_R   0.946360 0.419990 0.675230 -0.508215
O8    O     O_R   0.053640 0.419990 0.324770 -0.475844
O9    O     O_R   0.457170 0.717300 0.668380 -0.532211
O10   O     O_R   0.542830 0.717300 0.331620 -0.521394
O11   O     O_R   0.957170 0.217300 0.668380 -0.532211
O12   O     O_R   0.042830 0.217300 0.331620 -0.521394
O13   O     O_R   0.320870 0.624890 0.673130 -0.450502
O14   O     O_R   0.679130 0.624890 0.326870 -0.535318
O15   O     O_R   0.820870 0.124890 0.673130 -0.450502
O16   O     O_R   0.179130 0.124890 0.326870 -0.535318
O17   O     O_3   0.334430 0.834430 0.749680 -0.311754
O18   O     O_3   0.665570 0.834430 0.250320 -0.312282
O19   O     O_3   0.834430 0.334430 0.749680 -0.311754
O20   O     O_3   0.165570 0.334430 0.250320 -0.312282
O21   O     O_R   0.236050 0.959150 0.825270 -0.515627
O22   O     O_R   0.763950 0.959150 0.174730 -0.515625
O23   O     O_R   0.736050 0.459150 0.825270 -0.515627
O24   O     O_R   0.263950 0.459150 0.174730 -0.515625
O25   O     O_R   0.332100 0.076650 0.832310 -0.522623
O26   O     O_R   0.667900 0.076650 0.167690 -0.531693
O27   O     O_R   0.832100 0.576650 0.832310 -0.522623
O28   O     O_R   0.167900 0.576650 0.167690 -0.531693
O29   O     O_R   0.446500 0.918620 0.826240 -0.504655
O30   O     O_R   0.553500 0.918620 0.173760 -0.488636
O31   O     O_R   0.946500 0.418620 0.826240 -0.504655
O32   O     O_R   0.053500 0.418620 0.173760 -0.488636
O33   O     O_R   0.457310 0.715830 0.831280 -0.523627
O34   O     O_R   0.542690 0.715830 0.168720 -0.518158
O35   O     O_R   0.957310 0.215830 0.831280 -0.523628
O36   O     O_R   0.042690 0.215830 0.168720 -0.518158
O37   O     O_R   0.321000 0.623520 0.824130 -0.503049
O38   O     O_R   0.679000 0.623520 0.175870 -0.521373
O39   O     O_R   0.821000 0.123520 0.824130 -0.503049
O40   O     O_R   0.179000 0.123520 0.175870 -0.521373
O41   O     O_R   0.213990 0.710040 0.667000 -0.529763
O42   O     O_R   0.786010 0.710040 0.333000 -0.475172
O43   O     O_R   0.713990 0.210040 0.667000 -0.529763
O44   O     O_R   0.286010 0.210040 0.333000 -0.475171
O45   O     O_R   0.235920 0.960520 0.674260 -0.525553
O46   O     O_R   0.764080 0.960520 0.325740 -0.513056
O47   O     O_R   0.735920 0.460520 0.674260 -0.525553
O48   O     O_R   0.264080 0.460520 0.325740 -0.513055
O49   O     O_R   0.331960 0.078120 0.669410 -0.503653
O50   O     O_R   0.668040 0.078120 0.330590 -0.534294
O51   O     O_R   0.831960 0.578120 0.669410 -0.503653
O52   O     O_R   0.168040 0.578120 0.330590 -0.534294
C121  C     C_2   0.770051 0.939982 0.606758 0.215397
H129  H     H_    0.715851 0.920432 0.613138 0.096352
O53   O     O_2   0.811301 0.896733 0.649507 -0.499027
C122  C     C_2   0.379826 0.092956 0.415799 0.192480
H130  H     H_    0.408920 0.156363 0.447026 0.096164
O54   O     O_2   0.396869 0.076486 0.353901 -0.491668
C123  C     C_2   0.270051 0.439982 0.606758 0.215397
H131  H     H_    0.215851 0.420432 0.613138 0.096352
O55   O     O_2   0.311301 0.396733 0.649507 -0.499027
C124  C     C_2   0.879826 0.592956 0.415799 0.192480
H132  H     H_    0.908920 0.656363 0.447026 0.096165
O56   O     O_2   0.896869 0.576485 0.353901 -0.491668

loop_
_geom_bond_atom_site_label_1
_geom_bond_atom_site_label_2
_ccdc_geom_bond_type
C124  O56   D    
C82   C94   S    
C55   C59   S    
C35   H125  S    
C83   C87   S    
C73   C93   S    
C47   O31   A    
C42   C58   S    
C29   C89   S    
C16   H120  S    
C75   C95   S    
C48   C120  S    
C24   H8    S    
C57   C102  S    
Cr6   O18   S    
Cr7   O7    S    
C85   H101  S    
C59   C104  S    
Cr1   O17   S    
C5    C6    S    
Cr10  O10   S    
Cr3   O19   S    
Cr4   O4    S    
Cr12  O16   S    
C29   C33   S    
C87   H103  S    
C30   C38   S    
C77   C100  S    
C44   H36   S    
C9    C13   S    
C11   C15   S    
C5    H85   S    
C49   H54   S    
C12   C16   S    
C98   O50   A    
C99   O47   A    
C52   H55   S    
C103  O7    A    
C60   C103  S    
C107  O15   A    
C83   C107  S    
C113  H1    S    
C74   H82   S    
C111  H47   S    
C23   H11   S    
C32   C36   S    
C64   H60   S    
C11   C27   S    
C16   H116  S    
Cr5   O25   S    
C50   C53   S    
C89   O37   A    
C7    C119  S    
Cr8   O28   S    
C62   H58   S    
C62   C66   S    
Cr2   O2    S    
C72   H74   S    
C20   C28   S    
C18   H124  S    
Cr12  O36   S    
C122  H130  S    
C43   C44   S    
C66   C82   S    
Cr9   O33   S    
C58   C101  S    
C105  O41   A    
C92   O4    A    
C107  O43   A    
C116  H4    S    
C108  O44   A    
C19   H21   S    
C89   O1    A    
C62   H62   S    
Cr5   O49   S    
C17   H23   S    
C91   O3    A    
Cr1   O45   S    
Cr5   O5    S    
Cr2   O42   S    
C3    C26   S    
C84   C88   S    
Cr12  O12   S    
C110  H46   S    
C13   H117  S    
Cr10  O34   S    
C17   C25   S    
C19   C35   S    
C76   C96   S    
C1    O21   A    
C32   C92   S    
C75   H83   S    
C95   H95   S    
C67   H71   S    
C21   H9    S    
C61   C65   S    
C12   H108  S    
C78   C99   S    
C45   O29   A    
C75   C79   S    
Cr5   O29   S    
C22   C38   S    
C123  O55   D    
C67   C83   S    
C80   C97   S    
C68   H72   S    
C11   H111  S    
C69   C77   S    
C111  C112  S    
C9    H109  S    
C52   H40   S    
C71   C79   S    
C4    C25   S    
Cr4   O20   S    
C7    C8    S    
Cr10  O38   S    
Cr4   O44   S    
C96   H96   S    
C73   H77   S    
C24   H12   S    
C100  O52   A    
C121  O53   D    
C39   H19   S    
C49   C57   S    
C40   H20   S    
Cr11  O11   S    
Cr9   O37   S    
C38   H14   S    
C51   H56   S    
C52   C60   S    
C19   H121  S    
C61   C77   S    
C12   H112  S    
C93   H93   S    
C36   H126  S    
C47   O35   A    
C110  C114  S    
C48   O36   A    
C43   C59   S    
C112  H48   S    
C76   H80   S    
C87   C121  S    
C6    H86   S    
C22   H10   S    
Cr1   O21   S    
Cr2   O18   S    
Cr4   O24   S    
Cr12  O20   S    
C81   C105  S    
C30   C34   S    
C10   C14   S    
C101  O9    A    
C95   H91   S    
C116  C120  S    
C103  O11   A    
C7    C116  S    
C69   H97   S    
C85   C123  S    
C71   H73   S    
C33   H127  S    
C114  H2    S    
C34   H128  S    
C66   H66   S    
C113  C117  S    
C31   C91   S    
Cr6   O26   S    
C9    H105  S    
Cr4   O48   S    
C61   H61   S    
C112  C116  S    
C69   C85   S    
C45   C117  S    
C21   C25   S    
C71   H99   S    
Cr12  O40   S    
C62   C78   S    
C76   C80   S    
C42   H30   S    
C15   C31   S    
C43   H35   S    
C16   C32   S    
C97   O45   A    
C105  O13   A    
C106  O42   A    
C72   C80   S    
C115  H3    S    
C64   H64   S    
C4    O24   A    
C82   C106  S    
C90   O2    A    
C55   H44   S    
Cr6   O50   S    
C66   H70   S    
Cr8   O32   S    
C94   H90   S    
Cr6   O6    S    
C46   O34   A    
Cr7   O19   S    
Cr8   O20   S    
C81   C85   S    
C13   H113  S    
C41   H29   S    
C41   C42   S    
C74   C94   S    
Cr9   O13   S    
C18   C26   S    
C30   C90   S    
Cr11  O39   S    
C1    O25   A    
C9    C25   S    
C2    O22   A    
C3    O27   A    
C75   H79   S    
C86   H102  S    
C12   C28   S    
C13   C29   S    
C67   H67   S    
C98   O46   A    
C46   C118  S    
C122  O54   D    
C73   C77   S    
Cr6   O30   S    
C106  O14   A    
C109  C118  S    
C1    C28   S    
C2    C27   S    
Cr10  O14   S    
C72   H100  S    
Cr11  O19   S    
C61   H57   S    
C52   C55   S    
C124  H132  S    
C64   C80   S    
C73   H81   S    
C17   C33   S    
C110  C117  S    
C38   H18   S    
C33   H25   S    
C69   H75   S    
C40   H16   S    
C68   C84   S    
C24   C28   S    
C53   C57   S    
C82   C86   S    
C56   C60   S    
C115  C119  S    
C50   C58   S    
C104  O12   A    
C48   O32   A    
Cr7   O27   S    
C76   H84   S    
C65   C81   S    
C91   O39   A    
Cr8   O8    S    
C50   H38   S    
C86   C124  S    
C20   H122  S    
Cr2   O22   S    
C71   C87   S    
C92   O40   A    
C31   C35   S    
C64   C68   S    
C101  O5    A    
C102  O10   A    
C37   H17   S    
C108  O16   A    
C112  C119  S    
C14   H118  S    
C56   H52   S    
C22   H6    S    
C41   C57   S    
C109  C110  S    
C49   H37   S    
C121  H129  S    
Cr5   O17   S    
C44   C60   S    
C63   H59   S    
C84   C108  S    
C94   H94   S    
C123  H131  S    
C20   C36   S    
C109  H45   S    
C21   C37   S    
C22   C26   S    
C29   C37   S    
C55   H51   S    
C44   H32   S    
C70   H76   S    
C42   H34   S    
C43   H31   S    
C97   O49   A    
C5    C114  S    
C70   C78   S    
C79   C98   S    
C99   O51   A    
C10   H110  S    
C63   C79   S    
C4    O28   A    
C20   H22   S    
C74   H78   S    
C54   H41   S    
C23   H7    S    
C46   O30   A    
C11   H107  S    
C49   C54   S    
C88   C122  S    
Cr3   O47   S    
C51   C56   S    
C84   C96   S    
C8    C115  S    
Cr1   O1    S    
Cr3   O3    S    
C96   H92   S    
C41   H33   S    
C54   H50   S    
Cr9   O17   S    
C23   C27   S    
C19   C27   S    
C74   C78   S    
C109  C113  S    
C2    O26   A    
C7    H87   S    
C10   C26   S    
C47   C119  S    
C14   C30   S    
C72   C88   S    
C53   H42   S    
C88   H104  S    
C63   C67   S    
C56   H43   S    
Cr7   O31   S    
Cr1   O41   S    
C21   H5    S    
C5    C117  S    
C111  C120  S    
Cr10  O18   S    
Cr3   O43   S    
C70   H98   S    
C6    C113  S    
Cr11  O15   S    
C8    H88   S    
C53   H49   S    
C81   C93   S    
C83   C95   S    
Cr11  O35   S    
C18   C34   S    
C114  C118  S    
C65   H65   S    
C34   H26   S    
C10   H106  S    
C51   C59   S    
C70   C86   S    
C8    C120  S    
Cr2   O46   S    
C54   C58   S    
C17   H123  S    
C45   O33   A    
C104  O8    A    
C18   H24   S    
C15   H115  S    
C111  C115  S    
Cr7   O51   S    
Cr8   O52   S    
C68   H68   S    
C51   H39   S    
Cr3   O23   S    
C90   O38   A    
C15   H119  S    
C23   C39   S    
C3    O23   A    
C24   C40   S    
C31   C39   S    
C63   H63   S    
C32   C40   S    
C35   H27   S    
Cr9   O9    S    
C36   H28   S    
C100  O48   A    
C65   H69   S    
C102  O6    A    
C39   H15   S    
C93   H89   S    
C37   H13   S    
C50   H53   S    
C6    C118  S    
C14   H114  S    
