data_str_m2_o14_o14_f0_pcu.sym.104
_audit_creation_date              2012-12-10T17:17:49-0500
_audit_creation_method            fapswitch 2.2
_symmetry_space_group_name_H-M    P1
_symmetry_Int_Tables_number       1
_space_group_crystal_system       triclinic
_cell_length_a                    15.091607
_cell_length_b                    15.345006
_cell_length_c                    9.625522
_cell_angle_alpha                 91.461939
_cell_angle_beta                  90.735155
_cell_angle_gamma                 90.256029
_cell_volume                      2228.15143072

loop_
_atom_site_label
_atom_site_type_symbol
_atom_type_description
_atom_site_fract_x
_atom_site_fract_y
_atom_site_fract_z
_atom_type_partial_charge
C1    C     C_R   0.381037 0.881737 0.498654 0.757196
C2    C     C_R   0.378421 0.115677 0.500007 0.761450
C3    C     C_R   0.881018 0.381755 0.498650 0.756142
C4    C     C_R   0.878425 0.615682 0.500009 0.761577
C5    C     C_R   0.313682 0.249516 0.590934 -0.198338
C6    C     C_R   0.335015 0.730386 0.478642 -0.192323
C7    C     C_R   0.813754 0.749595 0.590785 -0.195412
C8    C     C_R   0.834953 0.230437 0.478209 -0.182851
C9    C     C_R   0.750503 0.814059 0.589615 -0.213074
C10   C     C_R   0.770920 0.165925 0.481805 -0.205117
C11   C     C_R   0.250436 0.313985 0.589760 -0.213837
C12   C     C_R   0.270978 0.665877 0.482269 -0.217866
C13   C     C_R   0.678095 0.807409 0.498291 -0.093200
C14   C     C_R   0.682410 0.188299 0.501108 -0.031917
C15   C     C_R   0.178091 0.307403 0.498297 -0.092957
C16   C     C_R   0.182438 0.688274 0.501173 -0.042801
C17   C     C_R   0.663186 0.011669 0.139153 -0.119075
C18   C     C_R   0.163154 0.512120 0.139023 -0.140821
C19   C     C_R   0.737650 0.034793 0.063208 -0.247835
C20   C     C_R   0.237455 0.535848 0.063131 -0.279806
C21   C     C_R   0.726016 0.071134 0.933041 -0.240132
C22   C     C_R   0.225530 0.572538 0.933249 -0.280836
C23   C     C_R   0.639881 0.082386 0.881371 0.458996
C24   C     C_R   0.139289 0.583316 0.881675 0.422339
C25   C     C_R   0.573913 0.026855 0.930914 0.097621
C26   C     C_R   0.073743 0.527240 0.930970 0.119502
C27   C     C_R   0.578125 0.011903 0.075860 0.223499
C28   C     C_R   0.078066 0.512165 0.075842 0.214748
C29   C     C_R   0.425459 0.982979 0.071726 -0.041353
C30   C     C_R   0.925521 0.482687 0.071721 -0.035158
C31   C     C_R   0.618492 0.118614 0.500975 0.774218
C32   C     C_R   0.616152 0.879081 0.499301 0.761480
C33   C     C_R   0.118508 0.618599 0.500985 0.776180
C34   C     C_R   0.116156 0.379083 0.499302 0.762025
C35   C     C_R   0.426547 0.978881 0.923649 -0.016383
C36   C     C_R   0.926636 0.478557 0.923639 -0.017554
C37   C     C_R   0.219416 0.092863 0.321217 -0.186707
C38   C     C_R   0.196910 0.929385 0.540650 -0.177759
C39   C     C_R   0.719310 0.592743 0.321532 -0.181532
C40   C     C_R   0.696939 0.429379 0.541315 -0.180198
C41   C     C_R   0.143613 0.082993 0.238077 -0.124590
C42   C     C_R   0.107855 0.951734 0.554008 -0.114700
C43   C     C_R   0.643449 0.582812 0.238536 -0.126149
C44   C     C_R   0.607910 0.451709 0.555131 -0.121168
C45   C     C_R   0.578112 0.646256 0.241714 -0.144489
C46   C     C_R   0.542609 0.387335 0.546171 -0.133820
C47   C     C_R   0.078265 0.146423 0.241291 -0.141782
C48   C     C_R   0.042561 0.887359 0.544902 -0.117672
C49   C     C_R   0.588641 0.720399 0.326943 -0.189894
C50   C     C_R   0.566197 0.300178 0.526093 -0.076462
C51   C     C_R   0.088732 0.220496 0.326690 -0.190191
C52   C     C_R   0.066181 0.800181 0.525196 -0.069120
C53   C     C_R   0.665941 0.732903 0.410129 0.101214
C54   C     C_R   0.656072 0.276240 0.513870 0.150713
C55   C     C_R   0.165988 0.232953 0.409998 0.100594
C56   C     C_R   0.156082 0.776222 0.513524 0.142652
C57   C     C_R   0.231854 0.167586 0.408906 0.097029
C58   C     C_R   0.221961 0.841817 0.516799 0.096666
C59   C     C_R   0.731803 0.667531 0.409055 0.097320
C60   C     C_R   0.721956 0.341833 0.517117 0.097512
C61   C     C_R   0.306450 0.177814 0.499364 -0.106524
C62   C     C_R   0.311139 0.817597 0.496614 -0.072352
C63   C     C_R   0.806458 0.677824 0.499369 -0.107144
C64   C     C_R   0.811109 0.317628 0.496585 -0.070286
Cu1   Cu    Cu3+1 0.499990 0.000000 0.640660 0.987877
Cu2   Cu    Cu3+1 0.999990 0.500000 0.640660 0.990769
Cu3   Cu    Cu3+1 0.500010 0.000000 0.359340 0.947690
Cu4   Cu    Cu3+1 0.000010 0.500000 0.359340 0.945917
H1    H     H_    0.370100 0.257038 0.661019 0.191934
H2    H     H_    0.403655 0.712189 0.464462 0.130179
H3    H     H_    0.870220 0.757177 0.660746 0.193934
H4    H     H_    0.903572 0.212253 0.463747 0.128298
H5    H     H_    0.366197 0.962157 0.867166 0.150236
H6    H     H_    0.866356 0.461575 0.867160 0.149487
H7    H     H_    0.266110 0.039863 0.318274 0.147509
H8    H     H_    0.245795 0.980929 0.549665 0.117765
H9    H     H_    0.766016 0.539749 0.318608 0.146775
H10   H     H_    0.745830 0.480922 0.550248 0.118033
H11   H     H_    0.134871 0.025055 0.172702 0.153461
H12   H     H_    0.089482 0.019262 0.570931 0.144118
H13   H     H_    0.634659 0.524822 0.173290 0.141295
H14   H     H_    0.589562 0.519219 0.572322 0.144752
H15   H     H_    0.518512 0.637581 0.178988 0.137163
H16   H     H_    0.473529 0.404856 0.556129 0.130036
H17   H     H_    0.018703 0.137788 0.178464 0.142069
H18   H     H_    0.973460 0.904895 0.554463 0.128868
H19   H     H_    0.534604 0.766251 0.328712 0.155216
H20   H     H_    0.513870 0.251841 0.521040 0.126042
H21   H     H_    0.034676 0.266324 0.328488 0.156472
H22   H     H_    0.013853 0.751848 0.519990 0.124265
H23   H     H_    0.759097 0.870537 0.658567 0.155344
H24   H     H_    0.790298 0.098253 0.469264 0.120162
H25   H     H_    0.258988 0.370418 0.658823 0.156183
H26   H     H_    0.290373 0.598193 0.470022 0.123215
H27   H     H_    0.364269 0.969936 0.124795 0.131515
H28   H     H_    0.864379 0.469425 0.124782 0.131779
H29   H     H_    0.675112 0.993163 0.243922 0.189310
H30   H     H_    0.175174 0.493300 0.243642 0.195543
N1    N     N_R   0.501200 1.000000 0.147910 -0.188761
N2    N     N_R   0.001200 0.500000 0.147910 -0.188031
N3    N     N_R   0.501270 0.000000 0.852040 -0.199064
N4    N     N_R   0.001270 0.500000 0.852040 -0.199419
O1    O     O_R   0.409820 0.909830 0.618810 -0.576132
O2    O     O_R   0.409820 0.090170 0.618810 -0.545019
O3    O     O_R   0.909820 0.409830 0.618810 -0.576902
O4    O     O_R   0.909820 0.590170 0.618810 -0.546821
O5    O     O_R   0.409840 0.909830 0.381240 -0.600393
O6    O     O_R   0.409840 0.090170 0.381240 -0.573656
O7    O     O_R   0.909840 0.409830 0.381240 -0.597878
O8    O     O_R   0.909840 0.590170 0.381240 -0.571726
O9    O     O_R   0.590170 0.090170 0.618760 -0.548879
O10   O     O_R   0.590170 0.909830 0.618760 -0.580363
O11   O     O_R   0.090170 0.590170 0.618760 -0.546014
O12   O     O_R   0.090170 0.409830 0.618760 -0.578127
O13   O     O_R   0.590190 0.090180 0.381190 -0.576586
O14   O     O_R   0.590190 0.909820 0.381190 -0.611140
O15   O     O_R   0.090190 0.590180 0.381190 -0.587102
O16   O     O_R   0.090190 0.409820 0.381190 -0.609789
H31   H     H_    0.781138 0.105190 0.887704 0.177959
H32   H     H_    0.280378 0.607162 0.888195 0.182205
S1    S     S_3+6 0.609813 0.193804 0.878565 0.000069
O17   O     O_2   0.681005 0.246017 0.811068 -0.325510
O18   O     O_2   0.522609 0.205626 0.804569 -0.303385
O19   O     O_3   0.599732 0.229865 0.044080 -0.529613
H33   H     H_    0.585797 0.292658 0.037545 0.366192
S2    S     S_3+6 0.108277 0.694553 0.878634 0.013653
O20   O     O_2   0.179108 0.748003 0.812599 -0.322391
O21   O     O_2   0.021730 0.705628 0.802549 -0.267657
O22   O     O_3   0.095376 0.731094 0.043405 -0.509506
H34   H     H_    0.155169 0.728293 0.086698 0.346663
H35   H     H_    0.803001 0.032933 0.110751 0.168388
H36   H     H_    0.302840 0.534241 0.110595 0.172037

loop_
_geom_bond_atom_site_label_1
_geom_bond_atom_site_label_2
_ccdc_geom_bond_type
C34   O16   A    
Cu2   Cu4   S    
C58   C62   A    
S2    O20   D    
C40   C60   A    
Cu2   O11   S    
Cu2   N4    S    
C13   C32   S    
C52   H22   S    
Cu1   N3    S    
C14   C31   S    
Cu3   O5    S    
C1    C62   S    
C9    H23   S    
C16   C56   A    
C53   C59   A    
C23   S1    S    
C54   C60   A    
C3    C64   S    
C3    O3    A    
C33   O15   A    
C4    C63   S    
C27   N1    A    
C50   C54   A    
C47   H17   S    
C22   C24   A    
C19   C21   A    
C24   C26   A    
C5    C11   A    
C44   H14   S    
C6    C12   A    
C42   H12   S    
C16   C33   S    
Cu3   O6    S    
C30   N2    A    
C36   N4    A    
C9    C13   A    
Cu1   O9    S    
S1    O19   S    
C30   H28   S    
Cu4   O16   S    
C38   C58   A    
C11   C15   A    
C12   C16   A    
Cu1   Cu3   S    
C5    H1    S    
C45   C49   A    
Cu2   O12   S    
C1    O1    A    
C15   C34   S    
C51   C55   A    
C2    C61   S    
Cu3   N1    S    
C28   N2    A    
C37   H7    S    
C10   H24   S    
C38   H8    S    
C24   S2    S    
C12   H26   S    
C45   H15   S    
C20   H36   S    
C31   O13   A    
C44   C46   A    
C46   C50   A    
C13   C53   A    
C19   H35   S    
C37   C57   A    
C8    H4    S    
C29   N1    A    
C17   C27   A    
C18   C28   A    
C10   C14   A    
C29   H27   S    
C39   C43   A    
S2    O22   S    
C11   H25   S    
C4    O4    A    
C49   H19   S    
C15   C55   A    
C42   C48   A    
C22   H32   S    
Cu3   O14   S    
Cu4   N2    S    
Cu1   O10   S    
Cu4   O15   S    
C2    O2    A    
C39   C59   A    
C41   C47   A    
C5    C61   A    
Cu4   O8    S    
C32   O14   A    
C43   C45   A    
C7    C63   A    
S1    O17   D    
C36   H6    S    
C8    C64   A    
C46   H16   S    
C40   H10   S    
C14   C54   A    
C1    O5    A    
C21   C23   A    
C43   H13   S    
C48   H18   S    
C59   C63   A    
C34   O12   A    
Cu1   O1    S    
Cu2   O3    S    
C40   C44   A    
C39   H9    S    
O22   H34   S    
C7    C9    A    
C4    O8    A    
C35   H5    S    
S2    O21   D    
C32   O10   A    
C6    H2    S    
C26   C28   A    
C20   C22   A    
C35   N3    A    
C41   H11   S    
C47   C51   A    
C57   C61   A    
C50   H20   S    
C25   C27   A    
C29   C35   A    
C33   O11   A    
C30   C36   A    
C60   C64   A    
C6    C62   A    
C55   C57   A    
C21   H31   S    
C26   N4    A    
C7    H3    S    
C25   N3    A    
Cu2   O4    S    
C3    O7    A    
C49   C53   A    
C2    O6    A    
C17   C19   A    
C56   C58   A    
C18   C20   A    
Cu4   O7    S    
C23   C25   A    
C37   C41   A    
Cu3   O13   S    
S1    O18   D    
C38   C42   A    
C48   C52   A    
C8    C10   A    
C31   O9    A    
C18   H30   S    
Cu1   O2    S    
C17   H29   S    
C51   H21   S    
C52   C56   A    
O19   H33   S    
