data_str_m3_o5_o28_f0_pcu.sym.103
_audit_creation_date              2013-03-05T16:48:13-0500
_audit_creation_method            fapswitch 2.2
_symmetry_space_group_name_H-M    P1
_symmetry_Int_Tables_number       1
_space_group_crystal_system       triclinic
_cell_length_a                    23.510327
_cell_length_b                    9.138158
_cell_length_c                    8.072099
_cell_angle_alpha                 89.984776
_cell_angle_beta                  90.01822
_cell_angle_gamma                 90.009988
_cell_volume                      1734.21831406

loop_
_atom_site_label
_atom_site_type_symbol
_atom_site_description
_atom_site_fract_x
_atom_site_fract_y
_atom_site_fract_z
_atom_type_partial_charge
O1    O     O_R   0.500000 0.285350 0.636850 -0.619402
O2    O     O_R   0.500000 0.714650 0.363150 -0.614007
O3    O     O_R   0.500000 0.714650 0.636850 -0.614911
O4    O     O_R   0.500000 0.285350 0.363150 -0.613922
C1    C     C_R   0.499976 0.217497 0.500009 0.914228
C2    C     C_R   0.500080 0.782497 0.499981 0.912008
O5    O     O_R   0.416160 0.500000 0.636910 -0.610952
O6    O     O_R   0.583840 0.500000 0.363090 -0.589682
O7    O     O_R   0.583840 0.500000 0.636910 -0.637479
O8    O     O_R   0.416160 0.500000 0.363090 -0.589312
C3    C     C_R   0.208069 0.511963 0.484013 0.200369
C4    C     C_R   0.791956 0.501314 0.474737 0.187919
C5    C     C_R   0.388963 0.500835 0.499863 0.883186
C6    C     C_R   0.611039 0.499321 0.500076 0.895361
Zn1   Zn    Zn3+2 0.500000 0.500000 0.682780 0.989561
Zn2   Zn    Zn3+2 0.500000 0.500000 0.317220 1.008284
H1    H     H_    0.217921 0.623102 0.251437 0.166791
H2    H     H_    0.781683 0.379975 0.248741 0.172025
H3    H     H_    0.209089 0.402406 0.717163 0.172862
H4    H     H_    0.789963 0.619847 0.704845 0.182176
C7    C     C_R   0.298629 0.576070 0.363712 0.147413
C8    C     C_R   0.701240 0.423574 0.364617 0.151724
C9    C     C_R   0.294702 0.443524 0.628974 0.143848
C10   C     C_R   0.705927 0.566205 0.621898 0.119307
C11   C     C_R   0.326668 0.506889 0.498170 -0.152827
C12   C     C_R   0.673316 0.494538 0.498020 -0.142275
C13   C     C_R   0.880309 0.634826 0.464635 0.594417
C14   C     C_R   0.119612 0.379596 0.474821 0.589320
C15   C     C_R   0.881515 0.373898 0.457562 0.597482
C16   C     C_R   0.118822 0.640503 0.464570 0.597136
N1    N     N_R   0.852594 0.503404 0.464271 -0.360959
N2    N     N_R   0.147455 0.510760 0.474279 -0.362084
C17   C     C_R   0.940959 0.373668 0.449359 -0.150363
C18   C     C_R   0.059370 0.641298 0.452840 -0.151582
C19   C     C_R   0.939937 0.639106 0.467596 -0.150689
C20   C     C_R   0.060044 0.375810 0.473370 -0.149964
C21   C     C_R   0.970171 0.507006 0.459031 -0.122022
C22   C     C_R   0.029999 0.508047 0.461299 -0.121807
C23   C     C_R   0.971957 0.243718 0.437023 0.427275
C24   C     C_R   0.028425 0.771356 0.438125 0.424021
C25   C     C_R   0.970197 0.770950 0.476067 0.420706
C26   C     C_R   0.029699 0.244093 0.480353 0.422227
C27   C     C_1   0.500054 0.064716 0.499989 -0.193266
C28   C     C_1   0.500091 0.935269 0.499951 -0.197313
C29   C     C_R   0.239597 0.573986 0.356096 -0.167334
C30   C     C_R   0.760205 0.431356 0.352265 -0.151969
C31   C     C_R   0.235210 0.449604 0.620698 -0.116594
C32   C     C_R   0.764885 0.566822 0.609491 -0.103742
N3    N     N_1   0.500000 0.500000 0.073640 -0.028412
N4    N     N_1   0.500000 0.500000 0.926360 -0.033257
O9    O     O_2   0.850098 0.760162 0.455854 -0.460630
O10   O     O_2   0.149704 0.253886 0.470071 -0.461415
O11   O     O_2   0.852887 0.246091 0.466993 -0.458465
O12   O     O_2   0.147761 0.767820 0.473925 -0.455583
Cl1   Cl    Cl    0.946856 0.111684 0.295502 -0.399673
Cl2   Cl    Cl    0.055576 0.907191 0.304728 -0.400242
Cl3   Cl    Cl    0.942652 0.911358 0.602404 -0.396113
Cl4   Cl    Cl    0.055332 0.105989 0.613474 -0.398042
N5    N     N_2   0.329457 0.650006 0.236801 -0.280801
H5    H     H_    0.310016 0.647103 0.122241 0.230472
C33   C     C_3   0.347287 0.796477 0.280935 -0.684109
H6    H     H_    0.309549 0.868105 0.298341 0.246758
H7    H     H_    0.374074 0.842403 0.180280 0.234462
H8    H     H_    0.372833 0.795303 0.396692 0.225904
N6    N     N_2   0.670405 0.342842 0.243123 -0.285474
H9    H     H_    0.689165 0.342270 0.127556 0.227673
C34   C     C_3   0.653858 0.197561 0.295804 -0.700414
H10   H     H_    0.692200 0.128722 0.316292 0.251477
H11   H     H_    0.627166 0.145960 0.198498 0.234482
H12   H     H_    0.628617 0.202420 0.411950 0.223934
N7    N     N_2   0.322974 0.369243 0.761965 -0.283162
H13   H     H_    0.351319 0.289524 0.724961 0.234478
C35   C     C_3   0.292459 0.335088 0.912974 -0.725211
H14   H     H_    0.323158 0.299560 0.009523 0.243517
H15   H     H_    0.261877 0.244491 0.890765 0.254830
H16   H     H_    0.269798 0.433397 0.959816 0.234331
N8    N     N_2   0.681090 0.641864 0.757826 -0.304475
H17   H     H_    0.652945 0.582293 0.828535 0.253796
C36   C     C_3   0.663027 0.789785 0.721927 -0.694752
H18   H     H_    0.627691 0.789554 0.630571 0.220575
H19   H     H_    0.699181 0.854590 0.672052 0.263268
H20   H     H_    0.647989 0.842890 0.837594 0.235081

loop_
_geom_bond_atom_site_label_1
_geom_bond_atom_site_label_2
_geom_bond_distance
_ccdc_geom_bond_type
C24   Cl2   1.762713 S    
C35   H14   1.110541 S    
C20   C26   1.400219 A    
C4    C32   1.395539 A    
O3    C2    1.266756 A    
C26   Cl4   1.763431 S    
N8    H17   1.029524 S    
C16   O12   1.349784 S    
C17   C23   1.397001 A    
O1    C1    1.266866 A    
C19   C21   1.402716 A    
C10   C12   1.419980 A    
C7    N5    1.425202 S    
H3    C31   1.081440 S    
C15   C17   1.399124 A    
Zn1   N4    1.966202 S    
C33   H7    1.110384 S    
C3    C31   1.395905 A    
C23   Cl1   1.763259 S    
N6    C34   1.447186 S    
O1    Zn1   1.996334 S    
O2    Zn2   1.996333 S    
O5    Zn1   2.005468 S    
C1    C27   1.396144 S    
N5    H5    1.031743 S    
O6    Zn2   2.005466 S    
C2    C28   1.396053 S    
C35   H15   1.110978 S    
C5    C11   1.465701 S    
O2    C2    1.266768 A    
H2    C30   1.083667 S    
C13   O9    1.349629 S    
C23   C26   1.401763 A    
C7    C29   1.389337 A    
N8    C36   1.446170 S    
N5    C33   1.447101 S    
C9    C31   1.401370 A    
C16   C18   1.400941 A    
C13   N1    1.366220 A    
C34   H10   1.111622 S    
C10   C32   1.389761 A    
C9    N7    1.433292 S    
C14   N2    1.365602 A    
Zn2   N3    1.966202 S    
C4    C30   1.393897 A    
C36   H19   1.111384 S    
C13   C19   1.402623 A    
C17   C21   1.400765 A    
C34   H11   1.110346 S    
O4    Zn2   1.996140 S    
C33   H8    1.110667 S    
O7    C6    1.276486 A    
C8    N6    1.425251 S    
C21   C22   1.406729 A    
C6    C12   1.464900 S    
H4    C32   1.083826 S    
C24   C25   1.402898 A    
C8    C30   1.391699 A    
C3    N2    1.427245 S    
N3    N4    1.188858 T    
C4    N1    1.428281 S    
C35   H16   1.110998 S    
C18   C24   1.398606 A    
C3    C29   1.391710 A    
O3    Zn1   1.996139 S    
N7    C35   1.448537 S    
C7    C11   1.418274 A    
O6    C6    1.277188 A    
C18   C22   1.401380 A    
H1    C29   1.083740 S    
O4    C1    1.266707 A    
O8    C5    1.276038 A    
C36   H20   1.110292 S    
C34   H12   1.110621 S    
C20   C22   1.403166 A    
O7    Zn1   2.005697 S    
C25   Cl3   1.762682 S    
N7    H13   1.031696 S    
C15   N1    1.366070 A    
O8    Zn2   2.005699 S    
C16   N2    1.365713 A    
C14   O10   1.349794 S    
C15   O11   1.350024 S    
C27   C28   1.182908 T    
C9    C11   1.419493 A    
C33   H6    1.111602 S    
C19   C25   1.400745 A    
C36   H18   1.110662 S    
C10   N8    1.422618 S    
O5    C5    1.277591 A    
C14   C20   1.400939 A    
N6    H9    1.032022 S    
C8    C12   1.418473 A    
