data_str_m3_o10_o29_f0_pcu.sym.195
_audit_creation_date              2012-12-10T16:59:17-0500
_audit_creation_method            fapswitch 2.2
_symmetry_space_group_name_H-M    P1
_symmetry_Int_Tables_number       1
_space_group_crystal_system       triclinic
_cell_length_a                    7.731275
_cell_length_b                    8.54413
_cell_length_c                    27.708477
_cell_angle_alpha                 91.012818
_cell_angle_beta                  86.091842
_cell_angle_gamma                 93.807908
_cell_volume                      1821.8926886

loop_
_atom_site_label
_atom_site_type_symbol
_atom_type_description
_atom_site_fract_x
_atom_site_fract_y
_atom_site_fract_z
_atom_type_partial_charge
C1    C     C_R   0.546009 0.794898 0.498736 0.976846
C2    C     C_R   0.453991 0.205102 0.501265 0.976619
C3    C     C_R   0.516634 0.492273 0.898039 -0.119068
C4    C     C_R   0.482922 0.493194 0.102097 -0.124743
C5    C     C_R   0.604361 0.618429 0.872121 -0.132279
C6    C     C_R   0.426998 0.355410 0.127858 -0.133649
C7    C     C_R   0.686347 0.743732 0.897574 0.512361
C8    C     C_R   0.378846 0.217041 0.102199 0.502485
C9    C     C_R   0.436056 0.365853 0.872792 0.005467
C10   C     C_R   0.531730 0.631869 0.127513 -0.016077
C11   C     C_R   0.509081 0.498957 0.646506 -0.040547
C12   C     C_R   0.490571 0.499085 0.353501 -0.038017
C13   C     C_R   0.558786 0.628735 0.025588 0.087514
C14   C     C_R   0.431376 0.359590 0.974565 0.095099
C15   C     C_R   0.435640 0.355484 0.025491 -0.019102
C16   C     C_R   0.581022 0.623061 0.974528 -0.019689
C17   C     C_R   0.491804 0.492542 0.050932 0.073025
C18   C     C_R   0.509491 0.491804 0.949178 0.076194
C19   C     C_R   0.599343 0.767220 0.052205 -0.234970
C20   C     C_R   0.348918 0.236624 0.948138 -0.242035
C21   C     C_R   0.586473 0.768325 0.102286 -0.109462
C22   C     C_R   0.351026 0.240206 0.898172 -0.186526
C23   C     C_R   0.502770 0.499953 0.593954 0.874136
C24   C     C_R   0.497196 0.499855 0.406049 0.873254
C25   C     C_R   0.676279 0.743213 0.948054 -0.337849
C26   C     C_R   0.387848 0.217688 0.051746 -0.353013
C27   C     C_2   0.570329 0.958432 0.498001 -0.373692
C28   C     C_2   0.429672 0.041568 0.502002 -0.373360
C29   C     C_R   0.606134 0.614898 0.821317 0.534721
C30   C     C_R   0.424190 0.360584 0.178676 0.526285
C31   C     C_R   0.441509 0.368197 0.822403 0.494183
C32   C     C_R   0.524880 0.631004 0.177917 0.498387
C33   C     C_R   0.671630 0.476002 0.717382 -0.100058
C34   C     C_R   0.324492 0.501078 0.282589 -0.103191
C35   C     C_R   0.666466 0.478189 0.667375 -0.213864
C36   C     C_R   0.330284 0.502483 0.332607 -0.210395
C37   C     C_R   0.357430 0.518207 0.676271 -0.208843
C38   C     C_R   0.644632 0.494329 0.323759 -0.205917
C39   C     C_R   0.363137 0.516353 0.726201 -0.093539
C40   C     C_R   0.638371 0.493290 0.273824 -0.101835
C41   C     C_R   0.519947 0.494902 0.746734 0.310860
C42   C     C_R   0.478533 0.496647 0.253324 0.319926
H1    H     H_    0.234593 0.534644 0.661076 0.163237
H2    H     H_    0.769765 0.491761 0.338977 0.160107
H3    H     H_    0.014123 0.383065 0.463404 0.191062
H4    H     H_    0.985878 0.616939 0.536595 0.191827
H5    H     H_    0.245896 0.531420 0.749046 0.146703
H6    H     H_    0.757417 0.489840 0.250953 0.130297
H7    H     H_    0.209704 0.505866 0.354801 0.158831
H8    H     H_    0.785140 0.463062 0.645168 0.162116
H9    H     H_    0.200934 0.503916 0.266516 0.129639
H10   H     H_    0.792882 0.459086 0.733386 0.141097
H11   H     H_    0.620793 0.876911 0.121172 0.212522
H12   H     H_    0.286087 0.143108 0.879474 0.188489
H13   H     H_    0.637257 0.878015 0.035199 0.143028
H14   H     H_    0.276567 0.137968 0.965216 0.146567
H15   H     H_    0.751367 0.835534 0.965729 0.154864
H16   H     H_    0.362863 0.106012 0.033943 0.156238
H17   H     H_    0.703042 0.009816 0.494181 0.180345
H18   H     H_    0.296958 0.990184 0.505822 0.180406
N1    N     N_R   0.524292 0.491870 0.798016 -0.361874
N2    N     N_R   0.473583 0.496506 0.202096 -0.365535
N3    N     N_2   0.950320 0.457960 0.486880 -0.175862
N4    N     N_2   0.049680 0.542040 0.513120 -0.175636
O1    O     O_R   0.389250 0.738570 0.503220 -0.611376
O2    O     O_R   0.610750 0.261430 0.496780 -0.611542
O3    O     O_R   0.678390 0.711630 0.494810 -0.629096
O4    O     O_R   0.321610 0.288370 0.505190 -0.629146
O5    O     O_R   0.355440 0.513440 0.575450 -0.621185
O6    O     O_R   0.644560 0.486560 0.424550 -0.621428
O7    O     O_R   0.644590 0.486500 0.567040 -0.630595
O8    O     O_R   0.355410 0.513500 0.432960 -0.630328
O9    O     O_2   0.685478 0.734119 0.795187 -0.506696
O10   O     O_2   0.374341 0.231484 0.204745 -0.494714
O11   O     O_2   0.569913 0.763156 0.202782 -0.537430
O12   O     O_2   0.365340 0.247635 0.797754 -0.558945
Zn1   Zn    Zn3+2 0.306940 0.517990 0.505620 0.948832
Zn2   Zn    Zn3+2 0.693060 0.482010 0.494380 0.948434
O13   O     O_3   0.792339 0.858262 0.873406 -0.569832
C43   C     C_3   0.712608 0.002457 0.877027 0.124146
H19   H     H_    0.696423 0.043882 0.915291 0.118864
H20   H     H_    0.583422 0.991562 0.861292 0.170095
C44   C     C_3   0.827347 0.125772 0.848875 -0.701862
H21   H     H_    0.840469 0.091674 0.809995 0.278546
H22   H     H_    0.769353 0.241062 0.852383 0.190062
H23   H     H_    0.958191 0.137350 0.863295 0.245843
O14   O     O_3   0.338764 0.076558 0.125887 -0.567568
C45   C     C_3   0.158823 0.036500 0.124681 0.132384
H24   H     H_    0.120581 0.017497 0.086888 0.112135
H25   H     H_    0.081846 0.129929 0.142443 0.149356
C46   C     C_3   0.114258 0.884524 0.151953 -0.731671
H26   H     H_    0.150673 0.898775 0.189957 0.284424
H27   H     H_    0.972519 0.853072 0.151938 0.205534
H28   H     H_    0.185615 0.788034 0.134245 0.240652

loop_
_geom_bond_atom_site_label_1
_geom_bond_atom_site_label_2
_ccdc_geom_bond_type
C21   H11   S    
O14   C45   S    
O6    Zn2   S    
C8    C26   A    
N4    Zn1   S    
C23   O5    A    
O5    Zn1   S    
C34   C42   A    
C41   N1    S    
C20   H14   S    
C32   O11   S    
C24   O6    A    
C39   C41   A    
C33   H10   S    
C34   H9    S    
C39   H5    S    
C19   C21   A    
C2    O4    A    
C30   O10   S    
C9    C22   A    
C29   O9    S    
C16   C25   A    
C3    C18   A    
C40   H6    S    
C11   C37   A    
C31   N1    A    
C33   C35   A    
C1    O1    A    
C12   C36   A    
C42   N2    S    
C40   C42   A    
O3    Zn2   S    
C25   H15   S    
C43   C44   S    
C5    C29   A    
C28   H18   S    
C10   C21   A    
O2    Zn2   S    
C29   N1    A    
O1    Zn1   S    
C13   C19   A    
C14   C20   A    
C22   H12   S    
C46   H26   S    
C5    C7    A    
C15   C26   A    
C6    C8    A    
C3    C5    A    
H3    N3    S    
N3    N4    D    
H4    N4    S    
C37   H1    S    
C38   H2    S    
O8    Zn1   S    
C3    C9    A    
C23   O7    A    
C46   H27   S    
C44   H21   S    
C45   C46   S    
C35   H8    S    
C26   H16   S    
C4    C17   A    
C43   H20   S    
C6    C30   A    
C20   C22   A    
C30   N2    A    
C4    C6    A    
C4    C10   A    
C24   O8    A    
C7    O13   S    
C19   H13   S    
O4    Zn1   S    
C15   C17   A    
C44   H22   S    
C14   C18   A    
C45   H25   S    
C43   H19   S    
C2    O2    A    
C12   C24   S    
C7    C25   A    
C13   C17   A    
C8    O14   S    
C33   C41   A    
C11   C35   A    
C32   N2    A    
C37   C39   A    
C27   H17   S    
C46   H28   S    
C38   C40   A    
C31   O12   S    
C11   C23   S    
C1    O3    A    
C34   C36   A    
C12   C38   A    
C9    C31   A    
O13   C43   S    
C10   C32   A    
C44   H23   S    
C45   H24   S    
C16   C18   A    
C13   C16   A    
C27   C28   D    
C1    C27   S    
C14   C15   A    
C2    C28   S    
O7    Zn2   S    
C36   H7    S    
N3    Zn2   S    
