data_str_m2_o18_o22_f0_pcu.sym.31
_audit_creation_date              2013-03-05T16:00:38-0500
_audit_creation_method            fapswitch 2.2
_symmetry_space_group_name_H-M    P1
_symmetry_Int_Tables_number       1
_space_group_crystal_system       triclinic
_cell_length_a                    10.765103
_cell_length_b                    14.753964
_cell_length_c                    14.915424
_cell_angle_alpha                 64.173238
_cell_angle_beta                  105.574199
_cell_angle_gamma                 103.21514
_cell_volume                      2036.9701718

loop_
_atom_site_label
_atom_site_type_symbol
_atom_site_description
_atom_site_fract_x
_atom_site_fract_y
_atom_site_fract_z
_atom_type_partial_charge
O1    O     O_R   0.455060 0.022100 0.338110 -0.565923
O2    O     O_R   0.512640 0.160150 0.379180 -0.584126
C1    C     C_R   0.477951 0.120156 0.312306 0.864878
O3    O     O_R   0.288900 0.930980 0.479450 -0.534113
O4    O     O_R   0.346480 0.069030 0.520520 -0.593960
C2    C     C_R   0.260613 0.998302 0.502534 0.843246
Cu1   Cu    Cu3+1 0.465900 0.918260 0.475680 1.080595
Cu2   Cu    Cu3+1 0.534100 0.081740 0.524320 1.030183
O5    O     O_R   0.487360 0.839850 0.620820 -0.528517
O6    O     O_R   0.544940 0.977900 0.661890 -0.558496
O7    O     O_R   0.653520 0.930970 0.479480 -0.569756
O8    O     O_R   0.711100 0.069020 0.520550 -0.565725
C3    C     C_R   0.512831 0.880619 0.687338 0.843550
C4    C     C_R   0.740333 0.998862 0.502248 0.830648
C5    C     C_3   0.038096 0.896134 0.503093 0.182855
C6    C     C_3   0.896806 0.896262 0.505993 -0.454382
H1    H     H_    0.941548 0.944556 0.668597 0.203599
C7    C     C_3   0.112545 0.012069 0.598575 -0.367533
C8    C     C_3   0.067207 0.090716 0.408808 0.046636
C9    C     C_3   0.122730 0.997882 0.503292 -0.156389
H2    H     H_    0.119749 0.160408 0.420368 0.172270
C10   C     C_3   0.878695 0.999199 0.502866 -0.085387
C11   C     C_3   0.968713 0.009826 0.599701 -0.353051
C12   C     C_3   0.919624 0.085886 0.404027 0.112333
H3    H     H_    0.862061 0.065485 0.339755 0.148362
H4    H     H_    0.166935 0.086201 0.597831 0.208506
H5    H     H_    0.956653 0.079223 0.606406 0.224038
C13   C     C_R   0.457874 0.189377 0.204443 -0.017386
C14   C     C_R   0.498674 0.814617 0.793552 -0.180458
C15   C     C_R   0.410751 0.220612 0.026293 -0.128830
C16   C     C_R   0.437334 0.154132 0.127752 -0.089640
C17   C     C_R   0.456710 0.292573 0.178510 -0.144743
C18   C     C_R   0.431862 0.361644 0.076734 0.088218
C19   C     C_R   0.407931 0.323752 0.000213 0.119715
C20   C     C_R   0.435300 0.467584 0.048819 0.076297
C21   C     C_R   0.426158 0.534489 0.944778 0.067222
C22   C     C_R   0.389990 0.492708 0.870921 -0.114307
C23   C     C_R   0.382157 0.389207 0.898349 -0.151257
C24   C     C_R   0.448511 0.509281 0.120837 -0.167431
C25   C     C_R   0.463493 0.613561 0.092538 -0.145947
C26   C     C_R   0.470418 0.679858 0.992595 0.092820
C27   C     C_R   0.453309 0.641086 0.917969 0.090409
C28   C     C_R   0.494786 0.784739 0.966670 -0.193036
C29   C     C_R   0.506000 0.852780 0.867451 0.343681
C30   C     C_R   0.471354 0.709775 0.820073 -0.200781
H6    H     H_    0.357946 0.360490 0.839263 0.174283
H7    H     H_    0.468499 0.682570 0.763605 0.225266
H8    H     H_    0.394041 0.191621 0.968039 0.169157
H9    H     H_    0.442696 0.075549 0.145931 0.192171
H10   H     H_    0.477720 0.317508 0.239438 0.148689
H11   H     H_    0.364277 0.538382 0.790989 0.203944
N1    N     N_R   0.585360 0.204570 0.560800 -0.185603
N2    N     N_R   0.414550 0.795430 0.439160 -0.302915
C31   C     C_R   0.743947 0.295550 0.647540 -0.189785
C32   C     C_R   0.694657 0.207289 0.630935 0.162363
C33   C     C_R   0.517840 0.285818 0.507861 0.070260
C34   C     C_R   0.562495 0.378315 0.521391 -0.062549
C35   C     C_R   0.681202 0.383152 0.590699 0.017041
C36   C     C_R   0.493832 0.465323 0.469017 0.072226
C37   C     C_R   0.538556 0.552193 0.493490 0.078814
C38   C     C_R   0.664228 0.558079 0.552030 -0.174115
C39   C     C_R   0.735156 0.475536 0.601017 0.321662
C40   C     C_R   0.384596 0.470029 0.390782 -0.201730
C41   C     C_R   0.320646 0.555572 0.340328 -0.072477
C42   C     C_R   0.355260 0.636754 0.371242 -0.066664
C43   C     C_R   0.460862 0.634224 0.451931 -0.108720
C44   C     C_R   0.284328 0.719698 0.323330 0.172931
C45   C     C_R   0.317223 0.799248 0.356701 0.368836
C46   C     C_R   0.480969 0.711274 0.490677 0.397229
H12   H     H_    0.241056 0.556091 0.277832 0.199079
H13   H     H_    0.745901 0.141359 0.672109 0.133458
H14   H     H_    0.712536 0.629211 0.555750 0.211278
N3    N     N_R   0.090682 0.804947 0.585199 0.146205
O9    O     O_R   0.090085 0.782420 0.679721 -0.332782
O10   O     O_R   0.126650 0.740163 0.562732 -0.279620
N4    N     N_R   0.888152 0.185339 0.385080 0.139141
O11   O     O_R   0.803991 0.230234 0.304841 -0.336907
O12   O     O_R   0.946381 0.231410 0.445225 -0.348831
N5    N     N_R   0.520237 0.959440 0.843276 0.129609
O13   O     O_R   0.428546 0.012489 0.779357 -0.354676
O14   O     O_R   0.607786 0.997829 0.900888 -0.334585
H15   H     H_    0.473683 0.642450 0.150050 0.154841
H16   H     H_    0.035729 0.892504 0.430551 0.210076
H17   H     H_    0.445488 0.463531 0.199689 0.135949
H18   H     H_    0.503184 0.814191 0.023465 0.181851
N6    N     N_R   0.863869 0.488585 0.658099 0.132901
O15   O     O_R   0.888000 0.543256 0.711144 -0.262990
O16   O     O_R   0.961012 0.462188 0.642575 -0.315673
N7    N     N_R   0.548405 0.689293 0.593327 0.128838
O17   O     O_R   0.517121 0.602170 0.664181 -0.395490
O18   O     O_R   0.656305 0.743979 0.613325 -0.374533
N8    N     N_R   0.236026 0.878142 0.309708 0.186010
O19   O     O_R   0.259640 0.953382 0.226122 -0.309218
O20   O     O_R   0.116329 0.853021 0.322441 -0.286411
H19   H     H_    0.831076 0.294379 0.704531 0.195739
H20   H     H_    0.430502 0.276396 0.455280 0.120829
H21   H     H_    0.831672 0.881611 0.440405 0.182165
H22   H     H_    0.349133 0.410425 0.363459 0.136484
N9    N     N_R   0.176925 0.723808 0.240705 0.151705
O21   O     O_R   0.183288 0.792936 0.149954 -0.286814
O22   O     O_R   0.069641 0.662639 0.257497 -0.284454
H23   H     H_    0.869336 0.833504 0.575854 0.272460
H24   H     H_    0.158343 0.953602 0.669789 0.243225
N10   N     N_R   0.091722 0.099368 0.312819 0.125233
O23   O     O_R   0.172814 0.174447 0.265649 -0.350911
O24   O     O_R   0.025391 0.039045 0.269099 -0.292377

loop_
_geom_bond_atom_site_label_1
_geom_bond_atom_site_label_2
_geom_bond_distance
_ccdc_geom_bond_type
C35   C39   1.411272 A    
C26   C28   1.400118 A    
N3    O9    1.301446 A    
C21   C27   1.422483 A    
C8    C9    1.568268 S    
C7    H4    1.113247 S    
N2    C46   1.386699 A    
N10   O24   1.300887 A    
Cu1   Cu2   2.704067 S    
Cu1   O7    1.972912 S    
C39   N6    1.438483 S    
H1    C11   1.113212 S    
C3    C14   1.482870 S    
C1    C13   1.469922 S    
C8    H2    1.114951 S    
N4    O12   1.301628 A    
C24   H17   1.076438 S    
C40   H22   1.077204 S    
C15   C16   1.391598 A    
C22   H11   1.077119 S    
O7    C4    1.300011 A    
N6    O16   1.301422 A    
C6    H21   1.114450 S    
C34   C36   1.433364 A    
C43   C46   1.437309 A    
C5    C6    1.533632 S    
C33   C34   1.422024 A    
C33   H20   1.075953 S    
C26   C27   1.413026 A    
N2    C45   1.374140 A    
O5    C3    1.311418 A    
C18   C20   1.425698 A    
C20   C21   1.421246 A    
C42   C44   1.401276 A    
C11   H5    1.110031 S    
N7    O18   1.297807 A    
Cu2   N1    2.031119 S    
N1    C32   1.354385 A    
C44   N9    1.435646 S    
C37   C43   1.441993 A    
C36   C37   1.427884 A    
C29   N5    1.433488 S    
O1    Cu1   1.945572 S    
N3    O10   1.301445 A    
C16   H9    1.081379 S    
O3    Cu1   1.974651 S    
C46   N7    1.433369 S    
N10   O23   1.301050 A    
C30   H7    1.070712 S    
C5    C9    1.568678 S    
C15   C19   1.402449 A    
C44   C45   1.405346 A    
C28   H18   1.084548 S    
C25   H15   1.084542 S    
C13   C17   1.400332 A    
C12   H3    1.113887 S    
O3    C2    1.300158 A    
C24   C25   1.388725 A    
N5    O14   1.301002 A    
N6    O15   1.301523 A    
C12   N4    1.470466 S    
C5    H16   1.099679 S    
C7    C11   1.545594 S    
C14   C30   1.398938 A    
C37   C38   1.406505 A    
O1    C1    1.305610 A    
C27   C30   1.403501 A    
C20   C24   1.416445 A    
C28   C29   1.399470 A    
C22   C23   1.386246 A    
C8    N10   1.471058 S    
N9    O21   1.300807 A    
Cu2   O8    1.974652 S    
N8    O20   1.298278 A    
C18   C19   1.419084 A    
N4    O11   1.301287 A    
C17   H10   1.074826 S    
C31   H19   1.081250 S    
C38   H14   1.077333 S    
C6    H23   1.109139 S    
C25   C26   1.392969 A    
C5    N3    1.473308 S    
O8    C4    1.298564 A    
C41   H12   1.082121 S    
C14   C29   1.418418 A    
C10   C12   1.565747 S    
N5    O13   1.301373 A    
Cu1   N2    2.031463 S    
C31   C35   1.407993 A    
C15   H8    1.083969 S    
Cu1   O5    1.936418 S    
C31   C32   1.390363 A    
C21   C22   1.413058 A    
C6    C10   1.554183 S    
N9    O22   1.301106 A    
C19   C23   1.391297 A    
C13   C16   1.399144 A    
O2    Cu2   1.936418 S    
O6    C3    1.300975 A    
O4    Cu2   1.972912 S    
C2    C9    1.485985 S    
C36   C40   1.406855 A    
C17   C18   1.404704 A    
C4    C10   1.485918 S    
C8    C12   1.557590 S    
C41   C42   1.403917 A    
C34   C35   1.421259 A    
O4    C2    1.298105 A    
N8    O19   1.298670 A    
C45   N8    1.426728 S    
O2    C1    1.301767 A    
C7    C9    1.558516 S    
C7    H24   1.109200 S    
C38   C39   1.396519 A    
C23   H6    1.084266 S    
C40   C41   1.387318 A    
Cu2   O6    1.945572 S    
C42   C43   1.409887 A    
C10   C11   1.557565 S    
N7    O17   1.300822 A    
C32   H13   1.081953 S    
N1    C33   1.361700 A    
