data_str_m2_o10_o28_f0_pcu.sym.17
_audit_creation_date              2012-10-26T20:18:14-0400
_audit_creation_method            fapswitch 2.2
_symmetry_space_group_name_H-M    P1
_symmetry_Int_Tables_number       1
_space_group_crystal_system       triclinic
_cell_length_a                    23.490524
_cell_length_b                    8.758432
_cell_length_c                    7.424515
_cell_angle_alpha                 102.93071
_cell_angle_beta                  94.092074
_cell_angle_gamma                 92.459378
_cell_volume                      1482.26354422

loop_
_atom_site_label
_atom_site_type_symbol
_atom_type_description
_atom_site_fract_x
_atom_site_fract_y
_atom_site_fract_z
_atom_type_partial_charge
C1    C     C_R   0.498831 0.200359 0.453797 0.581143
C2    C     C_R   0.706224 0.493161 0.651845 -0.137889
C3    C     C_R   0.243749 0.496069 0.675342 -0.067397
C4    C     C_R   0.765297 0.492290 0.647531 -0.064072
C5    C     C_R   0.209414 0.501679 0.515271 0.253989
C6    C     C_R   0.790542 0.497678 0.484054 0.245910
C7    C     C_2   0.503470 0.034536 0.428564 0.093791
C8    C     C_2   0.496534 0.965465 0.571437 0.093952
C9    C     C_R   0.390964 0.500171 0.502640 0.545582
C10   C     C_R   0.609035 0.499908 0.497341 0.545677
C11   C     C_R   0.883081 0.636523 0.549610 0.389896
C12   C     C_R   0.501171 0.799641 0.546203 0.581297
C13   C     C_R   0.116917 0.362649 0.459846 0.394014
C14   C     C_R   0.876510 0.359435 0.426830 0.416833
C15   C     C_R   0.123905 0.640251 0.579941 0.394753
C16   C     C_R   0.936646 0.355869 0.432290 0.068631
C17   C     C_R   0.063684 0.644688 0.577131 0.037881
C18   C     C_R   0.969935 0.498816 0.500667 -0.064180
C19   C     C_R   0.030335 0.501292 0.510166 -0.053635
C20   C     C_R   0.942859 0.639598 0.559548 -0.006344
C21   C     C_R   0.057235 0.359887 0.451925 0.011592
C22   C     C_R   0.964548 0.215337 0.372887 0.093285
C23   C     C_R   0.234613 0.508318 0.350486 0.148018
C24   C     C_R   0.035248 0.785466 0.636494 0.073924
C25   C     C_R   0.024234 0.218848 0.384429 -0.115073
C26   C     C_R   0.975732 0.780519 0.627711 -0.083967
C27   C     C_R   0.756235 0.503959 0.322644 0.152656
C28   C     C_R   0.293880 0.507612 0.347692 -0.081712
C29   C     C_R   0.696879 0.503883 0.327240 -0.083167
C30   C     C_R   0.328520 0.501402 0.507957 -0.023234
C31   C     C_R   0.671470 0.498791 0.491739 -0.026125
C32   C     C_R   0.302998 0.496264 0.672100 -0.148532
Cu1   Cu    Cu3+1 0.506340 0.517380 0.684380 0.976250
Cu2   Cu    Cu3+1 0.493660 0.482620 0.315620 0.973280
H1    H     H_    0.312717 0.512757 0.219972 0.148910
H2    H     H_    0.091204 0.933144 0.824798 0.284960
H3    H     H_    0.044587 0.109777 0.338207 0.159826
H4    H     H_    0.955220 0.889223 0.674724 0.184224
H5    H     H_    0.172503 0.417485 0.147031 0.259449
H6    H     H_    0.176586 0.615758 0.215390 0.257060
H7    H     H_    0.809517 0.610884 0.180789 0.260913
H8    H     H_    0.804124 0.412655 0.113595 0.258617
H9    H     H_    0.224384 0.491303 0.802125 0.156566
H10   H     H_    0.791728 0.487627 0.771479 0.147975
H11   H     H_    0.556780 0.999543 0.221126 0.227829
H12   H     H_    0.670808 0.509099 0.202572 0.146574
H13   H     H_    0.486496 0.958309 0.149876 0.242061
H14   H     H_    0.443225 0.000461 0.778881 0.226986
H15   H     H_    0.513511 0.041689 0.850124 0.242548
H16   H     H_    0.328719 0.491352 0.797468 0.138838
H17   H     H_    0.687834 0.488842 0.780440 0.154933
H18   H     H_    0.454813 0.380337 0.948648 0.252139
H19   H     H_    0.545188 0.619660 0.051352 0.252619
H20   H     H_    0.944417 0.024714 0.163944 0.236381
H21   H     H_    0.945239 0.989401 0.378673 0.238786
H22   H     H_    0.088605 0.964720 0.603955 0.290527
N1    N     N_R   0.851498 0.498165 0.484306 -0.414567
N2    N     N_3   0.481431 0.051598 0.748987 -0.624130
N3    N     N_R   0.148589 0.501285 0.520373 -0.400027
N4    N     N_2   0.484110 0.456420 0.038520 -0.252531
N5    N     N_2   0.515890 0.543580 0.961480 -0.252330
N6    N     N_3   0.932939 0.068328 0.298545 -0.531203
N7    N     N_3   0.064712 0.936157 0.706570 -0.617425
N8    N     N_3   0.200710 0.516991 0.185345 -0.636254
N9    N     N_3   0.780939 0.512087 0.154043 -0.639685
N10   N     N_3   0.518575 0.948403 0.251016 -0.623826
O1    O     O_R   0.504120 0.286130 0.619770 -0.471014
O2    O     O_2   0.143332 0.228011 0.405878 -0.493302
O3    O     O_2   0.842993 0.226196 0.366259 -0.429450
O4    O     O_2   0.157967 0.772388 0.639488 -0.496001
O5    O     O_R   0.495880 0.713870 0.380230 -0.471082
O6    O     O_R   0.493410 0.256770 0.308360 -0.513254
O7    O     O_R   0.506590 0.743230 0.691640 -0.513199
O8    O     O_R   0.423230 0.514630 0.655730 -0.508159
O9    O     O_R   0.576770 0.485370 0.344270 -0.512408
O10   O     O_R   0.412530 0.485280 0.344320 -0.508915
O11   O     O_R   0.587470 0.514720 0.655680 -0.503316
O12   O     O_2   0.856519 0.770688 0.605062 -0.473671

loop_
_geom_bond_atom_site_label_1
_geom_bond_atom_site_label_2
_ccdc_geom_bond_type
C27   C29   A    
C7    C8    D    
H5    N8    S    
C3    H9    S    
C19   C21   A    
C24   C26   A    
H21   N6    S    
C18   C19   A    
C14   N1    A    
H18   N4    S    
C8    N2    S    
H19   N5    S    
C10   C31   S    
C28   H1    S    
C22   C25   A    
H8    N9    S    
C9    O10   A    
H2    N7    S    
H13   N10   S    
Cu2   O9    S    
C25   H3    S    
C12   O7    A    
Cu2   N4    S    
C6    N1    S    
C10   O11   A    
C11   C20   A    
C1    O6    A    
C5    N3    S    
C17   C24   A    
C4    C6    A    
C17   C19   A    
H7    N9    S    
H20   N6    S    
H15   N2    S    
C2    C31   A    
C2    C4    A    
C27   N9    S    
C11   O12   S    
C22   N6    S    
C10   O9    A    
C6    C27   A    
C5    C23   A    
C8    C12   S    
Cu1   Cu2   S    
H22   N7    S    
C13   C21   A    
C23   C28   A    
C32   H16   S    
C9    C30   S    
C16   C18   A    
C23   N8    S    
C12   O5    A    
C24   N7    S    
C14   O3    S    
C14   C16   A    
C9    O8    A    
Cu2   O6    S    
Cu1   O1    S    
Cu1   O7    S    
C15   C17   A    
C15   O4    S    
C21   C25   A    
C16   C22   A    
C1    C7    S    
C15   N3    A    
C26   H4    S    
C3    C5    A    
H14   N2    S    
C13   N3    A    
C4    H10   S    
H6    N8    S    
C29   H12   S    
C28   C30   A    
C29   C31   A    
C7    N10   S    
C30   C32   A    
Cu1   O11   S    
C20   C26   A    
C1    O1    A    
C18   C20   A    
C3    C32   A    
C2    H17   S    
Cu1   O8    S    
Cu1   N5    S    
H11   N10   S    
N4    N5    D    
C11   N1    A    
Cu2   O5    S    
Cu2   O10   S    
C13   O2    S    
