data_str_m9_o4_o18_f0_sra.sym.12
_audit_creation_date              2012-12-11T17:02:11-0500
_audit_creation_method            fapswitch 2.2
_symmetry_space_group_name_H-M    P1
_symmetry_Int_Tables_number       1
_space_group_crystal_system       triclinic
_cell_length_a                    21.70861
_cell_length_b                    7.098993
_cell_length_c                    14.925706
_cell_angle_alpha                 90.350125
_cell_angle_beta                  106.876828
_cell_angle_gamma                 90.495194
_cell_volume                      2200.95144879

loop_
_atom_site_label
_atom_site_type_symbol
_atom_type_description
_atom_site_fract_x
_atom_site_fract_y
_atom_site_fract_z
_atom_type_partial_charge
O1    O     O_R   0.585850 0.505770 0.002130 -0.544518
O2    O     O_R   0.414150 0.005770 0.997870 -0.547914
O3    O     O_R   0.467530 0.173560 0.861970 -0.528133
O4    O     O_R   0.532470 0.673560 0.138030 -0.530160
C1    C     C_R   0.456755 0.344014 0.825319 0.718421
C2    C     C_R   0.543597 0.845510 0.174619 0.718062
O5    O     O_R   0.588690 0.175900 0.993250 -0.537879
O6    O     O_R   0.411310 0.675900 0.006750 -0.537236
O7    O     O_R   0.536170 0.007950 0.130090 -0.540410
O8    O     O_R   0.463830 0.507950 0.869910 -0.544252
C3    C     C_R   0.615041 0.345097 0.998497 0.703889
C4    C     C_R   0.384944 0.843769 0.001620 0.707096
O9    O     O_3   0.482630 0.339970 0.044740 -0.373624
O10   O     O_3   0.517370 0.839970 0.955260 -0.374665
V1    V     V_3+5 0.503220 0.064200 0.991700 1.480577
V2    V     V_3+5 0.496780 0.564200 0.008300 1.481701
C5    C     C_R   0.293955 0.008356 0.040176 0.077461
C6    C     C_R   0.723854 0.504673 0.045891 0.050351
C7    C     C_R   0.316906 0.851545 0.003235 -0.037637
C8    C     C_R   0.684070 0.354075 0.002091 -0.060041
C9    C     C_R   0.272052 0.708544 0.962477 -0.136582
C10   C     C_R   0.711739 0.213584 0.959642 -0.122243
H1    H     H_    0.287237 0.586663 0.930883 0.133011
H2    H     H_    0.682984 0.094817 0.924423 0.143301
C11   C     C_R   0.206312 0.726788 0.957160 -0.147311
C12   C     C_R   0.775746 0.231051 0.956521 -0.116598
H3    H     H_    0.172450 0.619822 0.921705 0.145032
H4    H     H_    0.793549 0.131003 0.916436 0.130730
C13   C     C_R   0.183322 0.884864 0.994123 -0.102455
C14   C     C_R   0.815626 0.382064 0.999985 -0.082772
C15   C     C_R   0.228544 0.027893 0.034037 0.016967
C16   C     C_R   0.787620 0.521986 0.042563 0.043097
C17   C     C_3   0.230925 0.231181 0.006012 -0.071280
C18   C     C_3   0.778289 0.728182 0.018784 -0.119822
C19   C     C_3   0.303217 0.208624 0.019360 -0.465841
C20   C     C_3   0.710734 0.708796 0.030860 -0.433999
H5    H     H_    0.336311 0.279833 0.081520 0.212671
H6    H     H_    0.670149 0.738345 0.967571 0.210691
H7    H     H_    0.319095 0.226556 0.955560 0.194650
H8    H     H_    0.704467 0.775057 0.095333 0.171794
C21   C     C_R   0.924396 0.875742 0.724102 -0.031232
C22   C     C_R   0.072957 0.385659 0.276833 -0.048102
C23   C     C_R   0.567697 0.858015 0.277080 -0.121447
C24   C     C_R   0.431081 0.352067 0.723035 -0.114225
C25   C     C_R   0.928746 0.745082 0.576779 -0.109790
C26   C     C_R   0.063239 0.400746 0.433638 -0.116752
C27   C     C_R   0.959342 0.797107 0.668830 -0.182429
C28   C     C_R   0.034876 0.400963 0.337153 -0.187294
C29   C     C_R   0.858547 0.910015 0.685943 -0.147191
C30   C     C_R   0.139560 0.365949 0.313141 -0.175871
C31   C     C_R   0.825531 0.855693 0.592556 0.018404
C32   C     C_R   0.170184 0.370203 0.410833 0.028269
C33   C     C_R   0.861944 0.768308 0.538601 0.042053
C34   C     C_R   0.130542 0.387423 0.471365 0.026144
C35   C     C_R   0.757592 0.879065 0.552203 0.046066
C36   C     C_R   0.238680 0.361860 0.449869 0.045737
C37   C     C_R   0.727687 0.816276 0.458725 0.012400
C38   C     C_R   0.266474 0.365241 0.548914 -0.001494
C39   C     C_R   0.764915 0.718019 0.411027 -0.257273
C40   C     C_R   0.224997 0.378910 0.606016 -0.261743
C41   C     C_R   0.831391 0.700002 0.448219 0.431634
C42   C     C_R   0.158493 0.394373 0.568602 0.441671
C43   C     C_R   0.718254 0.961354 0.601951 -0.132340
C44   C     C_R   0.280466 0.351727 0.393224 -0.163442
C45   C     C_R   0.651971 0.974964 0.562784 -0.065900
C46   C     C_R   0.346750 0.358784 0.431417 -0.078496
C47   C     C_R   0.621569 0.914519 0.470595 0.057682
C48   C     C_R   0.375506 0.373882 0.528372 0.064330
C49   C     C_R   0.660713 0.847955 0.415920 0.104447
C50   C     C_R   0.335100 0.361293 0.588043 0.105454
C51   C     C_R   0.553483 0.928047 0.430494 -0.062870
C52   C     C_R   0.443732 0.393433 0.566924 -0.063355
C53   C     C_R   0.527314 0.908823 0.331672 -0.098802
C54   C     C_R   0.471248 0.381309 0.665422 -0.101996
C55   C     C_R   0.632551 0.823718 0.318906 -0.210003
C56   C     C_R   0.364625 0.343371 0.684925 -0.221766
H9    H     H_    0.661041 0.791208 0.272442 0.105248
H10   H     H_    0.337400 0.318590 0.733713 0.118591
H11   H     H_    0.625354 0.043452 0.604535 0.185756
H12   H     H_    0.374957 0.346815 0.382954 0.198863
H13   H     H_    0.957456 0.681207 0.536535 0.157664
H14   H     H_    0.032245 0.413409 0.478594 0.166951
H15   H     H_    0.010125 0.771129 0.698242 0.100815
H16   H     H_    0.983182 0.411660 0.309423 0.122036
H17   H     H_    0.834195 0.970740 0.732343 0.137131
H18   H     H_    0.165933 0.348891 0.263028 0.110283
H19   H     H_    0.742914 0.645598 0.345735 0.139684
H20   H     H_    0.242530 0.384749 0.681089 0.176499
H21   H     H_    0.736993 0.016283 0.672107 0.138193
H22   H     H_    0.263857 0.340896 0.318125 0.152898
O11   O     O_R   0.036080 0.231270 0.130120 -0.530047
O12   O     O_R   0.963920 0.731270 0.869880 -0.533722
O13   O     O_R   0.911300 0.558970 0.006750 -0.521739
O14   O     O_R   0.088700 0.058970 0.993250 -0.495957
C57   C     C_R   0.884510 0.390514 0.000466 0.695633
C58   C     C_R   0.114888 0.891408 0.996225 0.700162
O15   O     O_R   0.032450 0.561140 0.138040 -0.537985
O16   O     O_R   0.967550 0.061140 0.861960 -0.543046
O17   O     O_R   0.085870 0.728910 0.002130 -0.536452
O18   O     O_R   0.914130 0.228910 0.997870 -0.552852
C59   C     C_R   0.043840 0.392802 0.175258 0.702055
C60   C     C_R   0.954187 0.891568 0.825199 0.711573
O19   O     O_3   0.017320 0.394650 0.955270 -0.336253
O20   O     O_3   0.982680 0.894650 0.044730 -0.377760
V3    V     V_3+5 0.996780 0.670490 0.008300 1.498365
V4    V     V_3+5 0.003220 0.170490 0.991700 1.517176
C61   C     C_2   0.509818 0.940710 0.492043 0.828665
O21   O     O_2   0.456569 0.010793 0.463538 -0.554438
O22   O     O_R   0.528351 0.862752 0.581571 -0.633786
H23   H     H_    0.494544 0.878042 0.615743 0.314352
C62   C     C_2   0.486173 0.427620 0.505236 0.840794
O23   O     O_2   0.539026 0.354136 0.522536 -0.556831
O24   O     O_R   0.466038 0.545237 0.427735 -0.652502
H24   H     H_    0.497532 0.547762 0.389182 0.311086
C63   C     C_2   0.215834 0.365027 0.076007 0.719877
O25   O     O_2   0.258595 0.455482 0.131619 -0.559399
O26   O     O_R   0.152285 0.388733 0.075905 -0.627511
H25   H     H_    0.148465 0.492479 0.120711 0.280832
C64   C     C_2   0.777796 0.762767 0.917224 0.735482
O27   O     O_2   0.729795 0.723754 0.852982 -0.517092
O28   O     O_R   0.832143 0.826722 0.894130 -0.670685
H26   H     H_    0.867807 0.872651 0.949738 0.289699
C65   C     C_2   0.191682 0.264537 0.904454 0.715176
O29   O     O_2   0.217815 0.271084 0.842111 -0.580223
O30   O     O_R   0.125091 0.286865 0.881695 -0.634176
H27   H     H_    0.104101 0.301069 0.812014 0.304835
C66   C     C_2   0.822275 0.855502 0.092552 0.665202
O31   O     O_2   0.800499 0.991429 0.123417 -0.563535
O32   O     O_R   0.887642 0.815174 0.127510 -0.657382
H28   H     H_    0.911954 0.911446 0.175579 0.284649
O33   O     O_3   0.866139 0.597672 0.400375 -0.562379
C67   C     C_3   0.863881 0.688972 0.315891 -0.215102
H29   H     H_    0.900638 0.626150 0.287076 0.169086
H30   H     H_    0.875320 0.842352 0.326724 0.146181
H31   H     H_    0.816456 0.666363 0.262890 0.152716
O34   O     O_3   0.120332 0.404226 0.628381 -0.551340
C68   C     C_3   0.125688 0.586964 0.667804 -0.241227
H32   H     H_    0.103749 0.692523 0.613337 0.136960
H33   H     H_    0.176338 0.627524 0.704965 0.149845
H34   H     H_    0.099235 0.589084 0.720981 0.151908
C69   C     C_2   0.458011 0.938023 0.283840 0.824921
O35   O     O_2   0.424175 0.805572 0.244878 -0.549365
O36   O     O_R   0.432247 0.118418 0.280664 -0.643517
H35   H     H_    0.384685 0.120894 0.245458 0.295867
C70   C     C_2   0.541745 0.398635 0.709314 0.807879
O37   O     O_2   0.570524 0.541762 0.698911 -0.506202
O38   O     O_R   0.575106 0.250049 0.762074 -0.666338
H36   H     H_    0.623150 0.275403 0.784590 0.292649

loop_
_geom_bond_atom_site_label_1
_geom_bond_atom_site_label_2
_ccdc_geom_bond_type
C23   C53   A    
C46   C48   A    
C43   C45   A    
C45   H11   S    
C51   C61   S    
C54   C70   S    
C62   O23   D    
O1    C3    A    
C44   H22   S    
O2    C4    A    
C2    O7    A    
O20   V4    S    
C70   O37   D    
C40   H20   S    
C65   O29   D    
C62   O24   S    
C53   C69   S    
O5    C3    A    
C68   H33   S    
C19   H5    S    
C56   H10   S    
O24   H24   S    
C69   O36   S    
C17   C19   S    
C37   C39   A    
C45   C47   A    
C38   C40   A    
C63   O25   D    
C58   O17   A    
C21   C60   S    
C40   C42   A    
C42   O34   S    
C24   C56   A    
O13   V3    S    
C26   H14   S    
C33   C41   A    
O38   H36   S    
C18   C66   S    
C63   O26   S    
C35   C43   A    
C30   C32   A    
C61   O21   D    
C36   C44   A    
C49   C55   A    
C27   H15   S    
C6    C8    A    
O12   C60   A    
O15   V3    S    
C25   C27   A    
C52   C62   S    
C25   C33   A    
O6    V2    S    
C23   C55   A    
C61   O22   S    
O11   V4    S    
C26   C34   A    
O11   C59   A    
C21   C29   A    
O20   V3    S    
C70   O38   S    
C32   C34   A    
C64   O28   S    
C11   C13   A    
O17   V3    S    
C68   H34   S    
C26   C28   A    
C3    C8    S    
C17   C63   S    
C39   C41   A    
C29   H17   S    
C20   H8    S    
C52   C54   A    
C51   C53   A    
C30   H18   S    
C57   O18   A    
C38   C50   A    
C34   C42   A    
C31   C35   A    
C29   C31   A    
O16   C60   A    
C28   H16   S    
C48   C52   A    
C47   C49   A    
C44   C46   A    
O4    V2    S    
C19   H7    S    
C66   O32   S    
C14   C57   S    
O6    C4    A    
C43   H21   S    
C15   C17   S    
C21   C27   A    
O19   V3    S    
O1    V2    S    
C22   C28   A    
O14   C58   A    
O2    V1    S    
C55   H9    S    
O28   H26   S    
C22   C30   A    
C67   H30   S    
C48   C50   A    
C1    C24   S    
C8    C10   A    
C12   C14   A    
C2    C23   S    
C9    H1    S    
C50   C56   A    
O30   H27   S    
C5    C15   A    
C10   H2    S    
O4    C2    A    
C6    C16   A    
C66   O31   D    
C22   C59   S    
O3    V1    S    
O32   H28   S    
C18   C64   S    
C9    C11   A    
O14   V4    S    
C7    C9    A    
O18   V4    S    
C25   H13   S    
C24   C54   A    
O3    C1    A    
C13   C58   S    
C64   O27   D    
C11   H3    S    
C46   H12   S    
C68   H32   S    
C12   H4    S    
O16   V4    S    
C37   C49   A    
C35   C37   A    
O7    V1    S    
C1    O8    A    
C13   C15   A    
O8    V2    S    
C69   O35   D    
C20   H6    S    
C14   C16   A    
C67   H31   S    
C4    C7    S    
O5    V1    S    
C5    C7    A    
C18   C20   S    
C36   C38   A    
C67   H29   S    
O19   V4    S    
C47   C51   A    
O33   C67   S    
C39   H19   S    
C65   O30   S    
C41   O33   S    
C32   C36   A    
O12   V3    S    
O13   C57   A    
C10   C12   A    
O9    V2    S    
O22   H23   S    
C17   C65   S    
O10   V1    S    
O34   C68   S    
C5    C19   S    
C31   C33   A    
O26   H25   S    
C6    C20   S    
O15   C59   A    
O36   H35   S    
C16   C18   S    
