data_str_m2_o1_o5_f0_pcu.sym.29
_audit_creation_date              2013-03-05T16:07:04-0500
_audit_creation_method            fapswitch 2.2
_symmetry_space_group_name_H-M    P1
_symmetry_Int_Tables_number       1
_space_group_crystal_system       triclinic
_cell_length_a                    10.914937
_cell_length_b                    9.694951
_cell_length_c                    9.063571
_cell_angle_alpha                 90.614977
_cell_angle_beta                  95.385894
_cell_angle_gamma                 91.538068
_cell_volume                      954.442073853

loop_
_atom_site_label
_atom_site_type_symbol
_atom_site_description
_atom_site_fract_x
_atom_site_fract_y
_atom_site_fract_z
_atom_type_partial_charge
O1    O     O_R   0.319640 0.618740 0.499990 -0.560558
O2    O     O_R   0.680360 0.381260 0.500010 -0.560556
O3    O     O_R   0.680360 0.618740 0.500010 -0.560292
O4    O     O_R   0.319640 0.381260 0.499990 -0.560296
C1    C     C_R   0.262679 0.498142 0.500899 0.878904
C2    C     C_R   0.737321 0.501858 0.499101 0.878897
O5    O     O_R   0.500000 0.618760 0.288390 -0.593273
O6    O     O_R   0.500000 0.381240 0.711610 -0.593274
O7    O     O_R   0.500000 0.618760 0.711610 -0.577824
O8    O     O_R   0.500000 0.381240 0.288390 -0.577825
C3    C     C_R   0.499362 0.499534 0.221086 0.846240
C4    C     C_R   0.500638 0.500466 0.778914 0.846239
Cu1   Cu    Cu3+1 0.500000 0.640660 0.500000 1.009271
Cu2   Cu    Cu3+1 0.500000 0.359340 0.500000 1.009270
C5    C     C_1   0.499763 0.499375 0.065647 -0.107442
C6    C     C_1   0.500236 0.500625 0.934353 -0.107441
C7    C     C_R   0.054324 0.389845 0.431059 0.246039
C8    C     C_R   0.945677 0.610154 0.568944 0.246025
C9    C     C_R   0.926249 0.396227 0.422798 0.246215
C10   C     C_R   0.073751 0.603771 0.577205 0.246210
C11   C     C_R   0.871254 0.504992 0.494337 -0.357200
C12   C     C_R   0.128746 0.495008 0.505665 -0.357202
C13   C     C_R   0.429681 0.070969 0.392593 0.235127
C14   C     C_R   0.570320 0.929031 0.607407 0.235135
C15   C     C_R   0.573542 0.077225 0.604677 0.252086
C16   C     C_R   0.426457 0.922775 0.395323 0.252083
N1    N     N_R   0.500000 0.852070 0.500000 -0.187458
N2    N     N_R   0.500000 0.147930 0.500000 -0.187459
N3    N     N_R   0.107225 0.277963 0.357946 0.133837
O9    O     O_R   0.135341 0.167691 0.433017 -0.289643
O10   O     O_R   0.094634 0.270807 0.213802 -0.336724
N4    N     N_R   0.892776 0.722040 0.642057 0.133826
O11   O     O_R   0.864645 0.832308 0.566972 -0.289648
O12   O     O_R   0.905381 0.729207 0.786210 -0.336704
N5    N     N_R   0.852506 0.294165 0.336032 0.183012
O13   O     O_R   0.778211 0.331363 0.223662 -0.345517
O14   O     O_R   0.861541 0.163847 0.366921 -0.252118
N6    N     N_R   0.147495 0.705833 0.663973 0.183009
O15   O     O_R   0.221795 0.668632 0.776337 -0.345520
O16   O     O_R   0.138448 0.836155 0.633099 -0.252109
C17   C     C_3   0.364279 0.142107 0.260957 -0.621757
H1    H     H_    0.329425 0.241659 0.292068 0.280185
H2    H     H_    0.427992 0.154723 0.173240 0.211408
H3    H     H_    0.280516 0.087106 0.210727 0.236157
C18   C     C_3   0.635722 0.857893 0.739042 -0.621757
H4    H     H_    0.670572 0.758338 0.707933 0.280179
H5    H     H_    0.719489 0.912893 0.789266 0.236162
H6    H     H_    0.572012 0.845282 0.826763 0.211405
C19   C     C_3   0.663953 0.152132 0.717522 -0.678482
H7    H     H_    0.671892 0.263330 0.709720 0.258920
H8    H     H_    0.639698 0.130200 0.831412 0.209236
H9    H     H_    0.758582 0.117978 0.703930 0.241663
C20   C     C_3   0.336047 0.847868 0.282478 -0.678484
H10   H     H_    0.328108 0.736670 0.290281 0.258921
H11   H     H_    0.241418 0.882023 0.296069 0.241662
H12   H     H_    0.360304 0.869798 0.168588 0.209237

loop_
_geom_bond_atom_site_label_1
_geom_bond_atom_site_label_2
_geom_bond_distance
_ccdc_geom_bond_type
C10   N6    1.437750 S    
N6    O16   1.301344 A    
C13   N2    1.380909 A    
N3    O9    1.301578 A    
C8    C11   1.412167 A    
C7    N3    1.427976 S    
C17   H1    1.090758 S    
C7    C12   1.412163 A    
O3    Cu1   1.985710 S    
C14   N1    1.380908 A    
O6    C4    1.300721 A    
C19   H9    1.110416 S    
N4    O11   1.301649 A    
O3    C2    1.307386 A    
C19   H8    1.110786 S    
C20   H11   1.110415 S    
N3    O10   1.301674 A    
C9    N5    1.437742 S    
Cu1   Cu2   2.727384 S    
C15   N2    1.383789 A    
O5    C3    1.300722 A    
C17   H2    1.109935 S    
C16   N1    1.383790 A    
O2    C2    1.309869 A    
O1    C1    1.309870 A    
C14   C18   1.514239 S    
N5    O14   1.301320 A    
C10   C12   1.408906 A    
C8    C10   1.395967 A    
C18   H5    1.103625 S    
O4    Cu2   1.985710 S    
N6    O15   1.301344 A    
O2    Cu2   1.974367 S    
O7    C4    1.304646 A    
C15   C19   1.517695 S    
C20   H12   1.110786 S    
O1    Cu1   1.974367 S    
O8    C3    1.304645 A    
C5    C6    1.190685 T    
C17   H3    1.103615 S    
C16   C20   1.517695 S    
C18   H4    1.090761 S    
O5    Cu1   1.927393 S    
C8    N4    1.427999 S    
C14   C15   1.436758 A    
C19   H7    1.082819 S    
O8    Cu2   1.931923 S    
C18   H6    1.109943 S    
C13   C16   1.436758 A    
O7    Cu1   1.931921 S    
C7    C9    1.395966 A    
O6    Cu2   1.927391 S    
Cu2   N2    2.049611 S    
C20   H10   1.082817 S    
C2    C11   1.466065 S    
C3    C5    1.409231 S    
Cu1   N1    2.049610 S    
C1    C12   1.466064 S    
C4    C6    1.409231 S    
N4    O12   1.301763 A    
O4    C1    1.307385 A    
C9    C11   1.408906 A    
N5    O13   1.301335 A    
C13   C17   1.514238 S    
