data_str_m2_o10_o28_f0_pcu.sym.179
_audit_creation_date              2012-12-10T16:50:12-0500
_audit_creation_method            fapswitch 2.2
_symmetry_space_group_name_H-M    P1
_symmetry_Int_Tables_number       1
_space_group_crystal_system       triclinic
_cell_length_a                    23.524314
_cell_length_b                    8.686334
_cell_length_c                    7.602085
_cell_angle_alpha                 103.922656
_cell_angle_beta                  95.133018
_cell_angle_gamma                 95.562161
_cell_volume                      1490.41106065

loop_
_atom_site_label
_atom_site_type_symbol
_atom_type_description
_atom_site_fract_x
_atom_site_fract_y
_atom_site_fract_z
_atom_type_partial_charge
C1    C     C_R   0.498330 0.199745 0.452475 0.839676
C2    C     C_R   0.502405 0.800442 0.547564 0.850398
C3    C     C_R   0.238615 0.577975 0.393552 -0.244980
C4    C     C_R   0.755207 0.445172 0.333724 -0.236183
C5    C     C_R   0.298296 0.585595 0.395403 0.215359
C6    C     C_R   0.695717 0.444405 0.329080 0.220172
C7    C     C_R   0.329242 0.502110 0.501900 -0.078604
C8    C     C_R   0.671176 0.487640 0.495119 -0.092906
C9    C     C_R   0.300228 0.416287 0.608337 -0.352149
C10   C     C_R   0.707176 0.522256 0.661393 -0.348050
C11   C     C_R   0.240580 0.411176 0.608908 0.305283
C12   C     C_R   0.766541 0.515724 0.665014 0.306919
C13   C     C_R   0.209629 0.492206 0.499696 0.290056
C14   C     C_R   0.790733 0.480718 0.499107 0.299717
C15   C     C_2   0.497939 0.030769 0.427303 -0.371772
C16   C     C_2   0.503904 0.969786 0.572853 -0.368685
C17   C     C_R   0.391461 0.500572 0.500595 0.807934
C18   C     C_R   0.608747 0.496952 0.498577 0.797733
C19   C     C_R   0.886496 0.626218 0.560907 0.620837
C20   C     C_R   0.113510 0.349023 0.420668 0.615066
C21   C     C_R   0.873768 0.344980 0.426375 0.537154
C22   C     C_R   0.126435 0.628089 0.566873 0.557010
C23   C     C_R   0.933077 0.344329 0.422488 -0.054968
C24   C     C_R   0.066999 0.629822 0.564577 -0.052298
C25   C     C_R   0.969972 0.487919 0.492831 -0.055801
C26   C     C_R   0.030069 0.486612 0.492075 -0.054753
C27   C     C_R   0.946862 0.632302 0.563782 -0.092865
C28   C     C_R   0.053158 0.342583 0.419314 -0.090685
C29   C     C_R   0.955898 0.202347 0.351362 -0.117210
C30   C     C_R   0.044167 0.772050 0.634413 -0.116797
C31   C     C_R   0.014931 0.199422 0.348711 0.313715
C32   C     C_R   0.985089 0.775491 0.634352 0.315766
Cu1   Cu    Cu3+1 0.506340 0.517380 0.684380 0.959180
Cu2   Cu    Cu3+1 0.493660 0.482620 0.315620 0.977445
H1    H     H_    0.927703 0.091379 0.297555 0.224466
H2    H     H_    0.072406 0.882728 0.689823 0.223524
H3    H     H_    0.214555 0.641207 0.311393 0.172161
H4    H     H_    0.774092 0.415988 0.207349 0.154489
H5    H     H_    0.323928 0.351821 0.689929 0.165790
H6    H     H_    0.689200 0.554032 0.789643 0.171583
H7    H     H_    0.492222 0.956272 0.288391 0.177041
H8    H     H_    0.509605 0.044264 0.711792 0.172080
N1    N     N_R   0.851845 0.483925 0.496430 -0.464256
N2    N     N_R   0.148379 0.489313 0.496424 -0.459654
N3    N     N_2   0.484110 0.456420 0.038520 0.033567
N4    N     N_2   0.515890 0.543580 0.961480 0.032311
O1    O     O_R   0.504120 0.286130 0.619770 -0.599836
O2    O     O_R   0.495880 0.713870 0.380230 -0.591587
O3    O     O_R   0.493410 0.256770 0.308360 -0.600130
O4    O     O_R   0.506590 0.743230 0.691640 -0.594314
O5    O     O_R   0.423230 0.514630 0.655730 -0.604190
O6    O     O_R   0.576770 0.485370 0.344270 -0.569015
O7    O     O_R   0.412530 0.485280 0.344320 -0.545671
O8    O     O_R   0.587470 0.514720 0.655680 -0.582739
O9    O     O_2   0.862011 0.760234 0.620068 -0.461517
O10   O     O_2   0.137674 0.217990 0.345920 -0.472855
O11   O     O_2   0.838121 0.207211 0.363034 -0.520161
O12   O     O_2   0.162294 0.764002 0.640608 -0.527008
Br1   Br    Br    0.037759 0.991876 0.249071 -0.406421
Br2   Br    Br    0.962385 0.982736 0.736534 -0.408425
N5    N     N_2   0.327078 0.681424 0.294785 -0.399200
H9    H     H_    0.303478 0.684485 0.174897 0.253108
C33   C     C_3   0.349899 0.840226 0.401986 -0.632114
H10   H     H_    0.314275 0.909282 0.448626 0.224996
H11   H     H_    0.374650 0.903624 0.317291 0.221323
H12   H     H_    0.379078 0.834189 0.522658 0.219748
N6    N     N_2   0.661344 0.399875 0.156665 -0.387879
H13   H     H_    0.680752 0.436967 0.054990 0.246918
C34   C     C_3   0.638279 0.232630 0.099518 -0.613631
H14   H     H_    0.673690 0.156997 0.074703 0.213972
H15   H     H_    0.608792 0.210553 0.971118 0.224712
H16   H     H_    0.613553 0.198190 0.204928 0.227167
N7    N     N_2   0.211650 0.320595 0.714641 -0.393220
H17   H     H_    0.231301 0.222816 0.730452 0.270959
C35   C     C_3   0.197662 0.414221 0.886290 -0.630802
H18   H     H_    0.172584 0.335422 0.954556 0.254460
H19   H     H_    0.171253 0.508592 0.864441 0.242375
H20   H     H_    0.237696 0.470045 0.976904 0.208988
N8    N     N_2   0.801792 0.548626 0.835447 -0.408944
H21   H     H_    0.784322 0.616887 0.943169 0.257449
C36   C     C_3   0.823496 0.410480 0.879639 -0.613771
H22   H     H_    0.850755 0.448047 0.013338 0.227343
H23   H     H_    0.850491 0.353864 0.776263 0.260808
H24   H     H_    0.787215 0.321317 0.887613 0.219055
N9    N     N_2   0.435896 0.362316 0.934925 -0.301764
H25   H     H_    0.437007 0.332258 0.798965 0.290872
C37   C     C_3   0.417480 0.217703 0.987143 -0.588942
H26   H     H_    0.380964 0.148109 0.887878 0.168610
H27   H     H_    0.401237 0.243148 0.121287 0.256889
H28   H     H_    0.452898 0.141620 0.983644 0.210922
N10   N     N_2   0.564140 0.637575 0.065023 -0.287463
H29   H     H_    0.563037 0.667752 0.200995 0.296702
C38   C     C_3   0.582727 0.781989 0.012586 -0.603221
H30   H     H_    0.619346 0.851245 0.111597 0.175984
H31   H     H_    0.547460 0.858562 0.016226 0.211313
H32   H     H_    0.598902 0.756371 0.878382 0.256330

loop_
_geom_bond_atom_site_label_1
_geom_bond_atom_site_label_2
_ccdc_geom_bond_type
C37   H26   S    
C33   H11   S    
C38   H30   S    
C17   O7    A    
N7    H17   S    
C20   O10   S    
C17   O5    A    
C36   H22   S    
C18   O6    A    
N9    H25   S    
C23   C29   A    
C24   C26   A    
C15   C16   D    
C12   N8    S    
C9    H5    S    
C10   H6    S    
C31   Br1   S    
C34   H15   S    
C2    O4    A    
C36   H23   S    
C21   N1    A    
C22   N2    A    
C7    C17   S    
C1    C15   S    
C2    C16   S    
C3    C13   A    
C33   H12   S    
C38   H31   S    
Cu1   N4    S    
N7    C35   S    
C34   H14   S    
C20   N2    A    
C19   N1    A    
N9    C37   S    
N6    H13   S    
C15   H7    S    
C4    C6    A    
C11   N7    S    
N10   H29   S    
C5    C7    A    
C1    O1    A    
C6    C8    A    
N4    N10   S    
C20   C28   A    
C2    O2    A    
Cu1   O4    S    
N3    N4    D    
C8    C18   S    
N8    H21   S    
N6    C34   S    
C34   H16   S    
N3    N9    S    
C35   H18   S    
C21   O11   S    
N10   C38   S    
C35   H19   S    
N5    C33   S    
Cu1   Cu2   S    
C5    N5    S    
Cu2   N3    S    
C9    C11   A    
C10   C12   A    
C6    N6    S    
C12   C14   A    
C38   H32   S    
C21   C23   A    
C25   C27   A    
Cu1   O1    S    
C22   C24   A    
Cu2   O2    S    
C32   Br2   S    
C16   H8    S    
C36   H24   S    
C19   C27   A    
N8    C36   S    
C19   O9    S    
Cu1   O8    S    
C7    C9    A    
Cu2   O3    S    
C27   C32   A    
C26   C28   A    
C28   C31   A    
C4    H4    S    
C3    C5    A    
C22   O12   S    
Cu1   O5    S    
C29   H1    S    
Cu2   O6    S    
C30   H2    S    
C37   H27   S    
C25   C26   A    
C29   C31   A    
C30   C32   A    
C11   C13   A    
C23   C25   A    
C4    C14   A    
N5    H9    S    
C35   H20   S    
C24   C30   A    
C18   O8    A    
C33   H10   S    
C3    H3    S    
Cu2   O7    S    
C8    C10   A    
C37   H28   S    
C1    O3    A    
C13   N2    S    
C14   N1    S    
