data_str_m2_o10_o16_f0_pcu.sym.116
_audit_creation_date              2012-12-10T16:44:13-0500
_audit_creation_method            fapswitch 2.2
_symmetry_space_group_name_H-M    P1
_symmetry_Int_Tables_number       1
_space_group_crystal_system       triclinic
_cell_length_a                    7.423962
_cell_length_b                    8.706192
_cell_length_c                    13.40597
_cell_angle_alpha                 94.027827
_cell_angle_beta                  77.450226
_cell_angle_gamma                 102.953525
_cell_volume                      824.050326385

loop_
_atom_site_label
_atom_site_type_symbol
_atom_type_description
_atom_site_fract_x
_atom_site_fract_y
_atom_site_fract_z
_atom_type_partial_charge
C1    C     C_R   0.546803 0.799885 0.499014 0.910403
C2    C     C_R   0.417572 0.508070 0.975675 0.078894
C3    C     C_R   0.466179 0.554049 0.872110 0.086698
C4    C     C_R   0.558818 0.545129 0.035804 0.073265
C5    C     C_R   0.738871 0.639730 0.995001 0.159439
C6    C     C_R   0.775902 0.698446 0.897010 -0.241294
C7    C     C_R   0.640994 0.658384 0.837057 -0.206728
C8    C     C_R   0.527040 0.490625 0.135392 -0.220046
C9    C     C_R   0.840247 0.627949 0.154119 -0.193719
C10   C     C_R   0.337514 0.495638 0.806683 -0.112436
C11   C     C_2   0.568836 0.967377 0.499973 -0.388245
C12   C     C_R   0.399625 0.498210 0.694473 0.776619
C13   C     C_2   0.448384 0.035714 0.466824 -0.193085
C14   C     C_R   0.458962 0.200487 0.490281 0.795506
C15   C     C_R   0.601588 0.511268 0.305914 0.814047
C16   C     C_R   0.878759 0.678064 0.053761 -0.174913
C17   C     C_R   0.662201 0.537515 0.195923 -0.048410
C18   C     C_R   0.152731 0.416891 0.848582 -0.193819
C19   C     C_R   0.098466 0.386801 0.952281 -0.139313
C20   C     C_R   0.229157 0.428577 0.015062 -0.182700
Cu1   Cu    Cu3+1 0.321300 0.483160 0.488710 0.968263
Cu2   Cu    Cu3+1 0.678700 0.516840 0.511290 0.949788
H1    H     H_    0.946185 0.665520 0.200135 0.171969
H2    H     H_    0.011098 0.617804 0.579121 0.219833
H3    H     H_    0.988891 0.382217 0.420878 0.222985
H4    H     H_    0.909991 0.776044 0.866443 0.143557
H5    H     H_    0.016373 0.750227 0.022863 0.147018
H6    H     H_    0.396129 0.413357 0.169015 0.140675
H7    H     H_    0.051112 0.374116 0.800571 0.162783
H8    H     H_    0.176461 0.400366 0.094497 0.133529
H9    H     H_    0.955020 0.326692 0.983910 0.152804
H10   H     H_    0.674498 0.713933 0.763797 0.162596
H11   H     H_    0.676323 0.035471 0.538762 0.155392
N1    N     N_2   0.947230 0.542220 0.528320 -0.212859
N2    N     N_2   0.052770 0.457780 0.471680 -0.208406
O1    O     O_R   0.383920 0.714220 0.492660 -0.549756
O2    O     O_R   0.685730 0.742660 0.511730 -0.602035
O3    O     O_R   0.275440 0.478800 0.636790 -0.588377
O4    O     O_R   0.577250 0.507240 0.655860 -0.579999
O5    O     O_R   0.314270 0.257340 0.488270 -0.602203
O6    O     O_R   0.616080 0.285780 0.507340 -0.576651
O7    O     O_R   0.422750 0.492760 0.344140 -0.561531
O8    O     O_R   0.724560 0.521200 0.363210 -0.593498
C21   C     C_2   0.315882 0.957292 0.400091 0.402068
H12   H     H_    0.181568 0.991110 0.406786 0.071480
O9    O     O_2   0.360672 0.862336 0.332970 -0.529589

loop_
_geom_bond_atom_site_label_1
_geom_bond_atom_site_label_2
_ccdc_geom_bond_type
C2    C4    A    
C6    C7    A    
Cu1   N2    S    
Cu2   O8    S    
C8    C17   A    
C1    C11   S    
C1    O2    A    
C4    C8    A    
C19   H9    S    
C12   O4    A    
C2    C3    A    
C15   O8    A    
C18   H7    S    
C20   H8    S    
C13   C14   S    
C11   C13   D    
C6    H4    S    
Cu1   O5    S    
C10   C12   S    
H3    N2    S    
C14   O6    A    
C3    C10   A    
Cu2   O4    S    
C9    C17   A    
C9    C16   A    
C10   C18   A    
C18   C19   A    
C3    C7    A    
C12   O3    A    
C5    C6    A    
Cu2   N1    S    
Cu2   O6    S    
C14   O5    A    
Cu1   O7    S    
C11   H11   S    
C21   H12   S    
C15   O7    A    
C8    H6    S    
C15   C17   S    
N1    N2    D    
C16   H5    S    
Cu1   O1    S    
C9    H1    S    
C5    C16   A    
C7    H10   S    
Cu1   Cu2   S    
Cu2   O2    S    
C2    C20   A    
C13   C21   S    
H2    N1    S    
Cu1   O3    S    
C19   C20   A    
C1    O1    A    
C21   O9    D    
C4    C5    A    
