data_str_m9_o5_o16_f0_sra.sym.60
_audit_creation_date              2012-12-11T17:14:07-0500
_audit_creation_method            fapswitch 2.2
_symmetry_space_group_name_H-M    P1
_symmetry_Int_Tables_number       1
_space_group_crystal_system       triclinic
_cell_length_a                    18.203422
_cell_length_b                    7.096159
_cell_length_c                    13.018354
_cell_angle_alpha                 90.020072
_cell_angle_beta                  71.732486
_cell_angle_gamma                 89.998049
_cell_volume                      1596.88874762

loop_
_atom_site_label
_atom_site_type_symbol
_atom_type_description
_atom_site_fract_x
_atom_site_fract_y
_atom_site_fract_z
_atom_type_partial_charge
O1    O     O_R   0.453880 0.506200 0.150010 -0.536849
O2    O     O_R   0.546120 0.006200 0.849990 -0.536919
O3    O     O_R   0.604080 0.177770 0.007280 -0.535977
O4    O     O_R   0.395920 0.677770 0.992720 -0.535827
C1    C     C_R   0.635921 0.344531 0.001937 0.735414
C2    C     C_R   0.364080 0.844535 0.998057 0.736661
O5    O     O_R   0.458010 0.176640 0.159130 -0.535721
O6    O     O_R   0.541990 0.676640 0.840870 -0.536211
O7    O     O_R   0.399010 0.004010 0.002930 -0.527717
O8    O     O_R   0.600990 0.504010 0.997070 -0.527503
C3    C     C_R   0.443329 0.345266 0.201822 0.702080
C4    C     C_R   0.556678 0.845176 0.798178 0.703759
O9    O     O_3   0.480810 0.338440 0.948570 -0.360766
O10   O     O_3   0.519190 0.838440 0.051430 -0.360577
V1    V     V_3+5 0.503560 0.064490 0.009540 1.580027
V2    V     V_3+5 0.496440 0.564490 0.990460 1.579742
C5    C     C_R   0.578737 0.848372 0.500354 -0.196943
C6    C     C_R   0.421300 0.352290 0.499683 -0.197317
H1    H     H_    0.543541 0.850848 0.447383 0.194495
H2    H     H_    0.456435 0.357016 0.552690 0.194105
C7    C     C_R   0.589816 0.851676 0.680357 -0.102387
C8    C     C_R   0.410250 0.352158 0.319654 -0.103025
C9    C     C_R   0.952065 0.830375 0.383928 -0.229133
C10   C     C_R   0.048021 0.327873 0.616167 -0.228130
C11   C     C_R   0.919898 0.783524 0.492216 -0.131953
C12   C     C_R   0.080305 0.280068 0.508021 -0.131818
C13   C     C_R   0.839799 0.768921 0.539132 0.381051
C14   C     C_R   0.160440 0.266481 0.461133 0.380968
C15   C     C_R   0.789338 0.820146 0.478660 0.014990
C16   C     C_R   0.210776 0.319675 0.521441 0.015041
C17   C     C_R   0.823196 0.850126 0.365329 -0.043611
C18   C     C_R   0.176837 0.350716 0.634678 -0.043681
C19   C     C_R   0.707062 0.835828 0.524235 0.045861
C20   C     C_R   0.293022 0.336266 0.475828 0.045965
C21   C     C_R   0.660066 0.845597 0.455232 -0.016056
C22   C     C_R   0.339981 0.348144 0.544804 -0.016235
C23   C     C_R   0.695209 0.858093 0.342553 0.368284
C24   C     C_R   0.304791 0.361302 0.657456 0.368005
C25   C     C_R   0.775284 0.867448 0.299487 -0.215182
C26   C     C_R   0.224700 0.369780 0.700484 -0.214564
C27   C     C_R   0.670224 0.854475 0.636166 -0.169840
C28   C     C_R   0.329831 0.353859 0.363844 -0.168826
C29   C     C_R   0.542583 0.847480 0.613092 0.270385
C30   C     C_R   0.457513 0.350096 0.386947 0.271480
C31   C     C_R   0.904761 0.856065 0.319073 -0.054590
C32   C     C_R   0.095259 0.355661 0.680928 -0.054813
H3    H     H_    0.702905 0.879199 0.691013 0.178379
H4    H     H_    0.297093 0.377075 0.308923 0.178349
H5    H     H_    0.014487 0.833562 0.348781 0.157719
H6    H     H_    0.985592 0.330095 0.651332 0.157344
H7    H     H_    0.958050 0.747201 0.538484 0.167169
H8    H     H_    0.042243 0.242151 0.461886 0.166847
H9    H     H_    0.799799 0.885313 0.212826 0.151094
H10   H     H_    0.200139 0.388232 0.787107 0.151107
C33   C     C_1   0.216359 0.858767 0.000068 -0.121953
C34   C     C_1   0.783641 0.358776 0.999929 -0.121795
C35   C     C_1   0.283683 0.852620 0.998847 -0.091313
C36   C     C_1   0.716317 0.352617 0.001149 -0.091510
O11   O     O_R   0.899030 0.205490 0.002790 -0.538067
O12   O     O_R   0.100970 0.705490 0.997210 -0.538071
O13   O     O_R   0.042000 0.536370 0.840840 -0.539752
O14   O     O_R   0.958000 0.036370 0.159160 -0.539860
C37   C     C_R   0.058051 0.367969 0.798203 0.698774
C38   C     C_R   0.941944 0.868050 0.201795 0.698714
O15   O     O_R   0.895930 0.535070 0.992690 -0.532164
O16   O     O_R   0.104070 0.035070 0.007310 -0.532290
O17   O     O_R   0.953870 0.707520 0.150040 -0.539395
O18   O     O_R   0.046130 0.207520 0.849960 -0.539395
C39   C     C_R   0.864120 0.366753 0.998810 0.729938
C40   C     C_R   0.135881 0.866748 0.001189 0.729859
O19   O     O_3   0.019200 0.374340 0.051340 -0.373290
O20   O     O_3   0.980800 0.874340 0.948660 -0.373160
V3    V     V_3+5 0.996440 0.648350 0.990470 1.488101
V4    V     V_3+5 0.003560 0.148350 0.009530 1.487784
N1    N     N_2   0.459968 0.851421 0.660541 -0.505339
H11   H     H_    0.437754 0.779290 0.732341 0.273062
C41   C     C_3   0.410200 0.853787 0.592971 -0.443566
H12   H     H_    0.348867 0.865164 0.644503 0.207958
H13   H     H_    0.417453 0.722517 0.544939 0.198114
H14   H     H_    0.423590 0.977029 0.538119 0.202269
N2    N     N_2   0.540158 0.355296 0.339609 -0.502991
H15   H     H_    0.562492 0.287573 0.266341 0.270168
C42   C     C_3   0.589834 0.350102 0.407286 -0.443904
H16   H     H_    0.651303 0.359184 0.355999 0.207342
H17   H     H_    0.581222 0.217008 0.453771 0.198474
H18   H     H_    0.577654 0.471515 0.463537 0.201759
Cl1   Cl    Cl    0.641476 0.872142 0.250941 -0.692424
Cl2   Cl    Cl    0.358446 0.376691 0.749113 -0.694669
Cl3   Cl    Cl    0.810247 0.644882 0.663073 -0.710567
Cl4   Cl    Cl    0.190288 0.141200 0.337563 -0.710993

loop_
_geom_bond_atom_site_label_1
_geom_bond_atom_site_label_2
_ccdc_geom_bond_type
C16   C18   A    
C9    C31   A    
C13   C15   A    
O1    C3    A    
O2    C4    A    
C2    O7    A    
C5    C29   A    
N2    H15   S    
C25   H9    S    
C41   H12   S    
O5    C3    A    
C1    C36   S    
C21   C23   A    
C10   C12   A    
C6    C30   A    
C9    H5    S    
O18   V4    S    
O16   V4    S    
C15   C19   A    
O12   V3    S    
O15   V3    S    
O13   C37   A    
O14   C38   A    
C5    H1    S    
C7    C29   A    
C8    C30   A    
C34   C36   T    
C20   C28   A    
O17   V3    S    
C20   C22   A    
O5    V1    S    
O6    V2    S    
C10   H6    S    
C2    C35   S    
N2    C42   S    
C41   H13   S    
C29   N1    S    
C16   C20   A    
C38   O17   A    
O4    C2    A    
C30   N2    S    
O19   V3    S    
O13   V3    S    
C4    C7    S    
C24   Cl2   S    
O4    V2    S    
N1    H11   S    
C11   H7    S    
C12   H8    S    
C42   H16   S    
O12   C40   A    
O6    C4    A    
C42   H18   S    
C27   H3    S    
O1    V2    S    
C28   H4    S    
O2    V1    S    
N1    C41   S    
O11   V4    S    
O11   C39   A    
C7    C27   A    
O20   V4    S    
C42   H17   S    
C26   H10   S    
C33   C35   T    
O3    V1    S    
C41   H14   S    
C37   O18   A    
C3    C8    S    
C18   C32   A    
C23   Cl1   S    
O20   V3    S    
O3    C1    A    
O19   V4    S    
C11   C13   A    
O16   C40   A    
C31   C38   S    
C12   C14   A    
C32   C37   S    
C19   C27   A    
C14   C16   A    
O7    V1    S    
C10   C32   A    
C1    O8    A    
C23   C25   A    
O8    V2    S    
C24   C26   A    
C8    C28   A    
O15   C39   A    
C22   C24   A    
C19   C21   A    
C17   C25   A    
C13   Cl3   S    
C6    H2    S    
C18   C26   A    
C33   C40   S    
C9    C11   A    
C15   C17   A    
C34   C39   S    
C17   C31   A    
O9    V2    S    
O10   V1    S    
O14   V4    S    
C14   Cl4   S    
C5    C21   A    
C6    C22   A    
