data_str_m3_o10_o17_f0_pcu.sym.80
_audit_creation_date              2012-12-10T16:52:09-0500
_audit_creation_method            fapswitch 2.2
_symmetry_space_group_name_H-M    P1
_symmetry_Int_Tables_number       1
_space_group_crystal_system       triclinic
_cell_length_a                    7.772043
_cell_length_b                    8.559075
_cell_length_c                    14.898818
_cell_angle_alpha                 91.006066
_cell_angle_beta                  86.065206
_cell_angle_gamma                 93.657662
_cell_volume                      986.654958199

loop_
_atom_site_label
_atom_site_type_symbol
_atom_type_description
_atom_site_fract_x
_atom_site_fract_y
_atom_site_fract_z
_atom_type_partial_charge
C1    C     C_R   0.545759 0.794687 0.497677 0.952127
C2    C     C_R   0.576382 0.637197 0.812075 0.038168
C3    C     C_R   0.491053 0.494828 0.232433 -0.075519
C4    C     C_R   0.508766 0.503838 0.767545 -0.097547
C5    C     C_R   0.558910 0.626286 0.186903 -0.266405
C6    C     C_R   0.440430 0.372053 0.812814 -0.256564
C7    C     C_R   0.562005 0.628356 0.094544 0.117359
C8    C     C_R   0.437695 0.369093 0.905271 0.087942
C9    C     C_R   0.496947 0.495810 0.047055 0.001385
C10   C     C_R   0.503000 0.500934 0.953027 -0.017300
C11   C     C_R   0.426719 0.358787 0.093560 0.085830
C12   C     C_R   0.454240 0.205313 0.502309 0.953973
C13   C     C_R   0.573677 0.637524 0.906625 0.122453
C14   C     C_R   0.630805 0.762082 0.049815 -0.281639
C15   C     C_R   0.369494 0.235155 0.949759 -0.218811
C16   C     C_R   0.637729 0.768568 0.956548 0.114717
C17   C     C_R   0.363445 0.227263 0.042719 0.087642
C18   C     C_2   0.569860 0.958221 0.496381 -0.385316
C19   C     C_2   0.430136 0.041778 0.503573 -0.385086
C20   C     C_R   0.502822 0.501607 0.672581 0.878150
C21   C     C_R   0.497156 0.498259 0.327420 0.878856
C22   C     C_R   0.424257 0.360494 0.188358 0.017823
H1    H     H_    0.680183 0.862920 0.087500 0.146260
H2    H     H_    0.545770 0.809368 0.723303 0.176796
H3    H     H_    0.609726 0.727345 0.224104 0.140360
H4    H     H_    0.389205 0.271469 0.775371 0.144114
H5    H     H_    0.639978 0.002373 0.938587 0.194780
H6    H     H_    0.837423 0.928978 0.932586 0.189921
H7    H     H_    0.182631 0.104478 0.123472 0.212591
H8    H     H_    0.385885 0.032638 0.116764 0.210968
H9    H     H_    0.320489 0.134475 0.911797 0.163916
H10   H     H_    0.701826 0.009295 0.489546 0.182540
H11   H     H_    0.298170 0.990705 0.510404 0.182669
H12   H     H_    0.013671 0.382779 0.432091 0.187835
H13   H     H_    0.986329 0.617221 0.567909 0.188964
H14   H     H_    0.456201 0.190725 0.278422 0.179425
H15   H     H_    0.255320 0.259902 0.283838 0.195634
H16   H     H_    0.746133 0.739375 0.717518 0.192835
N1    N     N_2   0.950330 0.457950 0.475660 -0.171779
N2    N     N_2   0.049670 0.542050 0.524340 -0.171290
N3    N     N_3   0.358443 0.227230 0.240270 -0.493768
N4    N     N_3   0.643150 0.771668 0.761297 -0.429652
N5    N     N_3   0.710501 0.908894 0.913976 -0.426685
N6    N     N_3   0.292300 0.083256 0.081574 -0.460581
O1    O     O_R   0.389250 0.738570 0.505970 -0.612096
O2    O     O_R   0.610750 0.261430 0.494030 -0.611975
O3    O     O_R   0.678390 0.711620 0.490370 -0.633464
O4    O     O_R   0.321610 0.288380 0.509630 -0.632852
O5    O     O_R   0.355420 0.513510 0.639950 -0.611804
O6    O     O_R   0.644580 0.486490 0.360050 -0.614311
O7    O     O_R   0.644560 0.486560 0.624350 -0.627177
O8    O     O_R   0.355440 0.513440 0.375650 -0.627835
Zn1   Zn    Zn3+2 0.306940 0.517990 0.510420 0.942171
Zn2   Zn    Zn3+2 0.693060 0.482010 0.489580 0.941253

loop_
_geom_bond_atom_site_label_1
_geom_bond_atom_site_label_2
_ccdc_geom_bond_type
C14   H1    S    
C2    C4    A    
C15   H9    S    
C20   O5    A    
C8    C15   A    
H2    N4    S    
C9    C10   A    
C11   C22   A    
C1    O3    A    
C12   O4    A    
O7    Zn2   S    
H8    N6    S    
C7    C9    A    
O2    Zn2   S    
H13   N2    S    
C1    C18   S    
C17   N6    S    
O1    Zn1   S    
C6    H4    S    
C9    C11   A    
C16   N5    S    
C1    O1    A    
H14   N3    S    
O6    Zn2   S    
C2    N4    S    
O3    Zn2   S    
C5    H3    S    
C12   C19   S    
C8    C10   A    
C21   O6    A    
H16   N4    S    
C20   O7    A    
C14   C16   A    
C21   O8    A    
H7    N6    S    
H15   N3    S    
O4    Zn1   S    
O5    Zn1   S    
C3    C21   S    
C22   N3    S    
C18   H10   S    
C4    C6    A    
H12   N1    S    
N1    Zn2   S    
H5    N5    S    
O8    Zn1   S    
C12   O2    A    
N2    Zn1   S    
C19   H11   S    
C13   C16   A    
N1    N2    D    
C5    C7    A    
C2    C13   A    
C18   C19   D    
C3    C22   A    
C6    C8    A    
H6    N5    S    
C15   C17   A    
C7    C14   A    
C11   C17   A    
C3    C5    A    
C10   C13   A    
C4    C20   S    
