data_str_m4_o4_o11_f0_acs.sym.33
_audit_creation_date              2013-03-05T15:51:04-0500
_audit_creation_method            fapswitch 2.2
_symmetry_space_group_name_H-M    P1
_symmetry_Int_Tables_number       1
_space_group_crystal_system       triclinic
_cell_length_a                    19.030406
_cell_length_b                    10.986843
_cell_length_c                    18.718745
_cell_angle_alpha                 90.05602
_cell_angle_beta                  89.911734
_cell_angle_gamma                 89.968266
_cell_volume                      3913.78451379

loop_
_atom_site_label
_atom_site_type_symbol
_atom_site_description
_atom_site_fract_x
_atom_site_fract_y
_atom_site_fract_z
_atom_type_partial_charge
O1    O     O_R   0.784290 0.290360 0.830540 -0.529485
O2    O     O_R   0.215710 0.290360 0.169460 -0.522570
O3    O     O_R   0.284290 0.790360 0.830540 -0.517236
O4    O     O_R   0.715710 0.790360 0.169460 -0.530811
O5    O     O_R   0.762610 0.041070 0.825230 -0.503061
O6    O     O_R   0.237390 0.041070 0.174770 -0.488631
O7    O     O_R   0.262610 0.541070 0.825230 -0.483959
O8    O     O_R   0.737390 0.541070 0.174770 -0.490679
C1    C     C_R   0.726551 0.956133 0.853615 0.556636
C2    C     C_R   0.276195 0.963727 0.143203 0.570844
C3    C     C_R   0.224909 0.460877 0.855775 0.566209
C4    C     C_R   0.791675 0.503147 0.139018 0.566610
O9    O     O_R   0.667390 0.924160 0.829970 -0.500915
O10   O     O_R   0.332610 0.924160 0.170030 -0.491858
O11   O     O_R   0.167390 0.424160 0.829970 -0.500138
O12   O     O_R   0.832610 0.424160 0.170030 -0.439811
O13   O     O_R   0.553980 0.081420 0.821780 -0.497045
O14   O     O_R   0.446020 0.081420 0.178220 -0.504974
O15   O     O_R   0.053980 0.581420 0.821780 -0.502652
O16   O     O_R   0.946020 0.581420 0.178220 -0.513605
C5    C     C_R   0.530465 0.177596 0.851247 0.553296
C6    C     C_R   0.471116 0.177675 0.149842 0.548037
C7    C     C_R   0.029665 0.677573 0.850774 0.538396
C8    C     C_R   0.970964 0.677876 0.149716 0.549780
O17   O     O_R   0.543210 0.283170 0.826740 -0.484677
O18   O     O_R   0.456790 0.283170 0.173260 -0.464215
O19   O     O_R   0.043210 0.783170 0.826740 -0.481963
O20   O     O_R   0.956790 0.783170 0.173260 -0.503882
O21   O     O_R   0.678350 0.375000 0.822720 -0.467929
O22   O     O_R   0.321650 0.375000 0.177280 -0.480925
O23   O     O_R   0.178350 0.875000 0.822720 -0.466539
O24   O     O_R   0.821650 0.875000 0.177280 -0.478347
C9    C     C_R   0.739126 0.366235 0.852106 0.547105
C10   C     C_R   0.261442 0.365288 0.147956 0.541306
C11   C     C_R   0.238583 0.866027 0.851871 0.542691
C12   C     C_R   0.762126 0.862842 0.146904 0.564956
O25   O     O_R   0.785060 0.289300 0.670580 -0.510576
O26   O     O_R   0.214940 0.289300 0.329420 -0.536908
O27   O     O_R   0.285060 0.789300 0.670580 -0.528523
O28   O     O_R   0.714940 0.789300 0.329420 -0.500151
O29   O     O_R   0.763330 0.040090 0.676940 -0.496153
O30   O     O_R   0.236670 0.040090 0.323060 -0.458236
O31   O     O_R   0.263330 0.540090 0.676940 -0.464368
O32   O     O_R   0.736670 0.540090 0.323060 -0.495238
C13   C     C_R   0.728934 0.951486 0.648550 0.540917
C14   C     C_R   0.290408 0.001764 0.360164 0.578815
C15   C     C_R   0.209834 0.500734 0.639726 0.568429
C16   C     C_R   0.771114 0.453223 0.351509 0.560997
O33   O     O_R   0.668160 0.923110 0.670000 -0.515797
O34   O     O_R   0.331840 0.923110 0.330000 -0.492263
O35   O     O_R   0.168160 0.423110 0.670000 -0.496174
O36   O     O_R   0.831840 0.423110 0.330000 -0.518742
O37   O     O_R   0.554690 0.080440 0.673480 -0.523479
O38   O     O_R   0.445310 0.080440 0.326520 -0.529293
O39   O     O_R   0.054690 0.580440 0.673480 -0.525301
O40   O     O_R   0.945310 0.580440 0.326520 -0.519603
C17   C     C_R   0.532831 0.176633 0.642955 0.582625
C18   C     C_R   0.471745 0.176629 0.353768 0.547883
C19   C     C_R   0.028269 0.677375 0.646191 0.536874
C20   C     C_R   0.967760 0.675831 0.356637 0.574490
O41   O     O_R   0.543980 0.282110 0.666770 -0.474004
O42   O     O_R   0.456020 0.282110 0.333230 -0.479926
O43   O     O_R   0.043980 0.782110 0.666770 -0.480260
O44   O     O_R   0.956020 0.782110 0.333230 -0.512487
O45   O     O_R   0.679070 0.374030 0.674430 -0.504785
O46   O     O_R   0.320930 0.374030 0.325570 -0.500902
O47   O     O_R   0.179070 0.874030 0.674430 -0.498975
O48   O     O_R   0.820930 0.874030 0.325570 -0.497839
C21   C     C_R   0.738269 0.357177 0.644304 0.542492
C22   C     C_R   0.258795 0.366833 0.351874 0.532168
C23   C     C_R   0.241182 0.866590 0.647835 0.531276
C24   C     C_R   0.774695 0.810647 0.360789 0.553691
Cr1   Cr    Cr6+3 0.769260 0.163750 0.750730 1.051800
Cr2   Cr    Cr6+3 0.230740 0.163750 0.249270 1.050829
Cr3   Cr    Cr6+3 0.269260 0.663750 0.750730 1.074218
Cr4   Cr    Cr6+3 0.730740 0.663750 0.249270 1.069089
Cr5   Cr    Cr6+3 0.612640 0.009910 0.748780 1.051290
Cr6   Cr    Cr6+3 0.387360 0.009910 0.251220 1.059126
Cr7   Cr    Cr6+3 0.112640 0.509910 0.748780 1.054287
Cr8   Cr    Cr6+3 0.887360 0.509910 0.251220 1.044421
Cr9   Cr    Cr6+3 0.614190 0.322400 0.747710 1.107886
Cr10  Cr    Cr6+3 0.385810 0.322400 0.252290 1.115252
Cr11  Cr    Cr6+3 0.114190 0.822400 0.747710 1.118812
Cr12  Cr    Cr6+3 0.885810 0.822400 0.252290 1.058257
O49   O     O_3   0.665360 0.165350 0.749070 -0.275450
O50   O     O_3   0.334640 0.165350 0.250930 -0.303697
O51   O     O_3   0.165360 0.665350 0.749070 -0.300473
O52   O     O_3   0.834640 0.665350 0.250930 -0.318746
C25   C     C_2   0.500587 0.167713 0.922860 -0.118485
C26   C     C_2   0.505871 0.169644 0.080484 -0.105971
C27   C     C_2   0.998551 0.668105 0.921948 -0.119669
C28   C     C_2   0.004067 0.671334 0.079496 -0.113028
C29   C     C_2   0.500938 0.068485 0.040719 -0.167161
C30   C     C_2   0.514658 0.069791 0.963579 -0.158060
C31   C     C_2   0.001756 0.569208 0.040561 -0.173588
C32   C     C_2   0.012030 0.570020 0.962734 -0.164597
H1    H     H_    0.485051 0.982892 0.064579 0.165601
H2    H     H_    0.537371 0.988182 0.940343 0.170017
H3    H     H_    0.991634 0.482455 0.066109 0.153906
H4    H     H_    0.032359 0.487450 0.938768 0.162720
H5    H     H_    0.525963 0.253441 0.057379 0.129395
H6    H     H_    0.476305 0.248005 0.945933 0.103482
H7    H     H_    0.019800 0.756701 0.055165 0.103843
H8    H     H_    0.974732 0.749259 0.944665 0.111870
C33   C     C_R   0.781844 0.490328 0.061686 0.027113
C34   C     C_R   0.235703 0.440528 0.931445 0.003345
C35   C     C_R   0.266792 0.948726 0.066824 0.007496
C36   C     C_R   0.743565 0.912581 0.924292 0.032229
C37   C     C_R   0.721376 0.532356 0.026490 -0.048505
C38   C     C_R   0.294064 0.489520 0.966332 -0.013163
C39   C     C_R   0.206648 0.992376 0.032804 -0.024702
C40   C     C_R   0.807317 0.937179 0.958336 -0.052438
C41   C     C_R   0.709336 0.504391 0.955281 0.036097
C42   C     C_R   0.300853 0.478503 0.039728 0.046765
C43   C     C_R   0.199039 0.981881 0.959625 0.042898
C44   C     C_R   0.813287 0.926192 0.031746 -0.004744
C45   C     C_R   0.824697 0.416707 0.947300 -0.132049
C46   C     C_R   0.182958 0.399787 0.046852 -0.146248
C47   C     C_R   0.318883 0.912836 0.950382 -0.141392
C48   C     C_R   0.691575 0.866522 0.038769 -0.143158
C49   C     C_R   0.835833 0.441294 0.019574 -0.099773
C50   C     C_R   0.178287 0.402259 0.973054 -0.140615
C51   C     C_R   0.325329 0.919667 0.024199 -0.123234
C52   C     C_R   0.687710 0.866374 0.965349 -0.125592
C53   C     C_3   0.645198 0.520132 0.044851 -0.196200
C54   C     C_3   0.370034 0.464817 0.953082 -0.229351
C55   C     C_3   0.131349 0.965568 0.047430 -0.245441
C56   C     C_3   0.856080 0.043425 0.954555 -0.217244
C57   C     C_3   0.632032 0.489808 0.966324 0.106801
C58   C     C_3   0.377639 0.450354 0.033548 0.097333
C59   C     C_3   0.122218 0.953841 0.966573 0.098734
C60   C     C_3   0.863704 0.030679 0.035212 0.101453
C61   C     C_R   0.757883 0.435600 0.916355 0.008102
C62   C     C_R   0.247454 0.424665 0.080330 -0.003358
C63   C     C_R   0.252763 0.929565 0.918386 -0.003605
C64   C     C_R   0.754012 0.900277 0.073470 0.066436
H9    H     H_    0.866034 0.369861 0.918440 0.154107
H10   H     H_    0.138654 0.363565 0.076398 0.160296
H11   H     H_    0.363551 0.880296 0.919873 0.167890
H12   H     H_    0.645423 0.837760 0.068230 0.154198
H13   H     H_    0.884368 0.411779 0.043618 0.160782
H14   H     H_    0.130113 0.370666 0.948805 0.171714
H15   H     H_    0.375467 0.897487 0.047788 0.181622
H16   H     H_    0.637733 0.841703 0.941901 0.189238
H17   H     H_    0.634743 0.442023 0.081081 0.158408
H18   H     H_    0.378391 0.378881 0.922892 0.102951
H19   H     H_    0.124511 0.878056 0.076334 0.108529
H20   H     H_    0.905006 0.020711 0.924952 0.165936
C65   C     C_R   0.508932 0.169950 0.420186 0.016559
C66   C     C_R   0.519291 0.171493 0.567864 0.065076
C67   C     C_R   0.984177 0.667765 0.430986 0.058943
C68   C     C_R   0.992865 0.676278 0.578710 0.020597
C69   C     C_R   0.524316 0.278108 0.456360 0.016145
C70   C     C_R   0.532060 0.277543 0.528983 -0.025074
C71   C     C_R   0.991192 0.777305 0.466221 -0.032808
C72   C     C_R   0.992912 0.784126 0.538442 0.010287
C73   C     C_R   0.511038 0.061075 0.531740 -0.162920
C74   C     C_R   0.510785 0.059743 0.457383 -0.170046
C75   C     C_R   0.973175 0.567298 0.545878 -0.165934
C76   C     C_R   0.969491 0.562690 0.471343 -0.156628
C77   C     C_3   0.483906 0.396342 0.459273 0.114910
C78   C     C_3   0.498078 0.399356 0.538625 0.095082
C79   C     C_3   0.040923 0.878922 0.453374 0.084698
C80   C     C_3   0.043975 0.889706 0.534421 0.105826
H21   H     H_    0.503543 0.977289 0.560913 0.122696
H22   H     H_    0.504636 0.975019 0.429235 0.136109
H23   H     H_    0.966337 0.485481 0.577128 0.122604
H24   H     H_    0.957295 0.477784 0.445547 0.123691
H25   H     H_    0.015941 0.955736 0.424228 0.157270
H26   H     H_    0.095760 0.868718 0.558286 0.155394
H27   H     H_    0.427818 0.385061 0.445407 0.146026
H28   H     H_    0.535839 0.470602 0.556188 0.131224
C81   C     C_R   0.746332 0.404124 0.419089 0.030100
C82   C     C_R   0.219787 0.485326 0.562455 0.025452
C83   C     C_R   0.281312 0.988714 0.437763 0.039401
C84   C     C_R   0.753538 0.887138 0.584051 0.014065
C85   C     C_R   0.780157 0.306622 0.452473 0.013447
C86   C     C_R   0.163510 0.452276 0.518867 0.020733
C87   C     C_R   0.335550 0.940103 0.478804 0.006501
C88   C     C_R   0.706677 0.809562 0.548177 0.025137
C89   C     C_R   0.779487 0.298197 0.525622 0.010821
C90   C     C_R   0.172351 0.432514 0.446280 0.054555
C91   C     C_R   0.327158 0.919240 0.551313 0.033475
C92   C     C_R   0.714896 0.784461 0.476409 -0.002717
C93   C     C_R   0.696840 0.462122 0.534436 -0.165094
C94   C     C_R   0.292512 0.496297 0.455155 -0.131218
C95   C     C_R   0.212325 0.009602 0.547446 -0.136761
C96   C     C_R   0.826345 0.886968 0.476902 -0.155651
C97   C     C_R   0.698522 0.473077 0.459989 -0.128540
C98   C     C_R   0.283430 0.514537 0.528690 -0.108287
C99   C     C_R   0.221469 0.032037 0.474038 -0.104156
C100  C     C_R   0.817467 0.914287 0.550023 -0.156028
C101  C     C_3   0.852904 0.254654 0.448143 -0.247937
C102  C     C_3   0.112245 0.350316 0.525868 -0.225771
C103  C     C_3   0.375590 0.824509 0.468063 -0.231820
C104  C     C_3   0.629019 0.822243 0.539933 -0.266523
C105  C     C_3   0.852852 0.251550 0.529174 -0.224437
C106  C     C_3   0.117137 0.335843 0.445563 -0.245341
C107  C     C_3   0.371135 0.806945 0.547731 -0.246062
C108  C     C_3   0.638382 0.799724 0.461261 -0.258687
C109  C     C_R   0.743048 0.381323 0.568374 0.014442
C110  C     C_R   0.239710 0.438583 0.415379 0.036055
C111  C     C_R   0.261627 0.938285 0.584422 0.031716
C112  C     C_R   0.771779 0.829953 0.438219 0.007180
H29   H     H_    0.662394 0.520559 0.565255 0.130249
H30   H     H_    0.343075 0.515190 0.431546 0.150125
H31   H     H_    0.163680 0.036533 0.572817 0.156969
H32   H     H_    0.873276 0.918018 0.449883 0.143024
H33   H     H_    0.668154 0.543885 0.435412 0.178713
H34   H     H_    0.328240 0.539528 0.560028 0.190725
H35   H     H_    0.178773 0.071176 0.444542 0.153124
H36   H     H_    0.857829 0.963861 0.578112 0.174843
H37   H     H_    0.892908 0.316717 0.425947 0.158298
H38   H     H_    0.059895 0.378966 0.544397 0.160899
H39   H     H_    0.429894 0.836111 0.448944 0.166869
H40   H     H_    0.612580 0.916112 0.551646 0.163642
H41   H     H_    0.853061 0.162255 0.423854 0.156358
H42   H     H_    0.134535 0.271404 0.555339 0.181283
H43   H     H_    0.344954 0.755421 0.437824 0.185094
H44   H     H_    0.599442 0.749176 0.567939 0.153154
H45   H     H_    0.855737 0.158896 0.551499 0.178555
H46   H     H_    0.135917 0.245797 0.428822 0.162099
H47   H     H_    0.341514 0.725964 0.562646 0.164882
H48   H     H_    0.612147 0.715931 0.442709 0.200906
H49   H     H_    0.889570 0.318074 0.553608 0.149695
H50   H     H_    0.069005 0.366426 0.417231 0.146349
H51   H     H_    0.422216 0.817519 0.575643 0.146121
H52   H     H_    0.627167 0.881572 0.428273 0.164011
N1    N     N_R   0.517532 0.496101 0.420757 0.042927
O53   O     O_R   0.557909 0.473878 0.366093 -0.321512
O54   O     O_R   0.494509 0.606251 0.430753 -0.409525
N2    N     N_R   0.434360 0.394370 0.582574 0.050993
O55   O     O_R   0.385993 0.312882 0.570887 -0.371383
O56   O     O_R   0.429193 0.464471 0.638386 -0.328730
N3    N     N_R   0.106636 0.836690 0.420764 0.052228
O57   O     O_R   0.144716 0.752767 0.450996 -0.374164
O58   O     O_R   0.123030 0.873361 0.356872 -0.312382
N4    N     N_R   0.012851 0.002811 0.561521 0.033771
O59   O     O_R   0.990625 0.008314 0.627181 -0.320732
O60   O     O_R   0.017995 0.103198 0.525054 -0.419110
H53   H     H_    0.104783 0.044584 0.072845 0.193555
H54   H     H_    0.829724 0.128681 0.937224 0.193163
H55   H     H_    0.622273 0.608071 0.062804 0.191771
H56   H     H_    0.397214 0.545515 0.930373 0.218344
H57   H     H_    0.611928 0.396202 0.956649 0.117676
H58   H     H_    0.391843 0.356382 0.050160 0.107245
H59   H     H_    0.107814 0.860944 0.948310 0.111968
H60   H     H_    0.917164 0.002258 0.052564 0.148035
N5    N     N_R   0.592024 0.584160 0.929188 0.071871
O61   O     O_R   0.531761 0.619560 0.954572 -0.323428
O62   O     O_R   0.610257 0.617976 0.865173 -0.328228
N6    N     N_R   0.421493 0.544718 0.065963 0.121243
O63   O     O_R   0.476958 0.513937 0.102264 -0.317259
O64   O     O_R   0.406114 0.659503 0.058663 -0.331943
N7    N     N_R   0.079036 0.049821 0.934581 0.079783
O65   O     O_R   0.031950 0.107634 0.971979 -0.394774
O66   O     O_R   0.082389 0.068909 0.866112 -0.300379
N8    N     N_R   0.836110 0.134785 0.075257 0.084948
O67   O     O_R   0.873269 0.181227 0.126727 -0.316912
O68   O     O_R   0.773760 0.178339 0.062274 -0.350296

loop_
_geom_bond_atom_site_label_1
_geom_bond_atom_site_label_2
_geom_bond_distance
_ccdc_geom_bond_type
C22   C110  1.470697 S    
Cr11  O51   1.981035 S    
O4    C12   1.262133 A    
C18   O42   1.257481 A    
C29   C30   1.467068 S    
C92   C112  1.389817 A    
C66   C73   1.397334 A    
O39   C19   1.284229 A    
C25   H6    1.084654 S    
O20   Cr12  2.047141 S    
C56   H54   1.111210 S    
O29   C13   1.288135 A    
C91   C111  1.407182 A    
C80   H26   1.106904 S    
C31   C32   1.469626 S    
C55   H53   1.110647 S    
C35   C51   1.405665 A    
C27   H8    1.086047 S    
C104  C108  1.503356 S    
C45   C61   1.413351 A    
N7    O66   1.300379 A    
C77   C78   1.510394 S    
C58   H58   1.111895 S    
O1    C9    1.262582 A    
C102  H42   1.112291 S    
C87   C103  1.493969 S    
C19   C68   1.432566 S    
C1    C36   1.444465 S    
C101  H41   1.111934 S    
C20   O44   1.267430 A    
C86   C102  1.491625 S    
C51   H15   1.079809 S    
N5    O61   1.299905 A    
C73   C74   1.391959 A    
C17   O41   1.259466 A    
C85   C101  1.499274 S    
C26   C29   1.340468 D    
C47   C63   1.406432 A    
O24   C12   1.275271 A    
C58   N6    1.463152 S    
C106  H46   1.096974 S    
C99   H35   1.073048 S    
C23   C111  1.477020 S    
C105  H45   1.102168 S    
O30   C14   1.306830 A    
C4    C33   1.466540 S    
C104  H40   1.099339 S    
C67   C76   1.408182 A    
C31   H3    1.084024 S    
C84   C100  1.404704 A    
O47   C23   1.284402 A    
C10   C62   1.449589 S    
O21   C9    1.285105 A    
O8    Cr4   1.942449 S    
O23   Cr11  1.949552 S    
C94   C110  1.402939 A    
C108  H52   1.112098 S    
C93   C109  1.402439 A    
C25   C30   1.346124 D    
O32   Cr4   1.941770 S    
C65   C69   1.398468 A    
O44   Cr12  2.069683 S    
C1    O9    1.260371 A    
C28   H7    1.085130 S    
C91   C107  1.491836 S    
C27   C32   1.346061 D    
C3    O11   1.263314 A    
O6    C2    1.270263 A    
O11   Cr7   2.071107 S    
C15   C82   1.468082 S    
C68   C72   1.404964 A    
C54   C58   1.521849 S    
C75   H23   1.080775 S    
C92   C108  1.493263 S    
C90   C106  1.494517 S    
C88   C104  1.492589 S    
C56   C60   1.523557 S    
C88   C92   1.379812 A    
N3    O57   1.302733 A    
O6    Cr2   1.942449 S    
C48   H12   1.083760 S    
C39   C43   1.382380 A    
C7    O19   1.271157 A    
O3    Cr3   2.060673 S    
C65   C74   1.397798 A    
Cr4   O52   1.977641 S    
C66   C70   1.395621 A    
C103  C107  1.506169 S    
C46   C62   1.405803 A    
C18   C65   1.433423 S    
O8    C4    1.298280 A    
C24   C112  1.465578 S    
C95   C111  1.405541 A    
Cr9   O49   1.981035 S    
O2    C10   1.263923 A    
C76   H24   1.075611 S    
C93   H29   1.082754 S    
O42   Cr10  2.069683 S    
C68   C75   1.396963 A    
C89   C105  1.488591 S    
O18   Cr10  2.047141 S    
C41   C61   1.397036 A    
O17   Cr9   2.048063 S    
N3    O58   1.299996 A    
C101  C105  1.517218 S    
C2    C35   1.450375 S    
C36   C52   1.406091 A    
C103  H43   1.112272 S    
C12   C64   1.443673 S    
Cr7   O51   1.981178 S    
C33   C37   1.404905 A    
C104  H44   1.111976 S    
C14   O34   1.297760 A    
O7    C3    1.272157 A    
C87   C91   1.385725 A    
C54   H18   1.111129 S    
C21   C109  1.448861 S    
O24   Cr12  1.949963 S    
O16   Cr8   1.931079 S    
N4    O60   1.301305 A    
O30   Cr2   1.941770 S    
N5    O62   1.301554 A    
C94   H30   1.078606 S    
O26   C22   1.264911 A    
C108  H48   1.103546 S    
C4    O12   1.303297 A    
C5    O17   1.271106 A    
C2    O10   1.263073 A    
C13   C84   1.474083 S    
C73   H21   1.080201 S    
C103  H39   1.100638 S    
O23   C11   1.274094 A    
O22   C10   1.275729 A    
O15   C7    1.273681 A    
C60   H60   1.113054 S    
C11   C63   1.452548 S    
C15   O35   1.295281 A    
O26   Cr2   2.058685 S    
C71   C79   1.483564 S    
O27   C23   1.265164 A    
Cr10  O50   1.981931 S    
C45   H9    1.083177 S    
C96   C112  1.413202 A    
C28   C31   1.338146 D    
O13   C5    1.272251 A    
C36   C40   1.397656 A    
C69   C77   1.510114 S    
C48   C64   1.404871 A    
C20   C67   1.429641 S    
O48   Cr12  1.928812 S    
O41   Cr9   2.069365 S    
C94   C98   1.401217 A    
O37   Cr5   1.951767 S    
C26   H5    1.086978 S    
O5    C1    1.274603 A    
N1    O53   1.301516 A    
C49   H13   1.077985 S    
O46   Cr10  1.928812 S    
O39   Cr7   1.951767 S    
O25   C21   1.261860 A    
C84   C88   1.405070 A    
O45   Cr9   1.930003 S    
C75   C76   1.397940 A    
C44   C60   1.497961 S    
C13   O33   1.263034 A    
O48   C24   1.301349 A    
O43   Cr11  2.069365 S    
C17   C66   1.430494 S    
C34   C50   1.405652 A    
C3    C34   1.449120 S    
O13   Cr5   1.929484 S    
C6    C26   1.458707 S    
C33   C49   1.401180 A    
O36   Cr8   2.049264 S    
O7    Cr3   1.944438 S    
O47   Cr11  1.930003 S    
Cr2   O50   1.977641 S    
O15   Cr7   1.929484 S    
C37   C41   1.387045 A    
Cr1   O49   1.977622 S    
C86   C90   1.385735 A    
C46   C50   1.384694 A    
C41   C57   1.494002 S    
C95   C99   1.406839 A    
C82   C98   1.402801 A    
C77   N1    1.459967 S    
O4    Cr4   2.062429 S    
C37   C53   1.495511 S    
O14   Cr6   1.931079 S    
C38   C54   1.491202 S    
O21   Cr9   1.949552 S    
O27   Cr3   2.060870 S    
C53   C57   1.527988 S    
C54   H56   1.111245 S    
O38   C18   1.276874 A    
C8    C28   1.458403 S    
C7    C27   1.460933 S    
C19   O43   1.249716 A    
C78   H28   1.112683 S    
C107  H47   1.089904 S    
C50   H14   1.080880 S    
C59   N7    1.465514 S    
O3    C11   1.266738 A    
N7    O65   1.301155 A    
C57   N5    1.462752 S    
C29   H1    1.084404 S    
N8    O68   1.302478 A    
C40   C44   1.384378 A    
C8    O20   1.266326 A    
C74   H22   1.075706 S    
O31   Cr3   1.939964 S    
N6    O64   1.301855 A    
C16   C81   1.453783 S    
C34   C38   1.397119 A    
Cr3   O51   1.977622 S    
O45   C21   1.272430 A    
C82   C86   1.395387 A    
N4    O59   1.300549 A    
C96   H32   1.081263 S    
O37   C17   1.271971 A    
O22   Cr10  1.949963 S    
O28   C24   1.301935 A    
N2    O56   1.300899 A    
C90   C110  1.407170 A    
C35   C39   1.395648 A    
C70   C78   1.496716 S    
C9    C61   1.467804 S    
C89   C109  1.396980 A    
C5    C25   1.459461 S    
C57   H57   1.112265 S    
O31   C15   1.307952 A    
C81   C97   1.408479 A    
O2    Cr2   2.062429 S    
C102  H38   1.100117 S    
C83   C87   1.394053 A    
C93   C97   1.399188 A    
C44   C64   1.400577 A    
C47   C51   1.389333 A    
C42   C58   1.497739 S    
O25   Cr1   2.060870 S    
C67   C71   1.378453 A    
O40   Cr8   1.951159 S    
C60   N8    1.463668 S    
C96   C100  1.410846 A    
C81   C85   1.397930 A    
C47   H11   1.083664 S    
C38   C42   1.385553 A    
C55   C59   1.529072 S    
O14   C6    1.276539 A    
N8    O67   1.300063 A    
C98   H34   1.071521 S    
O1    Cr1   2.060673 S    
Cr8   O52   1.980228 S    
O32   C16   1.274952 A    
C97   H33   1.073252 S    
C59   H59   1.110691 S    
O9    Cr5   2.071107 S    
C39   C55   1.488129 S    
Cr6   O50   1.980228 S    
C102  C106  1.514150 S    
Cr12  O52   1.981931 S    
C43   C63   1.402712 A    
Cr5   O49   1.981178 S    
C85   C89   1.372506 A    
C32   H4    1.082678 S    
O34   Cr6   2.049264 S    
O19   Cr11  2.048063 S    
N2    O55   1.302986 A    
C42   C62   1.399779 A    
O33   Cr5   2.047381 S    
C101  H37   1.103312 S    
C53   H55   1.111401 S    
C80   N4    1.466081 S    
C56   H20   1.110908 S    
O10   Cr6   2.070280 S    
O5    Cr1   1.944438 S    
C79   H25   1.112281 S    
C83   C99   1.407461 A    
O35   Cr7   2.047381 S    
C40   C56   1.493298 S    
C79   C80   1.522793 S    
C79   N3    1.465686 S    
C48   C52   1.376400 A    
C100  H36   1.079008 S    
O29   Cr1   1.939964 S    
C77   H27   1.105883 S    
O40   C20   1.264450 A    
C16   O36   1.266858 A    
C43   C59   1.499688 S    
O46   C22   1.282678 A    
C72   C80   1.515493 S    
N1    O54   1.300104 A    
C6    O18   1.268140 A    
O28   Cr4   2.058685 S    
C95   H31   1.080809 S    
C71   C72   1.354336 A    
C30   H2    1.085442 S    
C14   C83   1.469736 S    
C52   H16   1.082592 S    
C53   H17   1.112148 S    
C45   C49   1.395851 A    
O12   Cr8   2.070280 S    
C69   C70   1.367621 A    
C46   H10   1.083740 S    
C107  H51   1.110419 S    
O16   C8    1.278264 A    
C78   N2    1.465335 S    
C106  H50   1.111155 S    
C55   H19   1.111318 S    
N6    O63   1.300951 A    
O38   Cr6   1.951159 S    
C105  H49   1.110200 S    
