data_str_m12_o9_o10_f0_bcu.sym.57
_audit_creation_date              2012-12-11T17:37:50-0500
_audit_creation_method            fapswitch 2.2
_symmetry_space_group_name_H-M    P1
_symmetry_Int_Tables_number       1
_space_group_crystal_system       triclinic
_cell_length_a                    13.061773
_cell_length_b                    13.056611
_cell_length_c                    15.476887
_cell_angle_alpha                 117.699292
_cell_angle_beta                  63.556863
_cell_angle_gamma                 97.851462
_cell_volume                      2084.2153933

loop_
_atom_site_label
_atom_site_type_symbol
_atom_type_description
_atom_site_fract_x
_atom_site_fract_y
_atom_site_fract_z
_atom_type_partial_charge
C1    C     C_R   0.997769 0.832708 0.060023 -0.113036
C2    C     C_R   0.302068 0.588746 0.789383 -0.147913
C3    C     C_R   0.260072 0.419003 0.048106 0.687672
C4    C     C_R   0.679321 0.475334 0.219611 -0.137679
C5    C     C_R   0.047544 0.276423 0.683933 -0.123938
C6    C     C_R   0.362207 0.434791 0.974172 -0.015914
C7    C     C_R   0.036633 0.164718 0.675292 0.062114
C8    C     C_R   0.303239 0.549652 0.689499 0.065998
C9    C     C_R   0.000616 0.152708 0.046827 0.008380
C10   C     C_R   0.422679 0.944114 0.110216 0.297652
C11   C     C_R   0.355412 0.924966 0.200917 -0.235255
C12   C     C_R   0.672622 0.553592 0.320913 0.047132
C13   C     C_R   0.250209 0.990951 0.279204 0.094192
C14   C     C_R   0.212347 0.076401 0.266397 -0.202640
C15   C     C_R   0.278384 0.094823 0.175746 -0.158031
C16   C     C_R   0.755647 0.519617 0.894015 -0.164810
C17   C     C_R   0.383187 0.029134 0.097940 -0.138045
C18   C     C_R   0.159004 0.066539 0.477272 -0.233200
C19   C     C_R   0.089423 0.056552 0.572806 0.057124
C20   C     C_R   0.070146 0.943445 0.564159 -0.001075
C21   C     C_R   0.104641 0.848989 0.462346 -0.214670
C22   C     C_R   0.137974 0.866579 0.371716 0.030781
C23   C     C_R   0.662347 0.460276 0.926986 0.158676
C24   C     C_R   0.181667 0.973027 0.376130 0.056989
C25   C     C_R   0.042294 0.913079 0.720225 -0.149183
C26   C     C_R   0.970167 0.894061 0.809323 -0.158149
C27   C     C_R   0.854177 0.879578 0.832673 -0.125793
C28   C     C_R   0.025902 0.698539 0.297530 -0.154311
C29   C     C_R   0.810311 0.882392 0.766436 -0.107279
C30   C     C_R   0.881831 0.901665 0.677624 -0.061909
C31   C     C_R   0.997556 0.918965 0.655391 0.148786
C32   C     C_R   0.864023 0.365320 0.361634 -0.211984
C33   C     C_R   0.748347 0.397708 0.401894 -0.096346
C34   C     C_R   0.091667 0.791026 0.293627 0.075638
C35   C     C_R   0.703351 0.512265 0.480096 0.041962
C36   C     C_R   0.770586 0.589978 0.526297 -0.364532
C37   C     C_R   0.887038 0.558741 0.482427 0.770967
C38   C     C_R   0.934581 0.447673 0.397651 -0.287628
C39   C     C_R   0.500911 0.564093 0.592197 -0.248565
C40   C     C_R   0.676266 0.422234 0.990661 -0.123635
C41   C     C_R   0.390698 0.570671 0.602528 0.061804
C42   C     C_R   0.371117 0.582060 0.524124 0.025094
C43   C     C_R   0.465260 0.586154 0.435902 -0.251024
C44   C     C_R   0.576120 0.571244 0.422602 0.061966
C45   C     C_R   0.337829 0.513629 0.948410 -0.237113
C46   C     C_R   0.593128 0.555836 0.500155 0.067221
C47   C     C_R   0.241241 0.462729 0.446770 -0.121528
C48   C     C_R   0.131662 0.424089 0.468725 -0.156788
C49   C     C_R   0.037641 0.492479 0.564656 -0.070725
C50   C     C_R   0.051790 0.603135 0.635098 0.039443
C51   C     C_R   0.161525 0.642201 0.613806 -0.142626
C52   C     C_R   0.103365 0.796990 0.203287 -0.145215
C53   C     C_R   0.257565 0.568534 0.523141 0.090831
C54   C     C_2   0.475322 0.395673 0.947757 -0.134795
C55   C     C_2   0.567352 0.441351 0.898964 -0.221184
C56   C     C_R   0.968019 0.177933 0.780049 -0.146559
C57   C     C_2   0.823638 0.956267 0.110493 -0.193793
C58   C     C_2   0.823458 0.045761 0.200223 -0.170857
C59   C     C_R   0.782986 0.574096 0.310205 -0.094364
C60   C     C_R   0.894979 0.747605 0.966131 -0.176526
C61   C     C_R   0.906234 0.852161 0.044923 0.127847
C62   C     C_3   0.537243 0.875999 0.027899 -0.402670
C63   C     C_3   0.531483 0.786452 0.923135 -0.946663
C64   C     C_R   0.207934 0.490229 0.689709 -0.144436
C65   C     C_R   0.047584 0.255536 0.089276 -0.073690
C66   C     C_R   0.946740 0.172686 0.995808 -0.116287
F1    F     F_    0.250098 0.364034 0.106717 -0.762597
F2    F     F_    0.954616 0.639107 0.517690 -0.754831
H1    H     H_    0.026709 0.893834 0.119150 0.099558
H2    H     H_    0.609326 0.438273 0.198962 0.105166
H3    H     H_    0.131018 0.127414 0.325936 0.117053
H4    H     H_    0.248487 0.160403 0.165998 0.164087
H5    H     H_    0.190771 0.148254 0.479786 0.126840
H6    H     H_    0.087406 0.763743 0.457083 0.207556
H7    H     H_    0.131601 0.925928 0.703296 0.116820
H8    H     H_    0.004231 0.891731 0.860542 0.134275
H9    H     H_    0.797826 0.866511 0.902035 0.105066
H10   H     H_    0.720802 0.870833 0.784351 0.115713
H11   H     H_    0.846979 0.904900 0.627091 0.101956
H12   H     H_    0.934723 0.113729 0.807275 0.121570
H13   H     H_    0.025979 0.425552 0.358681 0.168967
H14   H     H_    0.778002 0.548192 0.832896 0.092771
H15   H     H_    0.899920 0.278363 0.298891 0.143314
H16   H     H_    0.696032 0.336531 0.367111 0.127242
H17   H     H_    0.736048 0.678273 0.587169 0.151219
H18   H     H_    0.516193 0.549688 0.649364 0.135962
H19   H     H_    0.452497 0.592016 0.373660 0.140665
H20   H     H_    0.314262 0.404311 0.376927 0.124407
H21   H     H_    0.120445 0.338817 0.413938 0.112700
H22   H     H_    0.953582 0.460158 0.584084 0.099762
H23   H     H_    0.181990 0.448552 0.626150 0.120547
H24   H     H_    0.978552 0.655170 0.709052 0.114055
H25   H     H_    0.011433 0.658582 0.348522 0.148846
H26   H     H_    0.173258 0.722360 0.674430 0.107903
H27   H     H_    0.478693 0.348297 0.988379 0.156867
H28   H     H_    0.565278 0.485763 0.855438 0.138947
H29   H     H_    0.757108 0.959017 0.087686 0.125905
H30   H     H_    0.885489 0.049026 0.230008 0.128452
H31   H     H_    0.628652 0.360395 0.018136 0.086114
H32   H     H_    0.160163 0.847015 0.165528 0.123900
H33   H     H_    0.808768 0.635576 0.371399 0.110366
H34   H     H_    0.081404 0.275325 0.146830 0.164806
H35   H     H_    0.827120 0.729963 0.940936 0.108152
H36   H     H_    0.396237 0.547617 0.894716 0.132498
H37   H     H_    0.463233 0.728782 0.940800 0.261348
H38   H     H_    0.512676 0.829927 0.884176 0.256288
H39   H     H_    0.614856 0.732769 0.866051 0.252265
H40   H     H_    0.602422 0.936778 0.011010 0.177500
H41   H     H_    0.565535 0.830026 0.059745 0.194114
H42   H     H_    0.887773 0.117391 0.967381 0.111428
H43   H     H_    0.356824 0.649320 0.820700 0.101838
H44   H     H_    0.086799 0.300430 0.619355 0.089639
H45   H     H_    0.434078 0.045079 0.028539 0.121054
H46   H     H_    0.385067 0.859637 0.211224 0.126932
N1    N     N_R   0.037320 0.720000 0.995830 -0.043780
N2    N     N_R   0.824900 0.517970 0.936430 -0.039035
N3    N     N_R   0.003190 0.648180 0.211390 -0.046889
N4    N     N_R   0.774330 0.457010 0.995830 -0.042833
N5    N     N_R   0.053760 0.709130 0.151980 -0.041384
N6    N     N_R   0.853840 0.498830 0.211390 -0.041312
N7    N     N_R   0.974250 0.667320 0.936430 -0.041044
N8    N     N_R   0.225670 0.542990 0.004170 -0.073266
N9    N     N_R   0.946240 0.290870 0.848020 -0.041619
N10   N     N_R   0.146160 0.501170 0.788610 -0.039814
N11   N     N_R   0.025750 0.332680 0.063570 -0.049115
N12   N     N_R   0.962680 0.280000 0.004170 -0.048640
N13   N     N_R   0.209230 0.553860 0.848010 -0.033143
N14   N     N_R   0.175100 0.482030 0.063570 -0.105003
N15   N     N_R   0.996810 0.351820 0.788610 -0.039509
N16   N     N_R   0.790770 0.446140 0.151990 -0.042964
Ni1   Ni    Ni4+2 0.130310 0.630310 0.000000 0.206897
Ni2   Ni    Ni4+2 0.869690 0.369690 0.000000 0.207426
Ni3   Ni    Ni4+2 0.985660 0.509480 0.863750 0.205782
Ni4   Ni    Ni4+2 0.014340 0.490520 0.136250 0.238332

loop_
_geom_bond_atom_site_label_1
_geom_bond_atom_site_label_2
_ccdc_geom_bond_type
N11   Ni4   S    
C25   C31   A    
C40   N4    A    
C59   N6    A    
N1    N7    A    
C6    C45   A    
N9    Ni2   S    
C27   C29   A    
C14   H3    S    
C19   C20   A    
C58   H30   S    
C49   H22   S    
C3    C6    A    
C40   H31   S    
C4    H2    S    
C17   H45   S    
C39   C41   A    
N1    Ni1   S    
C15   H4    S    
C26   C27   A    
C62   C63   S    
N10   Ni3   S    
N6    N16   A    
C7    C56   A    
C36   C37   A    
C37   C38   A    
C28   N3    A    
N3    N5    A    
C42   C53   S    
C30   C31   A    
C62   H40   S    
C10   C17   A    
C23   C40   A    
C37   F2    S    
C18   C19   A    
C41   C42   A    
C11   H46   S    
C9    C66   A    
C12   C59   A    
C29   H10   S    
C35   C36   A    
C26   H8    S    
C32   C38   A    
C4    C12   A    
C60   H35   S    
N6    Ni4   S    
C47   C53   A    
C2    N13   A    
C5    N15   A    
C28   C34   A    
C21   C22   A    
N9    N15   A    
C10   C62   S    
C65   H34   S    
C6    C54   S    
N3    Ni4   S    
C16   N2    A    
C44   C46   A    
C9    C65   A    
N7    Ni3   S    
C22   C34   S    
C3    F1    S    
C2    H43   S    
C59   H33   S    
C56   N9    A    
C8    C41   S    
C5    C7    A    
C3    N14   A    
C4    N16   A    
N2    Ni3   S    
C25   C26   A    
C64   N10   A    
C21   H6    S    
C52   H32   S    
C1    H1    S    
C66   N12   A    
C13   C24   S    
C28   H25   S    
C25   H7    S    
C65   N11   A    
N16   Ni2   S    
C43   C44   A    
C29   C30   A    
C45   H36   S    
N14   Ni4   S    
N5    Ni1   S    
C47   C48   A    
N12   Ni2   S    
C57   H29   S    
C16   H14   S    
C50   C51   A    
C66   H42   S    
C63   H38   S    
C57   C61   S    
C54   H27   S    
C8    C64   A    
C39   C46   A    
N15   Ni3   S    
C30   H11   S    
C50   H24   S    
C48   C49   A    
C16   C23   A    
C7    C19   S    
C48   H21   S    
N10   N13   A    
C38   H13   S    
N11   N12   A    
C36   H17   S    
C18   C24   A    
C63   H37   S    
C42   C43   A    
C63   H39   S    
N8    Ni1   S    
C15   C17   A    
C32   H15   S    
C54   C55   D    
C2    C8    A    
C55   H28   S    
C27   H9    S    
C1    C61   A    
C23   C55   S    
C5    H44   S    
C45   N8    A    
C18   H5    S    
C34   C52   A    
C56   H12   S    
C39   H18   S    
C43   H19   S    
C47   H20   S    
C12   C44   S    
C32   C33   A    
C11   C13   A    
C57   C58   D    
C62   H41   S    
C33   C35   A    
N2    N4    A    
C22   C24   A    
N8    N14   A    
C60   N7    A    
C33   H16   S    
N13   Ni1   S    
N4    Ni2   S    
C10   C11   A    
C51   H26   S    
C52   N5    A    
C20   C21   A    
C49   C50   A    
C14   C15   A    
C60   C61   A    
C1    N1    A    
C64   H23   S    
C51   C53   A    
C13   C14   A    
C35   C46   S    
C20   C31   S    
