data_str_m3_o40_o41_f0_fof.sym.228
_audit_creation_date              2012-12-10T16:38:00-0500
_audit_creation_method            fapswitch 2.2
_symmetry_space_group_name_H-M    P1
_symmetry_Int_Tables_number       1
_space_group_crystal_system       triclinic
_cell_length_a                    28.10777
_cell_length_b                    18.331724
_cell_length_c                    16.977866
_cell_angle_alpha                 89.813353
_cell_angle_beta                  60.984977
_cell_angle_gamma                 89.82652
_cell_volume                      7650.080794

loop_
_atom_site_label
_atom_site_type_symbol
_atom_type_description
_atom_site_fract_x
_atom_site_fract_y
_atom_site_fract_z
_atom_type_partial_charge
C1    C     C_R   0.700273 0.264722 0.677187 0.881205
C2    C     C_R   0.299711 0.735246 0.322816 0.918730
C3    C     C_R   0.294091 0.277216 0.326695 0.902575
C4    C     C_R   0.705911 0.722780 0.673302 0.902560
C5    C     C_R   0.200273 0.764722 0.677187 0.881204
C6    C     C_R   0.799711 0.235246 0.322816 0.918732
C7    C     C_R   0.794091 0.777216 0.326695 0.902580
C8    C     C_R   0.205911 0.222780 0.673302 0.902557
C9    C     C_R   0.905586 0.504773 0.480341 -0.060276
C10   C     C_R   0.094193 0.495380 0.518704 -0.093307
C11   C     C_R   0.405585 0.004774 0.480344 -0.060277
C12   C     C_R   0.594192 0.995381 0.518708 -0.093302
C13   C     C_R   0.065861 0.378298 0.596913 0.412171
C14   C     C_R   0.934928 0.619659 0.397950 0.408405
C15   C     C_R   0.872000 0.395012 0.571972 0.414785
C16   C     C_R   0.127720 0.606215 0.429082 0.403741
C17   C     C_R   0.565860 0.878298 0.596913 0.412148
C18   C     C_R   0.434927 0.119659 0.397952 0.408407
C19   C     C_R   0.371999 0.895013 0.571976 0.414787
C20   C     C_R   0.627719 0.106215 0.429085 0.403757
C21   C     C_R   0.723374 0.270298 0.950346 0.021143
C22   C     C_R   0.276577 0.729658 0.049694 0.020265
C23   C     C_R   0.278482 0.269876 0.046731 0.017804
C24   C     C_R   0.721521 0.730123 0.953267 0.017909
C25   C     C_R   0.223374 0.770298 0.950346 0.021142
C26   C     C_R   0.776577 0.229657 0.049694 0.020264
C27   C     C_R   0.778482 0.769875 0.046731 0.017804
C28   C     C_R   0.221520 0.230123 0.953267 0.017909
C29   C     C_R   0.755263 0.205983 0.926811 0.044776
C30   C     C_R   0.244666 0.793952 0.073253 0.047469
C31   C     C_R   0.222157 0.252664 0.095669 0.048794
C32   C     C_R   0.777845 0.747336 0.904329 0.048187
C33   C     C_R   0.255263 0.705983 0.926811 0.044775
C34   C     C_R   0.744666 0.293952 0.073253 0.047469
C35   C     C_R   0.722157 0.752664 0.095668 0.048795
C36   C     C_R   0.277845 0.247336 0.904330 0.048186
C37   C     C_R   0.781084 0.184809 0.977981 0.050051
C38   C     C_R   0.218867 0.815144 0.022059 0.050037
C39   C     C_R   0.193732 0.231373 0.048810 0.047561
C40   C     C_R   0.806271 0.768627 0.951188 0.047607
C41   C     C_R   0.281084 0.684809 0.977981 0.050050
C42   C     C_R   0.718867 0.315144 0.022059 0.050038
C43   C     C_R   0.693732 0.731373 0.048809 0.047561
C44   C     C_R   0.306271 0.268627 0.951188 0.047607
C45   C     C_R   0.660832 0.350943 0.928374 0.059678
C46   C     C_R   0.339167 0.649063 0.071610 0.064692
C47   C     C_R   0.361508 0.313850 0.047006 0.072822
C48   C     C_R   0.638496 0.686144 0.952990 0.072263
C49   C     C_R   0.160832 0.850943 0.928374 0.059678
C50   C     C_R   0.839167 0.149063 0.071610 0.064692
C51   C     C_R   0.861508 0.813850 0.047005 0.072822
C52   C     C_R   0.138496 0.186145 0.952991 0.072263
C53   C     C_R   0.626701 0.362096 0.889026 -0.135926
C54   C     C_R   0.373310 0.637934 0.110946 -0.131675
C55   C     C_R   0.386689 0.340531 0.096947 -0.144780
C56   C     C_R   0.613317 0.659459 0.903048 -0.143472
C57   C     C_R   0.126701 0.862096 0.889026 -0.135925
C58   C     C_R   0.873310 0.137934 0.110946 -0.131675
C59   C     C_R   0.886689 0.840531 0.096947 -0.144780
C60   C     C_R   0.113317 0.159460 0.903048 -0.143472
C61   C     C_R   0.636368 0.326025 0.811879 -0.310379
C62   C     C_R   0.363646 0.674017 0.188084 -0.301435
C63   C     C_R   0.364833 0.324158 0.186670 -0.284769
C64   C     C_R   0.635176 0.675822 0.813321 -0.280894
C65   C     C_R   0.136369 0.826025 0.811879 -0.310380
C66   C     C_R   0.863646 0.174017 0.188084 -0.301433
C67   C     C_R   0.864833 0.824158 0.186670 -0.284770
C68   C     C_R   0.135176 0.175823 0.813322 -0.280897
C69   C     C_R   0.677933 0.276448 0.774045 -0.121328
C70   C     C_R   0.322051 0.723548 0.225954 -0.111377
C71   C     C_R   0.313138 0.296339 0.233054 -0.119836
C72   C     C_R   0.686868 0.703651 0.766941 -0.121331
C73   C     C_R   0.177933 0.776448 0.774045 -0.121330
C74   C     C_R   0.822051 0.223548 0.225954 -0.111379
C75   C     C_R   0.813138 0.796338 0.233054 -0.119838
C76   C     C_R   0.186868 0.203651 0.766941 -0.121330
C77   C     C_R   0.703172 0.250617 0.824994 0.088273
C78   C     C_R   0.296786 0.749355 0.175034 0.090798
C79   C     C_R   0.281240 0.286590 0.188752 0.064452
C80   C     C_R   0.718764 0.713405 0.811245 0.061731
C81   C     C_R   0.203172 0.750617 0.824994 0.088275
C82   C     C_R   0.796786 0.249355 0.175034 0.090793
C83   C     C_R   0.781240 0.786590 0.188752 0.064453
C84   C     C_R   0.218764 0.213405 0.811245 0.061731
C85   C     C_R   0.696066 0.127074 0.519646 1.022905
C86   C     C_R   0.304132 0.872870 0.479519 0.953955
C87   C     C_R   0.309851 0.130255 0.460503 0.943436
C88   C     C_R   0.690123 0.869826 0.539242 0.946450
C89   C     C_R   0.196068 0.627074 0.519642 1.022901
C90   C     C_R   0.804133 0.372870 0.479519 0.953954
C91   C     C_R   0.809851 0.630255 0.460503 0.943435
C92   C     C_R   0.190123 0.369826 0.539241 0.946475
C93   C     C_R   0.695680 0.290234 0.901586 0.080111
C94   C     C_R   0.304292 0.709745 0.098429 0.087214
C95   C     C_R   0.307194 0.289292 0.093956 0.078413
C96   C     C_R   0.692809 0.710703 0.906041 0.078550
C97   C     C_R   0.195680 0.790234 0.901586 0.080112
C98   C     C_R   0.804292 0.209745 0.098429 0.087213
C99   C     C_R   0.807195 0.789292 0.093956 0.078414
C100  C     C_R   0.192809 0.210704 0.906041 0.078550
C101  C     C_R   0.661913 0.398810 0.992013 -0.182521
C102  C     C_R   0.338092 0.601193 0.007966 -0.178679
C103  C     C_R   0.388422 0.311868 0.952607 -0.190072
C104  C     C_R   0.611581 0.688129 0.047389 -0.189156
C105  C     C_R   0.161913 0.898810 0.992013 -0.182521
C106  C     C_R   0.838092 0.101193 0.007966 -0.178680
C107  C     C_R   0.888423 0.811868 0.952607 -0.190072
C108  C     C_R   0.111581 0.188129 0.047389 -0.189157
C109  C     C_R   0.689947 0.381292 0.037956 -0.214012
C110  C     C_R   0.310037 0.618686 0.962050 -0.213075
C111  C     C_R   0.361664 0.289751 0.905876 -0.213740
C112  C     C_R   0.638339 0.710248 0.094121 -0.214291
C113  C     C_R   0.189947 0.881293 0.037956 -0.214012
C114  C     C_R   0.810037 0.118686 0.962050 -0.213076
C115  C     C_R   0.861664 0.789751 0.905875 -0.213740
C116  C     C_R   0.138338 0.210249 0.094122 -0.214290
C117  C     C_R   0.735280 0.187372 0.802392 -0.155935
C118  C     C_R   0.264630 0.812559 0.197688 -0.189762
C119  C     C_R   0.224505 0.276754 0.235368 -0.180341
C120  C     C_R   0.775498 0.723247 0.764630 -0.182575
C121  C     C_R   0.235280 0.687372 0.802392 -0.155937
C122  C     C_R   0.764630 0.312559 0.197688 -0.189768
C123  C     C_R   0.724505 0.776753 0.235367 -0.180342
C124  C     C_R   0.275498 0.223247 0.764631 -0.182575
C125  C     C_R   0.760615 0.165553 0.851860 -0.214400
C126  C     C_R   0.239275 0.834353 0.148246 -0.219326
C127  C     C_R   0.195826 0.259844 0.190279 -0.215370
C128  C     C_R   0.804176 0.740159 0.809719 -0.214232
C129  C     C_R   0.260615 0.665554 0.851860 -0.214400
C130  C     C_R   0.739275 0.334353 0.148246 -0.219328
C131  C     C_R   0.695827 0.759843 0.190279 -0.215372
C132  C     C_R   0.304176 0.240159 0.809719 -0.214232
C133  C     C_R   0.070797 0.104204 0.937428 0.909545
C134  C     C_R   0.929205 0.895793 0.062570 0.910224
C135  C     C_R   0.920285 0.090932 0.071491 0.931617
C136  C     C_R   0.079724 0.909089 0.928497 0.930606
C137  C     C_R   0.570797 0.604204 0.937428 0.909545
C138  C     C_R   0.429205 0.395793 0.062570 0.910224
C139  C     C_R   0.420285 0.590932 0.071491 0.931617
C140  C     C_R   0.579724 0.409089 0.928497 0.930605
C141  C     C_R   0.580389 0.109412 0.418955 0.012911
C142  C     C_R   0.419749 0.891492 0.579460 0.071944
C143  C     C_R   0.483677 0.116312 0.404136 -0.007440
C144  C     C_R   0.516766 0.882621 0.592006 0.002290
C145  C     C_R   0.080391 0.609410 0.418951 0.012921
C146  C     C_R   0.919752 0.391489 0.579452 0.071941
C147  C     C_R   0.983678 0.616311 0.404132 -0.007437
C148  C     C_R   0.016768 0.382619 0.591998 0.002279
C149  C     C_R   0.572307 0.165173 0.369219 -0.192839
C150  C     C_R   0.426695 0.836441 0.630655 -0.150320
C151  C     C_R   0.524328 0.169717 0.364357 -0.199717
C152  C     C_R   0.474342 0.831898 0.636670 -0.239957
C153  C     C_R   0.072310 0.665169 0.369212 -0.192838
C154  C     C_R   0.926699 0.336435 0.630639 -0.150307
C155  C     C_R   0.024331 0.669715 0.364351 -0.199722
C156  C     C_R   0.974347 0.331892 0.636653 -0.239964
C157  C     C_R   0.491909 0.058334 0.451750 0.016840
C158  C     C_R   0.508821 0.940851 0.544326 0.015268
C159  C     C_R   0.539766 0.055333 0.460126 0.021371
C160  C     C_R   0.460808 0.944481 0.536764 -0.011396
C161  C     C_R   0.991910 0.558333 0.451747 0.016838
C162  C     C_R   0.008822 0.440850 0.544321 0.015276
C163  C     C_R   0.039767 0.555332 0.460123 0.021368
C164  C     C_R   0.960809 0.444480 0.536759 -0.011394
C165  C     C_R   0.952664 0.502805 0.490064 -0.038761
C166  C     C_R   0.047852 0.496784 0.506904 -0.036093
C167  C     C_R   0.452663 0.002806 0.490067 -0.038760
C168  C     C_R   0.547851 0.996785 0.506907 -0.036093
C169  C     C_R   0.868434 0.446315 0.511740 -0.139254
C170  C     C_R   0.131008 0.554169 0.488420 -0.050638
C171  C     C_R   0.104852 0.434775 0.559502 -0.011236
C172  C     C_R   0.894870 0.565168 0.439609 -0.012579
C173  C     C_R   0.368433 0.946316 0.511743 -0.139253
C174  C     C_R   0.631006 0.054170 0.488426 -0.050639
C175  C     C_R   0.604850 0.934775 0.559505 -0.011234
C176  C     C_R   0.394869 0.065168 0.439611 -0.012579
C177  C     C_R   0.831002 0.440650 0.477583 -0.179295
C178  C     C_R   0.168741 0.559431 0.522118 -0.147893
C179  C     C_R   0.154503 0.434271 0.563146 -0.187001
C180  C     C_R   0.845248 0.565736 0.436271 -0.198587
C181  C     C_R   0.331002 0.940650 0.477585 -0.179296
C182  C     C_R   0.668739 0.059432 0.522125 -0.147906
C183  C     C_R   0.654502 0.934272 0.563148 -0.187009
C184  C     C_R   0.345248 0.065736 0.436273 -0.198585
C185  C     C_R   0.822038 0.499943 0.434878 0.345676
C186  C     C_R   0.177581 0.500088 0.564862 0.314749
C187  C     C_R   0.322038 0.999943 0.434880 0.345675
C188  C     C_R   0.677580 0.000088 0.564866 0.314771
H1    H     H_    0.976753 0.288688 0.678044 0.160572
H2    H     H_    0.019659 0.716288 0.329445 0.154311
H3    H     H_    0.895482 0.295775 0.665631 0.196682
H4    H     H_    0.101811 0.707601 0.334997 0.142370
H5    H     H_    0.476747 0.788698 0.678069 0.160606
H6    H     H_    0.519656 0.216292 0.329454 0.154310
H7    H     H_    0.395475 0.795783 0.665654 0.196683
H8    H     H_    0.601806 0.207608 0.335008 0.142353
H9    H     H_    0.613294 0.339883 0.777948 0.194947
H10   H     H_    0.386736 0.660186 0.221998 0.191587
H11   H     H_    0.387035 0.337670 0.222061 0.199558
H12   H     H_    0.612978 0.662303 0.777926 0.198226
H13   H     H_    0.113294 0.839883 0.777948 0.194947
H14   H     H_    0.886736 0.160186 0.221998 0.191586
H15   H     H_    0.887035 0.837669 0.222061 0.199558
H16   H     H_    0.112978 0.162302 0.777926 0.198225
H17   H     H_    0.642690 0.451826 0.005325 0.177545
H18   H     H_    0.357334 0.548190 0.994630 0.177528
H19   H     H_    0.431153 0.325151 0.913491 0.164098
H20   H     H_    0.568850 0.674847 0.086505 0.164453
H21   H     H_    0.142690 0.951826 0.005325 0.177545
H22   H     H_    0.857334 0.048190 0.994630 0.177528
H23   H     H_    0.931153 0.825151 0.913491 0.164098
H24   H     H_    0.068850 0.174847 0.086505 0.164453
H25   H     H_    0.688587 0.421648 0.084934 0.141720
H26   H     H_    0.311416 0.578334 0.915054 0.141757
H27   H     H_    0.385708 0.291236 0.833617 0.139430
H28   H     H_    0.614294 0.708766 0.166380 0.139346
H29   H     H_    0.188587 0.921648 0.084934 0.141720
H30   H     H_    0.811416 0.078335 0.915054 0.141757
H31   H     H_    0.885708 0.791236 0.833617 0.139430
H32   H     H_    0.114294 0.208766 0.166380 0.139346
H33   H     H_    0.739528 0.152132 0.748402 0.175959
H34   H     H_    0.260358 0.847795 0.251694 0.179050
H35   H     H_    0.200643 0.285110 0.307129 0.175405
H36   H     H_    0.799359 0.714893 0.692870 0.176193
H37   H     H_    0.239528 0.652132 0.748402 0.175955
H38   H     H_    0.760358 0.347795 0.251694 0.179052
H39   H     H_    0.700644 0.785109 0.307128 0.175404
H40   H     H_    0.299359 0.214893 0.692870 0.176193
H41   H     H_    0.784898 0.116796 0.828329 0.141707
H42   H     H_    0.214946 0.883068 0.171827 0.142637
H43   H     H_    0.152530 0.254039 0.232130 0.139675
H44   H     H_    0.847471 0.745967 0.767868 0.140796
H45   H     H_    0.284898 0.616796 0.828329 0.141707
H46   H     H_    0.714945 0.383068 0.171828 0.142638
H47   H     H_    0.652531 0.754038 0.232130 0.139674
H48   H     H_    0.347471 0.245967 0.767868 0.140797
O1    O     O_R   0.746490 0.236330 0.638080 -0.609648
O2    O     O_R   0.253510 0.763670 0.361920 -0.629894
O3    O     O_R   0.253510 0.236330 0.361920 -0.651956
O4    O     O_R   0.746490 0.763670 0.638080 -0.650333
O5    O     O_R   0.246490 0.736330 0.638080 -0.609648
O6    O     O_R   0.753510 0.263670 0.361920 -0.629890
O7    O     O_R   0.753510 0.736330 0.361920 -0.651955
O8    O     O_R   0.246490 0.263670 0.638080 -0.650332
O9    O     O_R   0.674170 0.186160 0.516270 -0.637884
O10   O     O_R   0.325830 0.813840 0.483730 -0.609761
O11   O     O_R   0.325830 0.186160 0.483730 -0.590225
O12   O     O_R   0.674170 0.813840 0.516270 -0.612978
O13   O     O_R   0.174170 0.686160 0.516270 -0.637905
O14   O     O_R   0.825830 0.313840 0.483730 -0.609761
O15   O     O_R   0.825830 0.686160 0.483730 -0.590223
O16   O     O_R   0.174170 0.313840 0.516270 -0.612970
O17   O     O_R   0.739960 0.127620 0.525000 -0.571853
O18   O     O_R   0.260040 0.872380 0.475000 -0.569291
O19   O     O_R   0.260040 0.127620 0.475000 -0.615298
O20   O     O_R   0.739960 0.872380 0.525000 -0.609855
O21   O     O_R   0.239960 0.627620 0.525000 -0.571852
O22   O     O_R   0.760040 0.372380 0.475000 -0.569293
O23   O     O_R   0.760040 0.627620 0.475000 -0.615297
O24   O     O_R   0.239960 0.372380 0.525000 -0.609838
O25   O     O_R   0.680700 0.294870 0.629350 -0.637108
O26   O     O_R   0.319300 0.705130 0.370650 -0.632848
O27   O     O_R   0.319300 0.294870 0.370650 -0.604056
O28   O     O_R   0.680700 0.705130 0.629350 -0.613972
O29   O     O_R   0.180700 0.794870 0.629350 -0.637106
O30   O     O_R   0.819300 0.205130 0.370650 -0.632848
O31   O     O_R   0.819300 0.794870 0.370650 -0.604053
O32   O     O_R   0.180700 0.205130 0.629350 -0.613970
O33   O     O_R   0.062020 0.072840 0.007170 -0.636864
O34   O     O_R   0.937980 0.927160 0.992830 -0.636304
O35   O     O_R   0.937980 0.072840 0.992830 -0.629587
O36   O     O_R   0.062020 0.927160 0.007170 -0.629615
O37   O     O_R   0.562020 0.572840 0.007170 -0.636864
O38   O     O_R   0.437980 0.427160 0.992830 -0.636304
O39   O     O_R   0.437980 0.572840 0.992830 -0.629587
O40   O     O_R   0.562020 0.427160 0.007170 -0.629614
O41   O     O_R   0.947860 0.073950 0.109290 -0.625550
O42   O     O_R   0.052140 0.926050 0.890710 -0.626893
O43   O     O_R   0.052140 0.073950 0.890710 -0.612571
O44   O     O_R   0.947860 0.926050 0.109290 -0.611495
O45   O     O_R   0.447860 0.573950 0.109290 -0.625550
O46   O     O_R   0.552140 0.426050 0.890710 -0.626893
O47   O     O_R   0.552140 0.573950 0.890710 -0.612570
O48   O     O_R   0.447860 0.426050 0.109290 -0.611495
Zn1   Zn    Zn3+2 0.792340 0.208750 0.507670 1.010774
Zn2   Zn    Zn3+2 0.207660 0.791250 0.492330 0.970449
Zn3   Zn    Zn3+2 0.207660 0.208750 0.492330 0.964800
Zn4   Zn    Zn3+2 0.792340 0.791250 0.507670 0.995148
Zn5   Zn    Zn3+2 0.292340 0.708750 0.507670 1.010775
Zn6   Zn    Zn3+2 0.707660 0.291250 0.492330 0.970459
Zn7   Zn    Zn3+2 0.707660 0.708750 0.492330 0.964789
Zn8   Zn    Zn3+2 0.292340 0.291250 0.507670 0.995155
Zn9   Zn    Zn3+2 0.505960 0.500000 0.080520 0.932479
Zn10  Zn    Zn3+2 0.494040 0.500000 0.919480 0.930415
Zn11  Zn    Zn3+2 0.005960 1.000000 0.080520 0.932478
Zn12  Zn    Zn3+2 0.994040 1.000000 0.919480 0.930414
O49   O     O_3   0.788672 0.493780 0.396312 -0.738507
H49   H     H_    0.796683 0.534516 0.353050 0.336268
O50   O     O_3   0.210888 0.506186 0.603544 -0.740124
H50   H     H_    0.202731 0.465528 0.646957 0.338485
O51   O     O_3   0.288671 0.993780 0.396314 -0.738506
H51   H     H_    0.296683 0.034515 0.353052 0.336268
O52   O     O_3   0.710882 0.006191 0.603559 -0.740129
H52   H     H_    0.702735 0.965521 0.646955 0.338490
O53   O     O_3   0.073970 0.324202 0.645946 -0.755955
H53   H     H_    0.062165 0.277315 0.632329 0.325058
O54   O     O_3   0.927191 0.671513 0.345984 -0.762394
H54   H     H_    0.962079 0.678847 0.289992 0.321713
O55   O     O_3   0.828435 0.352066 0.629176 -0.755662
H55   H     H_    0.794451 0.377320 0.640577 0.322435
O56   O     O_3   0.173668 0.646184 0.374108 -0.756846
H56   H     H_    0.162779 0.696726 0.370123 0.338442
O57   O     O_3   0.573969 0.824198 0.645943 -0.755920
H57   H     H_    0.562180 0.777307 0.632292 0.325039
O58   O     O_3   0.427190 0.171512 0.345985 -0.762395
H58   H     H_    0.462080 0.178847 0.289995 0.321713
O59   O     O_3   0.328433 0.852067 0.629179 -0.755661
H59   H     H_    0.294449 0.877320 0.640578 0.322435
O60   O     O_3   0.673669 0.146182 0.374109 -0.756850
H60   H     H_    0.662783 0.196721 0.370102 0.338443

loop_
_geom_bond_atom_site_label_1
_geom_bond_atom_site_label_2
_ccdc_geom_bond_type
C154  H3    S    
O10   Zn5   S    
C5    O29   A    
C85   C182  S    
O34   Zn12  S    
C9    C169  A    
C34   C42   A    
C171  C179  A    
C181  C187  A    
O51   H51   S    
C90   O14   A    
C27   C99   A    
C119  H35   S    
C138  O38   A    
C12   C174  A    
C42   C109  A    
C111  H27   S    
C24   C96   A    
C149  H8    S    
C123  H39   S    
C8    O8    A    
O47   Zn10  S    
C106  H22   S    
O44   Zn11  S    
C121  H37   S    
C30   C38   A    
C92   O24   A    
O11   Zn8   S    
C147  C155  A    
C20   O60   S    
C143  C151  A    
C90   C177  S    
C128  H44   S    
C11   C167  A    
C82   C98   A    
C76   C84   A    
C73   C81   A    
C161  C163  A    
C162  C164  A    
O18   Zn2   S    
O7    Zn7   S    
C139  O45   A    
C84   C100  A    
C61   H9    S    
C37   C114  A    
C27   C35   A    
C10   C171  A    
C21   C29   A    
C81   C121  A    
C23   C31   A    
C24   C32   A    
O39   Zn10  S    
O52   H52   S    
O41   Zn11  S    
O42   Zn12  S    
O25   Zn6   S    
C135  O35   A    
C136  O36   A    
C132  H48   S    
C15   O55   S    
C63   C71   A    
C64   H12   S    
C36   C44   A    
C90   O22   A    
C175  C183  A    
C176  C184  A    
O3    Zn3   S    
O4    Zn4   S    
C140  O46   A    
C187  O51   S    
C87   O11   A    
C133  O43   A    
C148  C162  A    
C33   C41   A    
C183  C188  A    
O30   Zn1   S    
C108  C116  A    
C2    O26   A    
C21   C93   A    
C78   C94   A    
C23   C95   A    
O33   Zn11  S    
C67   H15   S    
O36   Zn11  S    
O5    Zn5   S    
C21   C42   A    
C22   C41   A    
C107  H23   S    
C51   C107  A    
C24   C43   A    
C82   C122  A    
C161  C165  A    
C17   C175  A    
C18   C176  A    
O24   Zn8   S    
C29   C125  A    
C118  H34   S    
C69   C77   A    
C14   O54   S    
C31   C127  A    
C45   C93   A    
C174  C182  A    
C71   C79   A    
O21   Zn5   S    
C179  C186  A    
C62   C70   A    
C11   C176  A    
C17   C144  A    
C151  H6    S    
C105  C113  A    
C18   C143  A    
C110  H26   S    
C103  H19   S    
C125  H41   S    
C149  C151  A    
C66   C74   A    
C48   C96   A    
C8    C76   S    
C155  H2    S    
C49   C57   A    
C124  C132  A    
C52   C60   A    
C59   C67   A    
C53   C61   A    
C141  C159  A    
C20   C174  A    
C55   C63   A    
C6    O30   A    
C86   C181  S    
C56   C64   A    
C116  H32   S    
C35   C43   A    
C10   C166  A    
C156  H1    S    
C16   O56   S    
C45   C53   A    
C120  H36   S    
C85   O9    A    
C22   C94   A    
C139  O39   A    
C114  H30   S    
C169  C177  A    
C108  H24   S    
C92   O16   A    
C50   C98   A    
C28   C36   A    
C104  C112  A    
C188  O52   S    
O37   Zn9   S    
C145  C163  A    
C1    O1    A    
C146  C164  A    
C14   C147  A    
C52   C100  A    
C16   C145  A    
C178  C186  A    
C136  O42   A    
C25   C38   A    
C88   O12   A    
C54   C139  S    
C46   C94   A    
C27   C40   A    
C4    O28   A    
C57   C65   A    
C91   C180  S    
C182  C188  A    
C89   C178  S    
C7    O31   A    
C102  H18   S    
C137  O47   A    
C25   C97   A    
O53   H53   S    
O13   Zn2   S    
C67   C75   A    
C29   C37   A    
C22   C30   A    
C20   C141  A    
C15   C146  A    
C58   C135  S    
C86   O18   A    
C59   C134  S    
O26   Zn5   S    
C134  O44   A    
C32   C128  A    
C186  O50   S    
C72   C80   A    
C56   C137  S    
O22   Zn6   S    
C112  H28   S    
C5    C73   S    
C150  H7    S    
C91   O23   A    
C66   H14   S    
C13   C171  A    
C138  O48   A    
C6    O6    A    
C117  C125  A    
C25   C33   A    
C119  C127  A    
O1    Zn1   S    
C157  C167  A    
C30   C126  A    
C158  C168  A    
C91   O15   A    
C89   O13   A    
C13   O53   S    
C164  C165  A    
C74   C82   A    
C120  C128  A    
O6    Zn6   S    
C40   C115  A    
C68   H16   S    
C101  C109  A    
C122  H38   S    
O19   Zn3   S    
C177  C185  A    
O20   Zn4   S    
C103  C111  A    
O27   Zn8   S    
O8    Zn8   S    
C162  C166  A    
C79   C119  A    
C153  C155  A    
C154  C156  A    
C172  C180  A    
C87   O19   A    
C173  C181  A    
O58   H58   S    
C157  C159  A    
C83   C99   A    
C158  C160  A    
C19   O59   S    
C6    C74   S    
C47   C103  A    
O54   H54   S    
C50   C58   A    
C163  C166  A    
C147  C161  A    
C38   C113  A    
O46   Zn10  S    
C49   C105  A    
C54   C62   A    
C28   C39   A    
C130  H46   S    
C1    C69   S    
C23   C44   A    
O28   Zn7   S    
C3    C71   S    
O50   H50   S    
C19   C173  A    
C79   C95   A    
C92   C179  S    
C46   C54   A    
C4    O4    A    
C45   C101  A    
C19   C142  A    
O32   Zn3   S    
C102  C110  A    
C134  O34   A    
O15   Zn4   S    
C105  H21   S    
O16   Zn3   S    
C35   C131  A    
C4    C72   S    
C33   C129  A    
O12   Zn7   S    
C123  C131  A    
C135  O41   A    
C121  C129  A    
C184  C187  A    
C26   C37   A    
O9    Zn6   S    
C10   C170  A    
C109  H25   S    
C131  H47   S    
C142  C150  A    
C9    C165  A    
O38   Zn10  S    
O40   Zn9   S    
C75   C83   A    
O57   H57   S    
C77   C93   A    
O14   Zn1   S    
C185  O49   S    
C104  H20   S    
C49   C97   A    
O60   H60   S    
C44   C111  A    
C16   C170  A    
C60   C68   A    
C144  C152  A    
C39   C116  A    
C17   O57   S    
C50   C106  A    
C9    C172  A    
C148  C156  A    
C83   C123  A    
C2    C70   S    
C60   C133  S    
C3    O3    A    
C170  C178  A    
O56   H56   S    
C80   C120  A    
C70   C78   A    
C53   C140  S    
O49   H49   S    
C117  H33   S    
C8    O32   A    
C141  C149  A    
C88   O20   A    
O55   H55   S    
C46   C102  A    
C55   C138  S    
C152  H5    S    
C106  C114  A    
C126  H42   S    
C77   C117  A    
O17   Zn1   S    
O43   Zn12  S    
C48   C104  A    
C65   C73   A    
C159  C168  A    
C15   C169  A    
C160  C167  A    
C26   C34   A    
C63   H11   S    
C146  C154  A    
C57   C136  S    
C80   C96   A    
O2    Zn2   S    
O45   Zn9   S    
C28   C100  A    
C32   C40   A    
C52   C108  A    
C86   O10   A    
C115  H31   S    
C113  H29   S    
C124  H40   S    
C58   C66   A    
C143  C157  A    
C51   C99   A    
C11   C173  A    
C18   O58   S    
C89   O21   A    
C62   H10   S    
C14   C172  A    
C87   C184  S    
C2    O2    A    
C88   C183  S    
C7    C75   S    
C129  H45   S    
C133  O33   A    
O23   Zn7   S    
C127  H43   S    
C68   C76   A    
C107  C115  A    
C36   C132  A    
C101  H17   S    
O29   Zn2   S    
C26   C98   A    
C12   C175  A    
C1    O25   A    
C78   C118  A    
O31   Zn4   S    
C3    O27   A    
C41   C110  A    
C150  C152  A    
C51   C59   A    
C43   C112  A    
C144  C158  A    
C47   C55   A    
C61   C69   A    
C48   C56   A    
C142  C160  A    
C12   C168  A    
C84   C124  A    
C85   O17   A    
C140  O40   A    
C145  C153  A    
C81   C97   A    
O48   Zn9   S    
C137  O37   A    
C31   C39   A    
C64   C72   A    
O59   H59   S    
O35   Zn12  S    
C180  C185  A    
C65   H13   S    
C34   C130  A    
C7    O7    A    
C47   C95   A    
C118  C126  A    
C13   C148  A    
C5    O5    A    
C122  C130  A    
C153  H4    S    
