data_str_m9_o18_o19_f0_sra.sym.10
_audit_creation_date              2012-12-11T15:27:34-0500
_audit_creation_method            fapswitch 2.2
_symmetry_space_group_name_H-M    P1
_symmetry_Int_Tables_number       1
_space_group_crystal_system       triclinic
_cell_length_a                    23.205702
_cell_length_b                    7.299635
_cell_length_c                    15.125583
_cell_angle_alpha                 89.691315
_cell_angle_beta                  108.134225
_cell_angle_gamma                 90.298656
_cell_volume                      2434.85499014

loop_
_atom_site_label
_atom_site_type_symbol
_atom_type_description
_atom_site_fract_x
_atom_site_fract_y
_atom_site_fract_z
_atom_type_partial_charge
O1    O     O_R   0.711000 0.648610 0.341170 -0.536850
O2    O     O_R   0.289000 0.351390 0.658830 -0.532676
O3    O     O_R   0.789000 0.148610 0.158830 -0.536225
O4    O     O_R   0.211000 0.851390 0.841170 -0.532781
O5    O     O_R   0.829650 0.322030 0.336650 -0.537060
O6    O     O_R   0.170350 0.677970 0.663350 -0.535848
O7    O     O_R   0.670350 0.822030 0.163350 -0.537638
O8    O     O_R   0.329650 0.177970 0.836650 -0.536615
C1    C     C_R   0.854263 0.485922 0.356834 0.721016
C2    C     C_R   0.145734 0.514075 0.643172 0.722942
C3    C     C_R   0.645737 0.985695 0.143179 0.721565
C4    C     C_R   0.354267 0.014306 0.856809 0.723417
O9    O     O_R   0.713950 0.319280 0.352070 -0.539393
O10   O     O_R   0.286050 0.680720 0.647930 -0.540633
O11   O     O_R   0.786050 0.819280 0.147930 -0.539739
O12   O     O_R   0.213950 0.180720 0.852070 -0.541831
O13   O     O_R   0.672470 0.142870 0.174360 -0.532737
O14   O     O_R   0.327530 0.857130 0.825640 -0.534171
O15   O     O_R   0.827530 0.642870 0.325640 -0.533600
O16   O     O_R   0.172470 0.357130 0.674360 -0.534234
C5    C     C_R   0.702065 0.486904 0.376340 0.700923
C6    C     C_R   0.298109 0.513154 0.623859 0.698436
C7    C     C_R   0.797939 0.988193 0.123766 0.700540
C8    C     C_R   0.201917 0.011885 0.876084 0.701220
O17   O     O_3   0.736530 0.478650 0.191680 -0.378694
O18   O     O_3   0.263470 0.521350 0.808320 -0.379762
O19   O     O_3   0.763470 0.978650 0.308320 -0.378960
O20   O     O_3   0.236530 0.021350 0.691680 -0.378547
V1    V     V_3+5 0.752500 0.206170 0.260820 1.421001
V2    V     V_3+5 0.247500 0.793830 0.739180 1.433801
V3    V     V_3+5 0.747500 0.706170 0.239180 1.420604
V4    V     V_3+5 0.252500 0.293830 0.760820 1.432711
C9    C     C_R   0.826149 0.999982 0.049975 -0.037897
C10   C     C_R   0.172607 0.001321 0.948635 -0.060567
C11   C     C_R   0.674167 0.492360 0.450689 -0.039476
C12   C     C_R   0.327324 0.508631 0.551033 -0.060282
C13   C     C_R   0.821071 0.033712 0.888831 -0.147975
C14   C     C_R   0.175761 0.972511 0.109112 -0.144238
C15   C     C_R   0.678542 0.448892 0.611071 -0.148116
C16   C     C_R   0.324996 0.556140 0.391857 -0.143421
C17   C     C_R   0.791459 0.026892 0.956467 0.157366
C18   C     C_R   0.206091 0.971027 0.042369 0.155957
C19   C     C_R   0.708619 0.465222 0.544322 0.156494
C20   C     C_R   0.293824 0.532821 0.456799 0.155760
C21   C     C_R   0.889264 0.990115 0.075002 -0.263999
C22   C     C_R   0.109716 0.021812 0.922333 -0.198680
C23   C     C_R   0.611294 0.512227 0.425981 -0.261714
C24   C     C_R   0.390543 0.497694 0.578183 -0.195861
C25   C     C_R   0.920099 0.017983 0.009142 0.082242
C26   C     C_R   0.077691 0.002922 0.987372 0.094705
C27   C     C_R   0.580883 0.511887 0.493471 0.081768
C28   C     C_R   0.422438 0.505759 0.512513 0.095070
C29   C     C_R   0.884588 0.023839 0.914381 0.072496
C30   C     C_R   0.112524 0.993744 0.082485 0.024865
C31   C     C_R   0.615169 0.464354 0.585534 0.072122
C32   C     C_R   0.388625 0.550377 0.419729 0.025604
C33   C     C_R   0.984849 0.026301 0.033752 -0.032928
C34   C     C_R   0.012771 0.003587 0.962008 0.031758
C35   C     C_R   0.516876 0.540210 0.470837 -0.032363
C36   C     C_R   0.486945 0.485220 0.536904 0.031673
C37   C     C_R   0.974521 0.977859 0.868556 0.195835
C38   C     C_R   0.023131 0.056506 0.127010 0.199878
C39   C     C_R   0.522687 0.408757 0.623613 0.195467
C40   C     C_R   0.481244 0.620510 0.384808 0.200151
C41   C     C_R   0.912151 0.004864 0.845612 -0.243603
C42   C     C_R   0.084921 0.022007 0.150617 -0.164374
C43   C     C_R   0.585798 0.415489 0.649385 -0.243992
C44   C     C_R   0.418396 0.607176 0.357560 -0.163398
H1    H     H_    0.884431 0.993967 0.773356 0.128204
H2    H     H_    0.112593 0.035324 0.222786 0.140210
H3    H     H_    0.611931 0.364432 0.717506 0.127408
H4    H     H_    0.392379 0.660293 0.289817 0.138448
H5    H     H_    0.087555 0.062142 0.851310 0.153299
H6    H     H_    0.913182 0.954075 0.145989 0.121486
H7    H     H_    0.413748 0.498874 0.651912 0.150450
H8    H     H_    0.586628 0.514958 0.352826 0.121095
H9    H     H_    0.794547 0.043328 0.815937 0.116473
H10   H     H_    0.201600 0.960821 0.182228 0.117514
H11   H     H_    0.704322 0.417004 0.682536 0.116803
H12   H     H_    0.299738 0.586166 0.319941 0.116731
C45   C     C_1   0.416761 0.007238 0.918761 -0.184125
C46   C     C_1   0.583252 0.992767 0.081197 -0.187588
C47   C     C_1   0.083245 0.506679 0.581228 -0.182605
C48   C     C_1   0.916747 0.493307 0.418796 -0.188370
C49   C     C_1   0.469147 0.002535 0.969953 0.006225
C50   C     C_1   0.530871 0.997474 0.029987 0.005833
C51   C     C_1   0.030856 0.502247 0.530034 0.008618
C52   C     C_1   0.969132 0.497729 0.470003 0.007009
C53   C     C_3   0.273845 0.945954 0.071992 -0.792934
H13   H     H_    0.293091 0.925288 0.148364 0.208421
H14   H     H_    0.285079 0.824096 0.036988 0.209325
H15   H     H_    0.295590 0.068978 0.052487 0.201470
C54   C     C_3   0.723380 0.041097 0.928132 -0.807918
H16   H     H_    0.703191 0.060464 0.851815 0.206719
H17   H     H_    0.704077 0.914014 0.948394 0.203347
H18   H     H_    0.710405 0.159859 0.963322 0.207982
C55   C     C_3   0.225604 0.543070 0.425877 -0.791142
H19   H     H_    0.206452 0.560213 0.349274 0.211147
H20   H     H_    0.206710 0.414998 0.445891 0.204147
H21   H     H_    0.211013 0.661316 0.459473 0.207069
C56   C     C_3   0.776565 0.445710 0.572815 -0.806965
H22   H     H_    0.796573 0.427595 0.649238 0.208792
H23   H     H_    0.788701 0.324585 0.538303 0.210021
H24   H     H_    0.796850 0.570399 0.552045 0.200600
N1    N     N_3   0.996938 0.906687 0.797459 -0.689188
H25   H     H_    0.975320 0.781558 0.774989 0.239391
H26   H     H_    0.985051 0.997529 0.740994 0.224137
N2    N     N_3   0.003782 0.150246 0.196075 -0.676034
H27   H     H_    0.996365 0.055877 0.243623 0.225581
H28   H     H_    0.965969 0.232622 0.166211 0.243682
N3    N     N_3   0.496199 0.306849 0.682536 -0.686357
H29   H     H_    0.512187 0.172284 0.687438 0.240248
H30   H     H_    0.511069 0.364032 0.749123 0.223260
N4    N     N_3   0.505547 0.742642 0.330447 -0.675071
H31   H     H_    0.509564 0.674363 0.272119 0.225269
H32   H     H_    0.546454 0.801913 0.370018 0.245374

loop_
_geom_bond_atom_site_label_1
_geom_bond_atom_site_label_2
_ccdc_geom_bond_type
O17   V3    S    
C47   C51   T    
C51   C52   S    
O1    C5    A    
C56   H22   S    
O19   V1    S    
C9    C21   A    
O3    C7    A    
N3    H29   S    
C10   C18   A    
O15   V3    S    
C55   H19   S    
C25   C33   A    
C33   C38   A    
C49   C50   S    
O7    C3    A    
N1    H26   S    
C35   C40   A    
C26   C30   A    
C36   C39   A    
C40   C44   A    
O9    V1    S    
C23   H8    S    
C14   C18   A    
O4    C8    A    
C25   C29   A    
C38   N2    S    
C2    C47   S    
O1    V3    S    
O13   V1    S    
N2    H27   S    
O2    V4    S    
O3    V1    S    
C54   H17   S    
C28   C36   A    
C1    O15   A    
C15   C31   A    
C2    O16   A    
C16   C32   A    
O2    C6    A    
C16   H12   S    
C10   C22   A    
C53   H14   S    
C11   C19   A    
C16   C20   A    
C43   H3    S    
C44   H4    S    
C13   C29   A    
C34   C37   A    
O11   C7    A    
C11   C23   A    
C35   C36   A    
O12   C8    A    
C39   N3    S    
C24   H7    S    
O10   V2    S    
C55   H20   S    
N4    H31   S    
O5    V1    S    
C3    C46   S    
C15   C19   A    
C39   C43   A    
C37   N1    S    
O7    V3    S    
C38   C42   A    
O8    V4    S    
C40   N4    S    
O18   V4    S    
C23   C27   A    
C14   H10   S    
C7    C9    S    
C46   C50   T    
C13   H9    S    
C8    C10   S    
C21   H6    S    
C26   C34   A    
C19   C56   S    
O5    C1    A    
C20   C55   S    
C31   C43   A    
C14   C30   A    
C21   C25   A    
O8    C4    A    
O9    C5    A    
N3    H30   S    
C54   H16   S    
C53   H15   S    
O14   V2    S    
O6    V2    S    
C54   H18   S    
C12   C20   A    
C27   C35   A    
C55   H21   S    
C29   C41   A    
O16   V4    S    
C3    O13   A    
C48   C52   T    
O6    C2    A    
N4    H32   S    
O11   V3    S    
C5    C11   S    
O12   V4    S    
C6    C12   S    
N1    H25   S    
C22   C26   A    
C18   C53   S    
C17   C54   S    
O10   C6    A    
O20   V2    S    
C9    C17   A    
C32   C44   A    
C33   C34   A    
C42   H2    S    
C41   H1    S    
N2    H28   S    
C4    C45   S    
C12   C24   A    
C27   C31   A    
C13   C17   A    
C45   C49   T    
C1    C48   S    
C37   C41   A    
C24   C28   A    
C56   H23   S    
C4    O14   A    
C56   H24   S    
C53   H13   S    
C30   C42   A    
C22   H5    S    
O4    V2    S    
C28   C32   A    
C15   H11   S    
