data_str_m9_o11_o18_f0_sra.sym.69
_audit_creation_date              2012-12-11T14:21:19-0500
_audit_creation_method            fapswitch 2.2
_symmetry_space_group_name_H-M    P1
_symmetry_Int_Tables_number       1
_space_group_crystal_system       triclinic
_cell_length_a                    21.947174
_cell_length_b                    7.207446
_cell_length_c                    14.914344
_cell_angle_alpha                 90.000028
_cell_angle_beta                  106.874292
_cell_angle_gamma                 90.0
_cell_volume                      2257.61898534

loop_
_atom_site_label
_atom_site_type_symbol
_atom_type_description
_atom_site_fract_x
_atom_site_fract_y
_atom_site_fract_z
_atom_type_partial_charge
O1    O     O_R   0.584770 0.505770 0.002090 -0.545238
O2    O     O_R   0.415230 0.005770 0.997910 -0.545237
O3    O     O_R   0.467060 0.173340 0.861950 -0.531454
O4    O     O_R   0.532940 0.673340 0.138050 -0.531454
C1    C     C_R   0.455330 0.344226 0.825960 0.751506
C2    C     C_R   0.544670 0.844226 0.174040 0.751506
O5    O     O_R   0.587510 0.175890 0.993210 -0.538692
O6    O     O_R   0.412490 0.675890 0.006790 -0.538693
O7    O     O_R   0.536540 0.008150 0.130100 -0.539342
O8    O     O_R   0.463460 0.508150 0.869900 -0.539342
C3    C     C_R   0.612931 0.344932 0.997257 0.760404
C4    C     C_R   0.387069 0.844932 0.002743 0.760405
O9    O     O_3   0.483140 0.340040 0.044760 -0.379015
O10   O     O_3   0.516860 0.840040 0.955240 -0.379016
V1    V     V_3+5 0.503130 0.064190 0.991700 1.492353
V2    V     V_3+5 0.496870 0.564190 0.008300 1.492353
C5    C     C_2   0.214295 0.727731 0.005052 -0.075282
C6    C     C_2   0.785705 0.227731 0.994948 -0.075282
C7    C     C_2   0.180427 0.886695 0.996718 -0.277779
C8    C     C_2   0.819573 0.386696 0.003282 -0.277779
H1    H     H_    0.191342 0.597128 0.011791 0.160213
H2    H     H_    0.808658 0.097128 0.988209 0.160213
H3    H     H_    0.201872 0.018749 0.989033 0.125996
H4    H     H_    0.798128 0.518749 0.010967 0.125996
C9    C     C_2   0.282178 0.714633 0.004765 -0.109256
C10   C     C_2   0.717821 0.214633 0.995235 -0.109256
C11   C     C_2   0.320031 0.861441 0.004023 -0.260914
C12   C     C_2   0.679969 0.361441 0.995977 -0.260915
H5    H     H_    0.301487 0.575653 0.005812 0.139919
H6    H     H_    0.698513 0.075653 0.994188 0.139919
H7    H     H_    0.302022 0.001272 0.004087 0.129367
H8    H     H_    0.697978 0.501272 0.995913 0.129367
C13   C     C_R   0.925499 0.884032 0.724177 -0.156187
C14   C     C_R   0.074501 0.384032 0.275823 -0.156187
C15   C     C_R   0.572264 0.850315 0.275799 -0.106415
C16   C     C_R   0.427736 0.350314 0.724201 -0.106416
C17   C     C_R   0.936903 0.826900 0.570120 0.478658
C18   C     C_R   0.063097 0.326901 0.429880 0.478659
C19   C     C_R   0.963290 0.837782 0.666837 -0.244085
C20   C     C_R   0.036710 0.337784 0.333163 -0.244085
C21   C     C_R   0.859720 0.912276 0.685505 0.306545
C22   C     C_R   0.140280 0.412275 0.314494 0.306545
C23   C     C_R   0.830316 0.871414 0.589137 -0.034688
C24   C     C_R   0.169684 0.371414 0.410863 -0.034689
C25   C     C_R   0.870428 0.845794 0.530331 0.000745
C26   C     C_R   0.129573 0.345795 0.469669 0.000745
C27   C     C_R   0.762920 0.855270 0.548803 0.091488
C28   C     C_R   0.237080 0.355269 0.451196 0.091489
C29   C     C_R   0.736151 0.858039 0.449445 0.074894
C30   C     C_R   0.263849 0.358039 0.550555 0.074893
C31   C     C_R   0.778002 0.853442 0.393354 -0.196399
C32   C     C_R   0.221998 0.353444 0.606645 -0.196399
C33   C     C_R   0.843396 0.840013 0.433088 -0.086767
C34   C     C_R   0.156604 0.340014 0.566912 -0.086767
C35   C     C_R   0.722243 0.816592 0.604287 -0.081991
C36   C     C_R   0.277757 0.316589 0.395713 -0.081991
C37   C     C_R   0.656727 0.806179 0.565649 -0.131333
C38   C     C_R   0.343272 0.306175 0.434351 -0.131333
C39   C     C_R   0.629289 0.827143 0.469519 0.052192
C40   C     C_R   0.370711 0.327139 0.530481 0.052192
C41   C     C_R   0.668482 0.853298 0.409761 0.090661
C42   C     C_R   0.331518 0.353297 0.590239 0.090661
C43   C     C_R   0.562910 0.813974 0.432316 -0.166648
C44   C     C_R   0.437090 0.313969 0.567684 -0.166648
C45   C     C_R   0.534391 0.823015 0.335872 0.368183
C46   C     C_R   0.465609 0.323011 0.664128 0.368183
C47   C     C_R   0.638282 0.869167 0.312457 -0.273001
C48   C     C_R   0.361718 0.369168 0.687542 -0.273002
H9    H     H_    0.872657 0.826787 0.386213 0.181203
H10   H     H_    0.127342 0.326790 0.613787 0.181203
H11   H     H_    0.664641 0.894056 0.262877 0.111552
H12   H     H_    0.335359 0.394059 0.737122 0.111552
H13   H     H_    0.014002 0.816437 0.697297 0.156506
H14   H     H_    0.985998 0.316439 0.302703 0.156505
H15   H     H_    0.740598 0.781543 0.677488 0.186549
H16   H     H_    0.259402 0.281538 0.322512 0.186549
O11   O     O_R   0.036450 0.233070 0.130130 -0.543549
O12   O     O_R   0.963550 0.733070 0.869870 -0.543549
O13   O     O_R   0.912470 0.560570 0.006790 -0.547699
O14   O     O_R   0.087530 0.060570 0.993210 -0.547698
C49   C     C_R   0.886947 0.391929 0.002393 0.745830
C50   C     C_R   0.113053 0.891929 0.997607 0.745829
O15   O     O_R   0.032920 0.562940 0.138050 -0.519067
O16   O     O_R   0.967080 0.062940 0.861950 -0.519067
O17   O     O_R   0.084790 0.730500 0.002090 -0.530916
O18   O     O_R   0.915210 0.230500 0.997910 -0.530916
C51   C     C_R   0.045222 0.394356 0.174428 0.778880
C52   C     C_R   0.954778 0.894355 0.825572 0.778879
O19   O     O_3   0.016820 0.396170 0.955260 -0.383231
O20   O     O_3   0.983180 0.896170 0.044740 -0.383231
V3    V     V_3+5 0.996880 0.672090 0.008300 1.516048
V4    V     V_3+5 0.003120 0.172090 0.991700 1.516049
Cl1   Cl    Cl    0.819295 0.032133 0.755380 -0.661161
Cl2   Cl    Cl    0.180706 0.532129 0.244620 -0.661162
H17   H     H_    0.761641 0.847786 0.317999 0.118953
H18   H     H_    0.238359 0.347789 0.682001 0.118953
H19   H     H_    0.533208 0.792538 0.478189 0.165120
H20   H     H_    0.466792 0.292530 0.521811 0.165120
Cl3   Cl    Cl    0.451134 0.798646 0.292188 -0.646117
Cl4   Cl    Cl    0.548866 0.298640 0.707812 -0.646117
H21   H     H_    0.627393 0.777228 0.611288 0.165177
H22   H     H_    0.372607 0.277221 0.388712 0.165177
Cl5   Cl    Cl    0.989123 0.782669 0.502212 -0.582712
Cl6   Cl    Cl    0.010877 0.282671 0.497788 -0.582712

loop_
_geom_bond_atom_site_label_1
_geom_bond_atom_site_label_2
_ccdc_geom_bond_type
O15   C51   A    
C43   C45   A    
O11   V4    S    
O4    V2    S    
C36   H16   S    
C14   C22   A    
O2    C4    A    
C2    O7    A    
O17   V3    S    
C27   C29   A    
O5    C3    A    
C13   C19   A    
C14   C20   A    
C13   C52   S    
C28   C30   A    
C20   H14   S    
C16   C46   A    
C37   C39   A    
C47   H11   S    
C15   C45   A    
C38   C40   A    
C1    C16   S    
C2    C15   S    
C40   C42   A    
C46   Cl4   S    
C18   Cl6   S    
C21   Cl1   S    
C8    H4    S    
C32   C34   A    
C29   C31   A    
C6    C10   S    
C30   C32   A    
C38   H22   S    
C7    C50   S    
O13   V3    S    
C49   O18   A    
C48   H12   S    
C35   H15   S    
C44   H20   S    
C33   H9    S    
C37   H21   S    
O6    V2    S    
C6    H2    S    
C8    C49   S    
C21   C23   A    
C22   C24   A    
C24   C26   A    
C9    H5    S    
C39   C41   A    
C29   C41   A    
C4    C11   S    
C11   H7    S    
C12   H8    S    
C45   Cl3   S    
O14   C50   A    
C17   Cl5   S    
C5    H1    S    
C31   C33   A    
C44   C46   A    
O14   V4    S    
C7    H3    S    
C41   C47   A    
C34   H10   S    
C15   C47   A    
O6    C4    A    
C26   C34   A    
C16   C48   A    
O1    V2    S    
O19   V4    S    
O2    V1    S    
C23   C25   A    
O4    C2    A    
C10   H6    S    
C35   C37   A    
C30   C42   A    
C17   C25   A    
O3    V1    S    
C27   C35   A    
O12   C52   A    
C28   C36   A    
C22   Cl2   S    
C10   C12   D    
O16   C52   A    
O3    C1    A    
O13   C49   A    
O12   V3    S    
C9    C11   D    
C50   O17   A    
O15   V3    S    
C39   C43   A    
C42   C48   A    
C40   C44   A    
C13   C21   A    
O7    V1    S    
C5    C9    S    
C1    O8    A    
C17   C19   A    
O8    V2    S    
C18   C20   A    
O20   V3    S    
C3    C12   S    
O5    V1    S    
C5    C7    D    
C36   C38   A    
C32   H18   S    
C6    C8    D    
C14   C51   S    
C19   H13   S    
C18   C26   A    
C25   C33   A    
O11   C51   A    
C43   H19   S    
O9    V2    S    
O10   V1    S    
O18   V4    S    
O1    C3    A    
O16   V4    S    
C23   C27   A    
C24   C28   A    
C31   H17   S    
