data_str_m9_o2_o25_f0_sra.sym.42
_audit_creation_date              2012-12-11T16:33:24-0500
_audit_creation_method            fapswitch 2.2
_symmetry_space_group_name_H-M    P1
_symmetry_Int_Tables_number       1
_space_group_crystal_system       triclinic
_cell_length_a                    6.944956
_cell_length_b                    18.253072
_cell_length_c                    20.142881
_cell_angle_alpha                 68.378075
_cell_angle_beta                  90.386346
_cell_angle_gamma                 91.037517
_cell_volume                      2373.38704406

loop_
_atom_site_label
_atom_site_type_symbol
_atom_type_description
_atom_site_fract_x
_atom_site_fract_y
_atom_site_fract_z
_atom_type_partial_charge
O1    O     O_R   0.488960 0.443750 0.941980 -0.520262
O2    O     O_R   0.823890 0.406510 0.087590 -0.539792
O3    O     O_R   0.999680 0.556250 0.058020 -0.540520
C1    C     C_R   0.654644 0.383610 0.115106 0.688783
O4    O     O_R   0.818360 0.434410 0.944340 -0.549570
O5    O     O_R   0.994110 0.584350 0.913750 -0.544020
C2    C     C_R   0.648748 0.420750 0.923548 0.743591
O6    O     O_R   0.494530 0.415650 0.086250 -0.538075
O7    O     O_3   0.662590 0.549160 0.990130 -0.368703
V1    V     V_3+5 0.935320 0.490880 0.001830 1.424790
O8    O     O_R   0.324180 0.593490 0.912410 -0.522862
C3    C     C_R   0.156615 0.614926 0.883899 0.801313
O9    O     O_R   0.329720 0.565590 0.055660 -0.538039
C4    C     C_R   0.162205 0.579446 0.076389 0.709359
V2    V     V_3+5 0.435990 0.509120 0.998170 1.467729
O10   O     O_3   0.158850 0.450840 0.009870 -0.372493
C5    C     C_3   0.054650 0.701267 0.315760 -0.311718
C6    C     C_3   0.241468 0.683055 0.282963 0.447649
H1    H     H_    0.985715 0.665011 0.367260 0.128902
C7    C     C_1   0.156404 0.624527 0.122470 -0.185419
C8    C     C_1   0.110522 0.873371 0.379366 -0.186710
C9    C     C_3   0.957053 0.725038 0.241061 -0.138884
C10   C     C_3   0.144532 0.706696 0.209534 0.031773
C11   C     C_3   0.029328 0.811543 0.221862 -0.144631
C12   C     C_3   0.127469 0.787710 0.295612 0.035096
C13   C     C_3   0.216885 0.792648 0.189944 -0.251551
C14   C     C_3   0.312396 0.768418 0.264229 0.465384
C15   C     C_1   0.151400 0.661654 0.161582 0.016134
C16   C     C_1   0.117429 0.834484 0.341899 -0.027303
H2    H     H_    0.284750 0.830124 0.138626 0.138992
H3    H     H_    0.940559 0.864673 0.196738 0.152266
H4    H     H_    0.809650 0.707104 0.230807 0.174395
H5    H     H_    0.278743 0.537412 0.674755 0.142632
C17   C     C_R   0.134592 0.769745 0.883246 -0.143038
C18   C     C_R   0.123854 0.843212 0.887705 -0.161819
C19   C     C_R   0.108053 0.909414 0.826441 -0.094723
C20   C     C_R   0.101550 0.903991 0.758680 0.131653
C21   C     C_R   0.115998 0.827873 0.751965 0.046962
C22   C     C_R   0.132502 0.760131 0.816599 0.034599
C23   C     C_R   0.112203 0.815946 0.685082 -0.152041
C24   C     C_R   0.125873 0.737953 0.684163 -0.123614
C25   C     C_R   0.163525 0.672840 0.748740 -0.073675
C26   C     C_R   0.151490 0.683565 0.815074 -0.136460
C27   C     C_R   0.104907 0.722612 0.619659 0.416762
C28   C     C_R   0.169908 0.651879 0.616002 0.086632
C29   C     C_R   0.226208 0.591441 0.678042 -0.280589
C30   C     C_R   0.211092 0.598466 0.744837 0.406781
H6    H     H_    0.147420 0.720470 0.933389 0.090797
H7    H     H_    0.127320 0.848855 0.939374 0.121696
H8    H     H_    0.098349 0.965831 0.832484 0.118105
C31   C     C_R   0.481335 0.103609 0.253158 -0.156807
C32   C     C_R   0.418162 0.094799 0.190401 0.200860
C33   C     C_R   0.430086 0.158954 0.125718 -0.115127
C34   C     C_R   0.503901 0.231305 0.123566 -0.183509
C35   C     C_R   0.567021 0.241785 0.186450 0.068275
C36   C     C_R   0.555791 0.176614 0.252563 0.031900
C37   C     C_R   0.643615 0.315312 0.184061 -0.157972
C38   C     C_R   0.708664 0.323615 0.247934 0.062019
C39   C     C_R   0.697183 0.258483 0.314076 0.032879
C40   C     C_R   0.621426 0.184900 0.316352 -0.161121
C41   C     C_R   0.782090 0.396604 0.247530 -0.182246
C42   C     C_R   0.842642 0.405285 0.310367 -0.101961
C43   C     C_R   0.830763 0.341746 0.375486 0.198853
C44   C     C_R   0.758485 0.269034 0.377197 -0.140430
H9    H     H_    0.472314 0.052396 0.302191 0.116148
H10   H     H_    0.382813 0.153089 0.076530 0.112300
H11   H     H_    0.511838 0.278687 0.071886 0.107156
H12   H     H_    0.792170 0.448088 0.198801 0.121227
H13   H     H_    0.897802 0.462080 0.308069 0.123758
H14   H     H_    0.749275 0.221251 0.428653 0.111853
O11   O     O_R   0.770540 0.084530 0.414050 -0.537804
O12   O     O_R   0.445710 0.065660 0.555720 -0.540002
O13   O     O_R   0.270420 0.915650 0.586190 -0.543578
C45   C     C_R   0.615173 0.080160 0.575919 0.713476
O14   O     O_R   0.441140 0.093540 0.412470 -0.538152
O15   O     O_R   0.265820 0.943740 0.441930 -0.540908
C46   C     C_R   0.610477 0.116596 0.385206 0.693118
O16   O     O_R   0.775150 0.056440 0.558310 -0.542185
O17   O     O_3   0.602370 0.950960 0.510050 -0.375408
V3    V     V_3+5 0.329450 0.009140 0.498150 1.421098
O18   O     O_R   0.935790 0.934280 0.444060 -0.533138
C47   C     C_R   0.103600 0.920314 0.423656 0.797462
O19   O     O_R   0.940370 0.906390 0.587310 -0.531100
C48   C     C_R   0.107878 0.884034 0.615672 0.807776
V4    V     V_3+5 0.828810 0.990710 0.501460 1.417653
O20   O     O_3   0.105780 0.049100 0.489960 -0.369665
C49   C     C_3   0.745154 0.316420 0.719716 0.113775
C50   C     C_3   0.566045 0.297451 0.683225 0.502559
H15   H     H_    0.297854 0.294023 0.758347 0.127493
C51   C     C_1   0.624990 0.126734 0.620443 -0.181189
C52   C     C_1   0.638109 0.376270 0.877144 -0.195779
C53   C     C_3   0.811809 0.230013 0.741739 -0.251210
C54   C     C_3   0.630797 0.211640 0.704907 0.029013
C55   C     C_3   0.694125 0.208571 0.811789 0.190586
C56   C     C_3   0.629147 0.294583 0.789804 0.056391
C57   C     C_3   0.515081 0.189836 0.774791 0.156774
C58   C     C_3   0.446943 0.276094 0.752944 -0.309927
C59   C     C_1   0.629149 0.165345 0.658170 0.021291
C60   C     C_1   0.632412 0.339556 0.837758 -0.019864
H16   H     H_    0.960775 0.211156 0.737386 0.143793
O21   O     O_3   0.363924 0.617442 0.308413 -0.552781
C61   C     C_3   0.308912 0.567905 0.377775 -0.286509
H17   H     H_    0.162900 0.541928 0.377551 0.145504
H18   H     H_    0.315187 0.599885 0.415308 0.126825
H19   H     H_    0.411516 0.518619 0.397365 0.178875
C62   C     C_3   0.071641 0.981278 0.697652 -0.777828
H20   H     H_    0.057656 0.031653 0.715622 0.190733
H21   H     H_    0.196135 0.996164 0.660860 0.215581
H22   H     H_    0.934678 0.978025 0.670776 0.217071
O22   O     O_3   0.015497 0.775003 0.560032 -0.563770
C63   C     C_3   0.815662 0.757539 0.565949 -0.198494
H23   H     H_    0.752344 0.768111 0.612181 0.138190
H24   H     H_    0.783552 0.695866 0.570669 0.110096
H25   H     H_    0.743274 0.796950 0.516885 0.162942
C64   C     C_3   0.179249 0.641109 0.545390 -0.743977
H26   H     H_    0.241007 0.583376 0.551150 0.178643
H27   H     H_    0.033193 0.644025 0.522046 0.212166
H28   H     H_    0.271555 0.688318 0.507760 0.207609
O23   O     O_3   0.268171 0.536017 0.805321 -0.554508
C65   C     C_3   0.162288 0.466604 0.812663 -0.216950
H29   H     H_    0.233521 0.434449 0.782621 0.123083
H30   H     H_    0.008780 0.478140 0.796126 0.121986
H31   H     H_    0.162343 0.427309 0.869750 0.175175
C66   C     C_3   0.893266 0.350779 0.443638 -0.777717
H32   H     H_    0.946303 0.411609 0.434053 0.197338
H33   H     H_    0.769889 0.337414 0.481293 0.234530
H34   H     H_    0.011061 0.309216 0.468575 0.216928
C67   C     C_3   0.339015 0.016528 0.193296 -0.783107
H35   H     H_    0.296904 0.018110 0.139491 0.202304
H36   H     H_    0.449390 0.970556 0.215402 0.238083
H37   H     H_    0.209875 0.000212 0.228228 0.208392
O24   O     O_3   0.507898 0.340916 0.612482 -0.547814
C68   C     C_3   0.411229 0.408981 0.609981 -0.263890
H38   H     H_    0.499177 0.445425 0.632793 0.136174
H39   H     H_    0.270673 0.393177 0.637760 0.140304
H40   H     H_    0.381855 0.445567 0.553313 0.156684
C69   C     C_3   0.876488 0.388354 0.688336 -0.791822
H41   H     H_    0.918622 0.395198 0.633309 0.224943
H42   H     H_    0.801892 0.442057 0.687073 0.206383
H43   H     H_    0.006822 0.380508 0.722015 0.190887
C70   C     C_3   0.384365 0.117533 0.806042 -0.780994
H44   H     H_    0.319232 0.116770 0.856454 0.210862
H45   H     H_    0.268114 0.119332 0.767445 0.203914
H46   H     H_    0.469151 0.063343 0.817108 0.215364
C71   C     C_3   0.767986 0.157544 0.885255 -0.778361
H47   H     H_    0.803839 0.098369 0.885679 0.208988
H48   H     H_    0.899152 0.185387 0.898087 0.206016
H49   H     H_    0.655606 0.151382 0.925966 0.210409
O25   O     O_3   0.499599 0.795604 0.272231 -0.557965
C72   C     C_3   0.564675 0.757291 0.342855 -0.249201
H50   H     H_    0.611608 0.696753 0.351251 0.176253
H51   H     H_    0.455298 0.755646 0.383443 0.120010
H52   H     H_    0.692018 0.790222 0.351497 0.169774

loop_
_geom_bond_atom_site_label_1
_geom_bond_atom_site_label_2
_ccdc_geom_bond_type
C35   C36   A    
O21   C61   S    
C24   C25   A    
C23   C48   S    
C63   H23   S    
O11   C46   A    
C1    O6    A    
C67   H35   S    
C71   H47   S    
C32   C67   S    
C28   C29   A    
C32   C33   A    
C69   H42   S    
C13   C14   S    
C42   C43   A    
C9    H4    S    
C19   C20   A    
C11   C13   S    
C17   C18   A    
C3    C26   S    
C70   H45   S    
O5    C3    A    
C21   C22   A    
C61   H18   S    
C56   C60   S    
C62   H20   S    
V2    O10   S    
C61   H19   S    
C31   C36   A    
C31   H9    S    
C10   C13   S    
O22   C63   S    
C62   H22   S    
V3    O20   S    
C57   C70   S    
O11   V4    S    
O8    V2    S    
C18   C19   A    
O24   C68   S    
C64   H27   S    
C72   H52   S    
C49   C56   S    
C1    C37   S    
C18   H7    S    
C68   H40   S    
O1    V2    S    
C44   H14   S    
O14   V3    S    
O13   C48   A    
C50   C58   S    
C65   H31   S    
C43   C66   S    
C38   C41   A    
C30   O23   S    
C65   H29   S    
C39   C40   A    
C14   O25   S    
O9    C4    A    
H5    C29   S    
C61   H17   S    
C70   H44   S    
C49   C69   S    
C71   H48   S    
C65   H30   S    
O18   C47   A    
C12   C16   S    
C69   H43   S    
C40   C46   S    
C31   C32   A    
C4    C7    S    
C11   C12   S    
O12   C45   A    
C70   H46   S    
O15   C47   A    
O4    C2    A    
C50   C54   S    
C22   C26   A    
C34   H11   S    
C7    C15   T    
C38   C39   A    
V4    O20   S    
C8    C16   T    
C17   C22   A    
C42   H13   S    
H15   C58   S    
C6    O21   S    
O2    C1    A    
C20   C21   A    
C28   C64   S    
O19   C48   A    
O23   C65   S    
C64   H28   S    
C2    C52   S    
C57   C58   S    
C53   C55   S    
C5    C6    S    
C39   C44   A    
C55   C56   S    
C63   H24   S    
C29   C30   A    
C10   C15   S    
C55   C57   S    
C33   H10   S    
O14   C46   A    
O3    C4    A    
C66   H34   S    
O16   V4    S    
C23   C24   A    
O19   V4    S    
C13   H2    S    
C54   C57   S    
C35   C37   A    
C68   H38   S    
C24   C27   A    
C9    C11   S    
O17   V3    S    
C17   H6    S    
C25   C26   A    
C50   O24   S    
O2    V1    S    
C67   H37   S    
O17   V4    S    
C71   H49   S    
C19   H8    S    
C27   C28   A    
C53   H16   S    
C66   H33   S    
O7    V1    S    
C34   C35   A    
O1    C2    A    
C6    C14   S    
O15   V3    S    
C67   H36   S    
O5    V1    S    
O8    C3    A    
C56   C58   S    
C33   C34   A    
O6    V2    S    
C69   H41   S    
C5    C9    S    
C72   H50   S    
C5    C12   S    
C45   C51   S    
O9    V2    S    
O7    V2    S    
C11   H3    S    
O4    V1    S    
O12   V3    S    
O3    V1    S    
V1    O10   S    
O25   C72   S    
C21   C23   A    
C41   H12   S    
C37   C38   A    
C62   H21   S    
C55   C71   S    
C6    C10   S    
C53   C54   S    
C5    H1    S    
O13   V3    S    
C63   H25   S    
C72   H51   S    
C25   C30   A    
C41   C42   A    
C43   C44   A    
C36   C40   A    
C20   C62   S    
C8    C47   S    
C49   C50   S    
C45   O16   A    
C68   H39   S    
C9    C10   S    
C52   C60   T    
C49   C53   S    
C54   C59   S    
C51   C59   T    
O18   V4    S    
C64   H26   S    
C66   H32   S    
C12   C14   S    
C27   O22   S    
