data_str_m2_o10_o14_f0_pcu.sym.114
_audit_creation_date              2012-12-10T16:43:22-0500
_audit_creation_method            fapswitch 2.2
_symmetry_space_group_name_H-M    P1
_symmetry_Int_Tables_number       1
_space_group_crystal_system       triclinic
_cell_length_a                    10.742759
_cell_length_b                    8.712755
_cell_length_c                    7.451461
_cell_angle_alpha                 102.907715
_cell_angle_beta                  94.278496
_cell_angle_gamma                 92.471513
_cell_volume                      676.647546181

loop_
_atom_site_label
_atom_site_type_symbol
_atom_type_description
_atom_site_fract_x
_atom_site_fract_y
_atom_site_fract_z
_atom_type_partial_charge
C1    C     C_R   0.497579 0.199949 0.453894 0.912241
C2    C     C_R   0.076564 0.643703 0.618810 0.092253
C3    C     C_R   0.129598 0.514034 0.507044 -0.090614
C4    C     C_R   0.054477 0.393567 0.387412 -0.199939
C5    C     C_R   0.926146 0.395690 0.382463 -0.188260
C6    C     C_R   0.871338 0.518311 0.497184 -0.091275
C7    C     C_2   0.493616 0.032364 0.431474 -0.406090
C8    C     C_2   0.527977 0.968464 0.573324 0.226884
C9    C     C_R   0.262881 0.504356 0.502770 0.780632
C10   C     C_R   0.510433 0.800072 0.546644 0.729889
C11   C     C_R   0.737398 0.506256 0.498776 0.781068
C12   C     C_R   0.150709 0.773254 0.730175 -0.174968
C13   C     C_R   0.095266 0.900669 0.835966 -0.137307
C14   C     C_R   0.965670 0.902843 0.830813 -0.129582
C15   C     C_R   0.890758 0.777582 0.719883 -0.171566
C16   C     C_R   0.944933 0.645925 0.613551 0.093929
Cu1   Cu    Cu3+1 0.513920 0.517380 0.684380 0.972659
Cu2   Cu    Cu3+1 0.486080 0.482620 0.315620 0.961913
H1    H     H_    0.095650 0.295872 0.299474 0.144405
H2    H     H_    0.597630 0.622048 0.051452 0.222873
H3    H     H_    0.251578 0.779173 0.734698 0.155650
H4    H     H_    0.153121 0.999011 0.920593 0.136975
H5    H     H_    0.922959 0.002885 0.911353 0.140291
H6    H     H_    0.790614 0.786776 0.715793 0.134107
H7    H     H_    0.869254 0.298860 0.292591 0.152405
H8    H     H_    0.457855 0.960557 0.297138 0.137974
H9    H     H_    0.402387 0.377949 0.948523 0.235093
N1    N     N_2   0.465100 0.456430 0.038520 -0.197671
N2    N     N_2   0.534900 0.543570 0.961480 -0.208104
O1    O     O_R   0.509050 0.286130 0.619770 -0.509156
O2    O     O_R   0.485540 0.256780 0.308360 -0.593978
O3    O     O_R   0.331410 0.514680 0.655740 -0.595850
O4    O     O_R   0.307900 0.485330 0.344330 -0.576045
O5    O     O_R   0.514460 0.743220 0.691640 -0.605965
O6    O     O_R   0.490950 0.713870 0.380230 -0.598401
O7    O     O_R   0.692100 0.514670 0.655670 -0.574923
O8    O     O_R   0.668590 0.485320 0.344260 -0.582857
O9    O     O_3   0.580916 0.060913 0.740488 -0.703701
H10   H     H_    0.611585 0.992923 0.822403 0.325013

loop_
_geom_bond_atom_site_label_1
_geom_bond_atom_site_label_2
_ccdc_geom_bond_type
C14   H5    S    
C10   O6    A    
C3    C9    S    
Cu1   O7    S    
C2    C16   A    
Cu2   O6    S    
C2    C12   A    
Cu1   Cu2   S    
Cu2   N1    S    
C7    C8    D    
C10   O5    A    
C13   C14   A    
C9    O4    A    
Cu1   O1    S    
N1    N2    D    
O9    H10   S    
C7    H8    S    
C8    O9    S    
C5    H7    S    
C15   H6    S    
Cu2   O8    S    
C13   H4    S    
C2    C3    A    
H2    N2    S    
C5    C6    A    
Cu2   O4    S    
Cu1   O5    S    
C6    C16   A    
C3    C4    A    
C1    O2    A    
Cu1   N2    S    
C12   C13   A    
C8    C10   S    
C6    C11   S    
C11   O8    A    
Cu1   O3    S    
C14   C15   A    
C1    O1    A    
Cu2   O2    S    
C9    O3    A    
C1    C7    S    
C4    H1    S    
C12   H3    S    
C15   C16   A    
C4    C5    A    
H9    N1    S    
C11   O7    A    
