data_str_m12_o4_o22_f0_bcu.sym.272
_audit_creation_date              2012-12-11T17:01:26-0500
_audit_creation_method            fapswitch 2.2
_symmetry_space_group_name_H-M    P1
_symmetry_Int_Tables_number       1
_space_group_crystal_system       triclinic
_cell_length_a                    15.209387
_cell_length_b                    14.970143
_cell_length_c                    14.914532
_cell_angle_alpha                 108.340102
_cell_angle_beta                  109.484415
_cell_angle_gamma                 110.789793
_cell_volume                      2606.73100706

loop_
_atom_site_label
_atom_site_type_symbol
_atom_type_description
_atom_site_fract_x
_atom_site_fract_y
_atom_site_fract_z
_atom_type_partial_charge
C1    C     C_R   0.012265 0.805769 0.103113 0.071372
C2    C     C_R   0.716799 0.123171 0.720427 0.071155
C3    C     C_R   0.947776 0.503797 0.677938 0.080447
C4    C     C_R   0.679095 0.508215 0.953116 0.023730
C5    C     C_R   0.990633 0.589161 0.295328 -0.117233
C6    C     C_R   0.214415 0.407793 0.921087 -0.169451
C7    C     C_R   0.313600 0.781884 0.222138 0.236721
C8    C     C_R   0.974495 0.254471 0.068622 -0.139848
C9    C     C_R   0.064290 0.250053 0.975858 -0.149026
C10   C     C_R   0.224089 0.772612 0.315001 -0.141880
C11   C     C_R   0.906322 0.407787 0.209820 -0.149924
C12   C     C_R   0.797373 0.191062 0.709505 -0.130758
C13   C     C_R   0.308034 0.590334 0.014282 -0.166217
C14   C     C_R   0.931792 0.498156 0.300068 0.076713
C15   C     C_R   0.314673 0.498883 0.970527 0.039524
C16   C     C_R   0.327818 0.819304 0.326194 -0.025783
C17   C     C_R   0.047221 0.226438 0.053441 0.088368
C18   C     C_3   0.514835 0.526622 0.862522 0.080132
C19   C     C_3   0.404362 0.506329 0.858058 -0.072302
C20   C     C_3   0.505458 0.395710 0.944724 -0.486302
C21   C     C_3   0.615312 0.600071 0.070897 0.078773
C22   C     C_3   0.580542 0.507161 0.955789 0.082288
C23   C     C_R   0.018922 0.592586 0.780883 -0.131351
C24   C     C_3   0.408383 0.500422 0.962860 0.133395
C25   C     C_3   0.406007 0.391377 0.951416 0.051532
C26   C     C_3   0.513770 0.600631 0.068206 -0.457495
C27   C     C_R   0.619227 0.950725 0.545571 0.153799
C28   C     C_R   0.622055 0.015572 0.637382 0.040788
C29   C     C_R   0.521042 0.997363 0.627735 -0.205324
C30   C     C_R   0.427483 0.935331 0.525643 -0.149388
C31   C     C_R   0.431457 0.889551 0.429767 0.000482
C32   C     C_R   0.533940 0.905117 0.443419 0.101421
C33   C     C_3   0.603597 0.884426 0.394428 -0.015100
C34   C     C_R   0.688206 0.415273 0.924611 0.173150
C35   C     C_3   0.693085 0.929178 0.510454 -0.558623
C36   C     C_R   0.965987 0.602167 0.484353 0.014792
C37   C     C_R   0.902244 0.503458 0.385018 0.014552
C38   C     C_R   0.819725 0.413366 0.379165 0.213275
C39   C     C_R   0.828297 0.417996 0.478169 -0.284292
C40   C     C_R   0.911088 0.511825 0.579175 0.032149
C41   C     C_R   0.967873 0.607891 0.578121 0.030137
C42   C     C_3   0.074313 0.716731 0.649199 0.018193
C43   C     C_3   0.073216 0.707580 0.543103 -0.266549
C44   C     C_R   0.988721 0.977072 0.072030 0.078032
C45   C     C_R   0.934270 0.410010 0.685925 -0.134921
C46   C     C_R   0.083509 0.974954 0.092734 -0.002213
C47   C     C_R   0.180422 0.074085 0.135792 -0.025853
C48   C     C_R   0.172415 0.165238 0.133711 -0.009076
C49   C     C_R   0.068186 0.151762 0.084552 -0.046483
C50   C     C_R   0.979703 0.061289 0.064794 -0.022052
C51   C     C_3   0.861448 0.987464 0.977334 0.257901
C52   C     C_3   0.872846 0.893374 0.988614 -0.534431
C53   C     C_R   0.782241 0.595941 0.026108 -0.185941
C54   C     C_R   0.719973 0.189212 0.809807 -0.122824
C55   C     C_R   0.094681 0.806339 0.005519 -0.182608
C56   C     C_R   0.073441 0.870454 0.074667 0.044262
H1    H     H_    0.184823 0.324272 0.863916 0.093933
H2    H     H_    0.941441 0.242546 0.120438 0.110187
H3    H     H_    0.112081 0.231818 0.941625 0.110759
H4    H     H_    0.202537 0.785490 0.378057 0.112842
H5    H     H_    0.852246 0.322805 0.179653 0.108128
H6    H     H_    0.361863 0.669354 0.029729 0.126152
H7    H     H_    0.827982 0.166464 0.656938 0.087216
H8    H     H_    0.338182 0.422473 0.788958 0.122581
H9    H     H_    0.473465 0.324144 0.866522 0.144507
H10   H     H_    0.333599 0.323013 0.871185 0.117313
H11   H     H_    0.668382 0.680991 0.082159 0.128739
H12   H     H_    0.520884 0.678307 0.071588 0.139850
H13   H     H_    0.509219 0.601536 0.141451 0.177528
H14   H     H_    0.553804 0.382714 0.008594 0.188239
H15   H     H_    0.514619 0.039976 0.696558 0.121423
H16   H     H_    0.040573 0.676313 0.805034 0.114404
H17   H     H_    0.353472 0.928797 0.522942 0.125420
H18   H     H_    0.570010 0.795681 0.341670 0.098479
H19   H     H_    0.703155 0.863663 0.523828 0.177120
H20   H     H_    0.771034 0.002664 0.541139 0.198452
H21   H     H_    0.775051 0.345909 0.476726 0.135485
H22   H     H_    0.065291 0.771695 0.524648 0.127933
H23   H     H_    0.830550 0.858581 0.027845 0.183285
H24   H     H_    0.864438 0.831586 0.916029 0.198385
H25   H     H_    0.882643 0.325655 0.621150 0.100448
H26   H     H_    0.806754 0.681292 0.064113 0.121739
H27   H     H_    0.678165 0.162203 0.850753 0.087518
H28   H     H_    0.143784 0.833899 0.970933 0.121707
H29   H     H_    0.007557 0.671198 0.340054 0.102273
N1    N     N_R   0.995640 0.706130 0.053910 -0.058087
N2    N     N_R   0.153680 0.443190 0.946090 -0.028917
N3    N     N_R   0.208920 0.706140 0.152110 -0.046313
N4    N     N_R   0.947120 0.293870 0.002870 -0.045083
N5    N     N_R   0.004360 0.293870 0.946090 -0.041279
N6    N     N_R   0.151690 0.706140 0.208890 -0.054019
N7    N     N_R   0.945990 0.443210 0.152110 -0.041677
N8    N     N_R   0.210060 0.556810 0.002870 -0.033781
N9    N     N_R   0.848310 0.293860 0.791110 -0.044101
N10   N     N_R   0.054010 0.556790 0.847890 -0.047445
N11   N     N_R   0.789940 0.443190 0.997130 -0.065599
N12   N     N_R   0.997630 0.443170 0.791110 -0.043570
N13   N     N_R   0.846320 0.556810 0.053910 -0.053760
N14   N     N_R   0.791080 0.293860 0.847890 -0.029589
N15   N     N_R   0.052880 0.706130 0.997130 -0.048903
N16   N     N_R   0.002370 0.556830 0.208890 -0.040224
Ni1   Ni    Ni4+2 0.999010 0.630300 0.130220 0.214772
Ni2   Ni    Ni4+2 0.000990 0.369700 0.869780 0.200646
Ni3   Ni    Ni4+2 0.130280 0.630280 0.000000 0.209332
Ni4   Ni    Ni4+2 0.869720 0.369720 0.000000 0.198564
C57   C     C_1   0.005649 0.847017 0.200508 -0.001230
N17   N     N_1   0.001018 0.880540 0.279016 -0.104747
C58   C     C_3   0.392196 0.838449 0.192289 -0.400356
C59   C     C_3   0.342134 0.843453 0.088021 -0.906560
H30   H     H_    0.272726 0.762946 0.018499 0.262188
H31   H     H_    0.314574 0.902646 0.102928 0.267364
H32   H     H_    0.404929 0.872828 0.065263 0.251201
H33   H     H_    0.447689 0.924554 0.258245 0.223755
H34   H     H_    0.438291 0.796771 0.187284 0.170039
C60   C     C_1   0.486656 0.454241 0.751239 0.016309
N18   N     N_1   0.460394 0.398564 0.661836 -0.091207
C61   C     C_1   0.581482 0.638998 0.884530 0.025441
N19   N     N_1   0.631410 0.726717 0.900286 -0.098806
C62   C     C_3   0.363267 0.580515 0.827266 -0.336182
C63   C     C_3   0.340816 0.562913 0.712866 -0.842857
H35   H     H_    0.416699 0.594534 0.709418 0.264832
H36   H     H_    0.286019 0.474407 0.651275 0.248783
H37   H     H_    0.300370 0.606976 0.689479 0.255891
H38   H     H_    0.283945 0.558496 0.823547 0.207426
H39   H     H_    0.421060 0.668588 0.889173 0.199980
C64   C     C_3   0.681246 0.595263 0.173688 -0.326851
C65   C     C_3   0.750659 0.707472 0.276981 -0.951822
H40   H     H_    0.810284 0.767009 0.267439 0.265991
H41   H     H_    0.698725 0.738789 0.294212 0.260735
H42   H     H_    0.795859 0.700344 0.347641 0.262546
H43   H     H_    0.627424 0.538489 0.189477 0.193429
H44   H     H_    0.735530 0.564579 0.164034 0.201068
C66   C     C_3   0.392883 0.357604 0.036989 -0.307238
C67   C     C_3   0.355694 0.235931 0.996573 -0.941636
H45   H     H_    0.358722 0.216541 0.063025 0.267572
H46   H     H_    0.270869 0.183927 0.926867 0.254869
H47   H     H_    0.409095 0.214971 0.970085 0.260999
H48   H     H_    0.469013 0.406458 0.115992 0.192660
H49   H     H_    0.332207 0.371079 0.054513 0.201144
C68   C     C_3   0.650105 0.957561 0.347478 -0.286222
C69   C     C_3   0.669914 0.074220 0.398815 -0.894515
H50   H     H_    0.599985 0.075364 0.405785 0.257331
H51   H     H_    0.743213 0.126332 0.480819 0.243357
H52   H     H_    0.684363 0.111452 0.347675 0.238251
H53   H     H_    0.728950 0.964560 0.359387 0.190952
H54   H     H_    0.600588 0.917879 0.258006 0.170489
C70   C     C_3   0.723221 0.312164 0.273836 -0.343715
C71   C     C_3   0.658413 0.340884 0.196703 -0.922496
H55   H     H_    0.630749 0.391091 0.238347 0.263388
H56   H     H_    0.707343 0.386624 0.168548 0.251374
H57   H     H_    0.585862 0.264276 0.123844 0.257236
H58   H     H_    0.747924 0.258243 0.233390 0.172946
H59   H     H_    0.665844 0.260554 0.291777 0.193129
C72   C     C_1   0.058971 0.806235 0.703406 0.020053
N20   N     N_1   0.046914 0.876508 0.746174 -0.098130
C73   C     C_1   0.168086 0.720652 0.727342 0.060168
N21   N     N_1   0.241953 0.725750 0.790194 -0.103395
C74   C     C_3   0.620402 0.330874 0.803890 -0.342292
C75   C     C_3   0.669593 0.366467 0.737165 -0.780538
H60   H     H_    0.643946 0.419885 0.713532 0.240207
H61   H     H_    0.759634 0.416579 0.784568 0.250964
H62   H     H_    0.642556 0.293130 0.661754 0.244190
H63   H     H_    0.539331 0.319079 0.766912 0.176596
H64   H     H_    0.594859 0.247300 0.788786 0.161965
C76   C     C_1   0.159174 0.690932 0.529189 0.107773
N22   N     N_1   0.226414 0.678034 0.518374 -0.086576
C77   C     C_1   0.285659 0.084941 0.185867 0.055226
N23   N     N_1   0.370860 0.095992 0.227604 -0.092847
C78   C     C_1   0.268423 0.272307 0.187736 0.074284
N24   N     N_1   0.345228 0.358332 0.232631 -0.095390
C79   C     C_1   0.790507 0.011258 0.015836 0.054046
N25   N     N_1   0.734858 0.029954 0.045972 -0.111354
C80   C     C_3   0.836178 0.978370 0.864382 -0.352980
C81   C     C_3   0.722231 0.882737 0.773549 -0.868235
H65   H     H_    0.711747 0.803772 0.768517 0.263460
H66   H     H_    0.659348 0.895410 0.787682 0.262918
H67   H     H_    0.709945 0.877452 0.694147 0.245530
H68   H     H_    0.842037 0.055103 0.866490 0.195401
H69   H     H_    0.896768 0.967366 0.843646 0.195879

loop_
_geom_bond_atom_site_label_1
_geom_bond_atom_site_label_2
_ccdc_geom_bond_type
N11   Ni4   S    
N16   Ni1   S    
C4    C53   A    
C41   C42   S    
C3    C23   A    
C70   C71   S    
C71   H57   S    
C79   N25   T    
C2    C12   A    
C67   H47   S    
C62   H38   S    
N10   Ni3   S    
C16   C31   S    
C35   H19   S    
C76   N22   T    
N9    N14   A    
C28   C29   A    
C42   C72   S    
C1    C56   A    
C24   C26   S    
C10   H4    S    
C59   H31   S    
C38   C39   A    
C11   C14   A    
C20   C25   S    
C80   H69   S    
C33   C68   S    
C60   N18   T    
N15   Ni3   S    
C47   C77   S    
C58   C59   S    
C18   C19   S    
C78   N24   T    
C58   H34   S    
C51   C80   S    
C7    N3    A    
C81   H65   S    
C8    H2    S    
C6    C15   A    
C80   H68   S    
C69   H50   S    
C11   N7    A    
C13   H6    S    
C47   C48   A    
C63   H36   S    
N11   N13   A    
C55   N15   A    
C30   H17   S    
C75   H61   S    
C52   H23   S    
C25   C66   S    
C63   H37   S    
C74   H64   S    
C1    C57   S    
C5    H29   S    
C44   C52   S    
C19   C62   S    
C66   H48   S    
C21   C22   S    
C21   H11   S    
C6    H1    S    
C20   H14   S    
C36   C41   A    
N8    Ni3   S    
C54   H27   S    
N3    Ni3   S    
C21   C26   S    
C44   C46   A    
C5    N16   A    
C43   C76   S    
C68   C69   S    
N14   Ni4   S    
C4    C34   A    
C35   H20   S    
C3    C40   S    
C51   C52   S    
C20   H9    S    
C24   C25   S    
C2    C54   A    
C59   H32   S    
C17   C49   S    
C39   C40   A    
C12   H7    S    
C67   H46   S    
C27   C35   S    
C80   C81   S    
C3    C45   A    
C6    N2    A    
C13   N8    A    
C53   H26   S    
C43   H22   S    
C73   N21   T    
C58   H33   S    
C18   C60   S    
C42   C73   S    
C65   H41   S    
C37   C38   A    
N13   Ni1   S    
C4    C22   S    
C33   H18   S    
C75   H60   S    
C18   C61   S    
N3    N6    A    
C64   H44   S    
C19   H8    S    
N5    Ni2   S    
C55   C56   A    
C50   C51   S    
C72   N20   T    
C75   H62   S    
C15   C24   S    
C71   H55   S    
C81   H67   S    
C5    C14   A    
N12   Ni2   S    
N7    N16   A    
N2    Ni2   S    
C74   H63   S    
C9    C17   A    
C40   C41   A    
C20   C22   S    
C10   N6    A    
C66   H49   S    
C13   C15   A    
C74   C75   S    
C66   C67   S    
C54   N14   A    
C69   H52   S    
C42   C43   S    
N6    Ni1   S    
C68   H54   S    
C65   H40   S    
N1    Ni1   S    
C34   C74   S    
C77   N23   T    
N1    N15   A    
C63   H35   S    
C62   H39   S    
C44   C50   A    
C1    N1    A    
C39   H21   S    
C46   C47   A    
C36   C37   A    
C27   C32   A    
C18   C22   S    
C23   H16   S    
C31   C32   A    
C7    C16   A    
C25   H10   S    
C71   H56   S    
C11   H5    S    
C9    N5    A    
N9    Ni2   S    
C2    C28   S    
C62   C63   S    
N10   N12   A    
N4    Ni4   S    
C67   H45   S    
C53   N13   A    
C68   H53   S    
C61   N19   T    
C8    C17   A    
C55   H28   S    
C26   H12   S    
C32   C33   S    
C69   H51   S    
C70   H58   S    
N4    N5    A    
C65   H42   S    
C10   C16   A    
C59   H30   S    
C14   C37   S    
C12   N9    A    
C30   C31   A    
C64   H43   S    
C64   C65   S    
C48   C49   A    
N2    N8    A    
C51   C79   S    
C33   C35   S    
C23   N10   A    
C19   C24   S    
C45   H25   S    
C70   H59   S    
C81   H66   S    
C38   C70   S    
C29   C30   A    
C48   C78   S    
N7    Ni4   S    
C49   C50   A    
C57   N17   T    
C46   C56   S    
C27   C28   A    
C26   H13   S    
C7    C58   S    
C36   C43   S    
C45   N12   A    
C8    N4    A    
C9    H3    S    
C21   C64   S    
C52   H24   S    
C34   N11   A    
C29   H15   S    
