data_str_m9_o17_o25_f0_sra.sym.86
_audit_creation_date              2012-12-11T15:24:44-0500
_audit_creation_method            fapswitch 2.2
_symmetry_space_group_name_H-M    P1
_symmetry_Int_Tables_number       1
_space_group_crystal_system       triclinic
_cell_length_a                    23.129191
_cell_length_b                    6.956117
_cell_length_c                    20.48311
_cell_angle_alpha                 90.117763
_cell_angle_beta                  93.24667
_cell_angle_gamma                 90.194905
_cell_volume                      3290.19763511

loop_
_atom_site_label
_atom_site_type_symbol
_atom_type_description
_atom_site_fract_x
_atom_site_fract_y
_atom_site_fract_z
_atom_type_partial_charge
O1    O     O_R   0.188030 0.379840 0.189340 -0.541042
O2    O     O_R   0.811970 0.620160 0.810660 -0.541042
O3    O     O_R   0.311970 0.879840 0.310660 -0.536051
O4    O     O_R   0.688030 0.120160 0.689340 -0.536051
O5    O     O_R   0.307090 0.708420 0.185790 -0.536902
O6    O     O_R   0.692910 0.291580 0.814210 -0.536902
O7    O     O_R   0.192910 0.208420 0.314210 -0.541092
O8    O     O_R   0.807090 0.791580 0.685790 -0.541092
C1    C     C_R   0.326846 0.540981 0.170795 0.726959
C2    C     C_R   0.673154 0.459019 0.829205 0.726959
C3    C     C_R   0.173109 0.040776 0.329145 0.725409
C4    C     C_R   0.826891 0.959224 0.670855 0.725409
O9    O     O_R   0.188180 0.709480 0.181650 -0.538744
O10   O     O_R   0.811820 0.290520 0.818350 -0.538744
O11   O     O_R   0.311820 0.209480 0.318350 -0.543762
O12   O     O_R   0.688180 0.790520 0.681650 -0.543762
O13   O     O_R   0.192210 0.880960 0.306500 -0.534018
O14   O     O_R   0.807790 0.119040 0.693500 -0.534018
O15   O     O_R   0.307790 0.380960 0.193500 -0.537910
O16   O     O_R   0.692210 0.619040 0.806500 -0.537911
C5    C     C_R   0.166913 0.540582 0.166959 0.711123
C6    C     C_R   0.833087 0.459418 0.833041 0.711123
C7    C     C_R   0.333042 0.041476 0.333172 0.710912
C8    C     C_R   0.666958 0.958524 0.666828 0.710912
O17   O     O_3   0.251460 0.546730 0.290970 -0.367629
O18   O     O_3   0.748540 0.453270 0.709030 -0.367630
O19   O     O_3   0.248540 0.046730 0.209030 -0.366725
O20   O     O_3   0.751460 0.953270 0.790970 -0.366725
V1    V     V_3+5 0.249730 0.821120 0.242400 1.414066
V2    V     V_3+5 0.750270 0.178880 0.757600 1.414066
V3    V     V_3+5 0.250270 0.321120 0.257600 1.403485
V4    V     V_3+5 0.749730 0.678880 0.742400 1.403485
C9    C     C_R   0.560613 0.899514 0.634998 0.030466
C10   C     C_R   0.439387 0.100486 0.365002 0.030466
C11   C     C_R   0.939289 0.531199 0.861055 0.030031
C12   C     C_R   0.060711 0.468799 0.138945 0.030031
C13   C     C_R   0.616386 0.966210 0.619327 -0.094051
C14   C     C_R   0.383614 0.033790 0.380673 -0.094051
C15   C     C_R   0.883869 0.470818 0.880135 -0.092158
C16   C     C_R   0.116131 0.529182 0.119865 -0.092158
C17   C     C_R   0.624578 0.044980 0.557731 -0.243356
C18   C     C_R   0.375422 0.955020 0.442269 -0.243356
C19   C     C_R   0.875925 0.422375 0.945266 -0.243479
C20   C     C_R   0.124075 0.577626 0.054734 -0.243479
C21   C     C_R   0.578839 0.056968 0.510252 0.105200
C22   C     C_R   0.421160 0.943031 0.489747 0.105200
C23   C     C_R   0.921549 0.435627 0.992901 0.106274
C24   C     C_R   0.078451 0.564374 0.007099 0.106274
C25   C     C_R   0.523108 0.992677 0.524354 0.033189
C26   C     C_R   0.476892 0.007323 0.475646 0.033189
C27   C     C_R   0.976960 0.494189 0.975493 0.033729
C28   C     C_R   0.023040 0.505812 0.024507 0.033729
C29   C     C_R   0.513456 0.914660 0.586958 0.084087
C30   C     C_R   0.486544 0.085339 0.413042 0.084087
C31   C     C_R   0.986414 0.540572 0.909341 0.083995
C32   C     C_R   0.013586 0.459428 0.090659 0.083995
C33   C     C_R   0.588372 0.132272 0.448514 -0.181952
C34   C     C_R   0.411628 0.867727 0.551485 -0.181952
C35   C     C_R   0.912163 0.392169 0.058090 -0.181727
C36   C     C_R   0.087837 0.607832 0.941910 -0.181728
C37   C     C_R   0.543261 0.145428 0.400607 -0.197541
C38   C     C_R   0.456739 0.854571 0.599393 -0.197542
C39   C     C_R   0.957131 0.404869 0.106231 -0.198363
C40   C     C_R   0.042869 0.595132 0.893769 -0.198364
H1    H     H_    0.667325 0.095631 0.546565 0.114424
H2    H     H_    0.332675 0.904369 0.453435 0.114424
H3    H     H_    0.833373 0.377101 0.959069 0.113317
H4    H     H_    0.166627 0.622900 0.040932 0.113318
H5    H     H_    0.631180 0.180905 0.436991 0.121286
H6    H     H_    0.368820 0.819094 0.563009 0.121286
H7    H     H_    0.869568 0.348731 0.072128 0.120913
H8    H     H_    0.130432 0.651270 0.927872 0.120913
H9    H     H_    0.554069 0.202680 0.353903 0.129347
H10   H     H_    0.445931 0.797319 0.646097 0.129347
H11   H     H_    0.946407 0.372007 0.155575 0.129037
H12   H     H_    0.053593 0.627995 0.844425 0.129036
C41   C     C_3   0.040292 0.126284 0.522877 -0.142424
C42   C     C_3   0.959708 0.873716 0.477123 -0.142424
C43   C     C_3   0.457739 0.613687 0.974475 -0.137960
C44   C     C_3   0.542261 0.386313 0.025525 -0.137959
C45   C     C_3   0.021864 0.941716 0.558754 -0.140487
C46   C     C_3   0.978136 0.058284 0.441246 -0.140487
C47   C     C_3   0.479066 0.425985 0.942821 -0.142985
C48   C     C_3   0.520934 0.574015 0.057178 -0.142985
H13   H     H_    0.039611 0.893659 0.607481 0.104024
H14   H     H_    0.960389 0.106341 0.392519 0.104024
H15   H     H_    0.462085 0.364891 0.895398 0.105099
H16   H     H_    0.537915 0.635109 0.104602 0.105099
H17   H     H_    0.073677 0.230773 0.541545 0.107178
H18   H     H_    0.926323 0.769227 0.458455 0.107178
H19   H     H_    0.422729 0.707758 0.953602 0.107306
H20   H     H_    0.577271 0.292242 0.046398 0.107306
H21   H     H_    0.044343 0.682525 0.489021 0.111972
H22   H     H_    0.955657 0.317475 0.510979 0.111972
H23   H     H_    0.460789 0.177734 0.018431 0.112296
H24   H     H_    0.539211 0.822266 0.981569 0.112296
C49   C     C_1   0.872530 0.968834 0.625193 -0.194438
C50   C     C_1   0.127470 0.031166 0.374807 -0.194439
C51   C     C_1   0.627579 0.468148 0.874964 -0.197905
C52   C     C_1   0.372420 0.531852 0.125036 -0.197905
C53   C     C_3   0.975762 0.173893 0.505858 -0.140179
C54   C     C_3   0.024238 0.826107 0.494142 -0.140179
C55   C     C_3   0.521416 0.676538 0.990040 -0.141281
C56   C     C_3   0.478583 0.323462 0.009960 -0.141281
C57   C     C_3   0.957960 0.989466 0.541117 0.172678
C58   C     C_3   0.042040 0.010534 0.458883 0.172678
C59   C     C_3   0.542118 0.488980 0.959001 0.175245
C60   C     C_3   0.457882 0.511020 0.040999 0.175245
C61   C     C_1   0.910961 0.977805 0.587255 -0.066828
C62   C     C_1   0.089039 0.022195 0.412745 -0.066828
C63   C     C_1   0.589168 0.476981 0.912934 -0.068969
C64   C     C_1   0.410832 0.523019 0.087066 -0.068969
C65   C     C_3   0.551608 0.820621 0.703207 -0.373438
C66   C     C_3   0.528597 0.977131 0.747734 -0.311517
C67   C     C_3   0.522389 0.902440 0.817056 -0.764891
H25   H     H_    0.492265 0.777639 0.816548 0.227628
H26   H     H_    0.565242 0.858320 0.839176 0.235739
H27   H     H_    0.504908 0.017880 0.847782 0.212551
H28   H     H_    0.559022 0.101451 0.749926 0.194600
H29   H     H_    0.485749 0.028421 0.727759 0.194737
H30   H     H_    0.522405 0.693681 0.700688 0.164892
H31   H     H_    0.592341 0.763562 0.726484 0.183354
C68   C     C_3   0.448392 0.179378 0.296793 -0.373437
C69   C     C_3   0.471402 0.022867 0.252265 -0.311516
C70   C     C_3   0.477611 0.097558 0.182944 -0.764892
H32   H     H_    0.434758 0.141682 0.160824 0.235739
H33   H     H_    0.507736 0.222356 0.183452 0.227628
H34   H     H_    0.495090 0.982116 0.152217 0.212551
H35   H     H_    0.514250 0.971576 0.272241 0.194737
H36   H     H_    0.440977 0.898548 0.250074 0.194600
H37   H     H_    0.407659 0.236439 0.273516 0.183354
H38   H     H_    0.477595 0.306318 0.299312 0.164892
C71   C     C_3   0.947875 0.578926 0.789493 -0.374688
C72   C     C_3   0.970940 0.404356 0.753313 -0.307552
C73   C     C_3   0.977822 0.448837 0.681176 -0.766907
H39   H     H_    0.935345 0.487322 0.656710 0.233608
H40   H     H_    0.008717 0.569772 0.676085 0.222066
H41   H     H_    0.994782 0.320217 0.656482 0.220460
H42   H     H_    0.013569 0.360281 0.776082 0.195196
H43   H     H_    0.940284 0.281760 0.756834 0.194467
H44   H     H_    0.906982 0.625594 0.763720 0.182502
H45   H     H_    0.976834 0.705203 0.785321 0.164103
C74   C     C_3   0.052125 0.421069 0.210507 -0.374689
C75   C     C_3   0.029061 0.595638 0.246688 -0.307551
C76   C     C_3   0.022178 0.551152 0.318825 -0.766907
H46   H     H_    0.991281 0.430221 0.323914 0.222065
H47   H     H_    0.064654 0.512656 0.343290 0.233608
H48   H     H_    0.005220 0.679772 0.343520 0.220461
H49   H     H_    0.059718 0.718231 0.243169 0.194467
H50   H     H_    0.986432 0.639719 0.223919 0.195196
H51   H     H_    0.023166 0.294793 0.214678 0.164104
H52   H     H_    0.093018 0.374398 0.236279 0.182502

loop_
_geom_bond_atom_site_label_1
_geom_bond_atom_site_label_2
_ccdc_geom_bond_type
C34   C38   A    
C73   H41   S    
C47   H15   S    
O1    C5    A    
C10   C68   S    
C50   C62   T    
C68   H38   S    
O19   V1    S    
O13   V1    S    
O3    C7    A    
C44   C48   S    
O15   V3    S    
C11   C71   S    
C66   C67   S    
C68   C69   S    
C42   H18   S    
O7    C3    A    
C44   C59   S    
C21   C33   A    
C71   H45   S    
C26   C30   A    
C69   H35   S    
C44   C56   S    
C3    C50   S    
O9    V1    S    
C41   C58   S    
C12   C74   S    
C14   C18   A    
C24   C28   A    
C72   H43   S    
O4    C8    A    
C42   C54   S    
C36   H8    S    
C74   C75   S    
O1    V3    S    
O17   V1    S    
O2    V4    S    
C18   C22   A    
O3    V1    S    
C12   C16   A    
C75   H50   S    
C41   C53   S    
C1    O15   A    
C65   H31   S    
H22   C53   S    
C2    O16   A    
C67   H26   S    
O2    C6    A    
C70   H34   S    
O14   V2    S    
C21   C25   A    
C43   H19   S    
C66   H28   S    
C45   H13   S    
C74   H51   S    
O12   C8    A    
C22   C34   A    
C53   C57   S    
C43   C55   S    
C59   C63   S    
O10   V2    S    
O20   V4    S    
C76   H47   S    
C24   C36   A    
O5    V1    S    
C45   C54   S    
C9    C29   A    
C45   C57   S    
O7    V3    S    
C47   C56   S    
O19   V3    S    
C27   C28   A    
O8    V4    S    
C73   H39   S    
C72   H42   S    
O18   V4    S    
C34   H6    S    
C17   H1    S    
C37   H9    S    
C46   H14   S    
C11   C31   A    
C9    C13   A    
C60   C64   S    
C44   H20   S    
C11   C15   A    
O5    C1    A    
C75   H49   S    
C12   C32   A    
C49   C61   T    
C29   C38   A    
C42   C46   S    
C41   C45   S    
O8    C4    A    
C67   H27   S    
C51   C63   T    
C31   C40   A    
C8    C13   S    
C40   H12   S    
C32   C39   A    
C69   H36   S    
C33   C37   A    
C4    C49   S    
C19   H3    S    
C74   H52   S    
O6    V2    S    
C52   C64   T    
C1    C52   S    
C42   C57   S    
C70   H32   S    
C20   H4    S    
C76   H46   S    
C56   C60   S    
C76   H48   S    
H23   C56   S    
C70   H33   S    
C65   C66   S    
O16   V4    S    
C73   H40   S    
C57   C61   S    
C3    O13   A    
C68   H37   S    
C10   C14   A    
C35   C39   A    
O17   V3    S    
C48   H16   S    
C75   C76   S    
H21   C54   S    
O6    C2    A    
C23   C27   A    
O11   V3    S    
C72   C73   S    
C41   H17   S    
C30   C37   A    
O12   V4    S    
C7    C14   S    
C22   C26   A    
C9    C65   S    
C36   C40   A    
O10   C6    A    
O20   V2    S    
C20   C24   A    
O9    C5    A    
C43   C47   S    
C10   C30   A    
C71   C72   S    
C5    C16   S    
C39   H11   S    
C25   C29   A    
C6    C15   S    
O11   C7    A    
C48   C60   S    
C46   C53   S    
C47   C59   S    
C43   C60   S    
C54   C58   S    
C27   C31   A    
C46   C58   S    
C13   C17   A    
C2    C51   S    
O4    V2    S    
C23   C35   A    
C28   C32   A    
C16   C20   A    
C65   H30   S    
C15   C19   A    
C58   C62   S    
C25   C26   A    
H24   C55   S    
C4    O14   A    
C18   H2    S    
C48   C55   S    
C17   C21   A    
C38   H10   S    
C55   C59   S    
C71   H44   S    
C33   H5    S    
C19   C23   A    
C66   H29   S    
C67   H25   S    
C35   H7    S    
C69   C70   S    
O18   V2    S    
