data_str_m2_o16_o22_f0_pcu.sym.202
_audit_creation_date              2012-12-10T17:35:37-0500
_audit_creation_method            fapswitch 2.2
_symmetry_space_group_name_H-M    P1
_symmetry_Int_Tables_number       1
_space_group_crystal_system       triclinic
_cell_length_a                    10.709331
_cell_length_b                    12.324681
_cell_length_c                    13.13898
_cell_angle_alpha                 116.691444
_cell_angle_beta                  77.391527
_cell_angle_gamma                 101.288559
_cell_volume                      1502.51558308

loop_
_atom_site_label
_atom_site_type_symbol
_atom_type_description
_atom_site_fract_x
_atom_site_fract_y
_atom_site_fract_z
_atom_type_partial_charge
C1    C     C_R   0.519495 0.854763 0.285673 0.763218
C2    C     C_3   0.121824 0.999304 0.499655 0.157396
C3    C     C_3   0.074287 0.121568 0.592972 -0.386561
C4    C     C_3   0.040397 0.892960 0.525768 -0.370081
C5    C     C_R   0.301449 0.288549 0.012954 -0.186000
C6    C     C_R   0.449758 0.228236 0.834692 -0.051122
C7    C     C_R   0.646854 0.805992 0.087155 0.140894
C8    C     C_R   0.674437 0.720965 0.972589 -0.128018
C9    C     C_R   0.613161 0.602951 0.934231 -0.249241
C10   C     C_R   0.517885 0.564952 0.007918 0.084990
C11   C     C_R   0.474290 0.653979 0.118457 0.063990
C12   C     C_R   0.739893 0.999249 0.499523 0.742729
C13   C     C_R   0.462977 0.441350 0.974213 0.088218
C14   C     C_R   0.356901 0.410394 0.046039 0.161556
C15   C     C_R   0.305356 0.501775 0.148373 -0.238482
C16   C     C_R   0.361890 0.621893 0.183396 -0.190701
C17   C     C_R   0.510953 0.347130 0.871051 -0.244546
C18   C     C_R   0.346961 0.197823 0.906975 -0.201159
C19   C     C_R   0.543734 0.772700 0.161204 -0.170994
C20   C     C_R   0.719918 0.352658 0.339385 0.305842
C21   C     C_R   0.323787 0.758225 0.644192 0.072923
C22   C     C_R   0.285663 0.661103 0.675113 -0.262453
C23   C     C_R   0.479685 0.145019 0.713559 0.796287
C24   C     C_R   0.352672 0.558498 0.620922 -0.191601
C25   C     C_R   0.459512 0.551629 0.534437 0.023135
C26   C     C_R   0.494809 0.653656 0.505795 0.295241
C27   C     C_R   0.532958 0.448326 0.476133 -0.074135
C28   C     C_R   0.643062 0.451180 0.393649 0.065661
C29   C     C_R   0.672184 0.550365 0.364818 -0.286923
C30   C     C_R   0.600397 0.648584 0.419633 -0.188977
C31   C     C_R   0.501556 0.341305 0.495659 -0.010732
C32   C     C_R   0.681325 0.250525 0.362305 0.038309
C33   C     C_R   0.260054 0.999986 0.499860 0.750410
C34   C     C_3   0.955864 0.981705 0.380131 -0.392161
C35   C     C_3   0.100075 0.982160 0.380228 -0.367766
C36   C     C_3   0.930086 0.121005 0.593049 -0.368483
C37   C     C_3   0.897516 0.892318 0.525386 -0.371067
C38   C     C_3   0.877757 0.998479 0.499521 0.161451
Cu1   Cu    Cu3+1 0.529690 0.098270 0.475420 0.916777
Cu2   Cu    Cu3+1 0.470310 0.901730 0.524580 0.915880
H1    H     H_    0.943768 0.056568 0.358921 0.173782
H2    H     H_    0.053620 0.902926 0.611436 0.163773
H3    H     H_    0.875254 0.134361 0.679435 0.152849
H4    H     H_    0.089368 0.135379 0.679370 0.152333
H5    H     H_    0.297876 0.105833 0.879085 0.141955
H6    H     H_    0.221016 0.480355 0.201840 0.147995
H7    H     H_    0.220014 0.264342 0.067161 0.143178
H8    H     H_    0.594653 0.363407 0.814988 0.140336
H9    H     H_    0.641465 0.544194 0.844935 0.139592
H10   H     H_    0.746874 0.743057 0.911246 0.152398
H11   H     H_    0.919724 0.893947 0.311935 0.147291
H12   H     H_    0.314661 0.689344 0.261254 0.162193
H13   H     H_    0.739408 0.175304 0.322119 0.140408
H14   H     H_    0.750074 0.553130 0.297673 0.159094
H15   H     H_    0.419434 0.331115 0.555963 0.136003
H16   H     H_    0.271342 0.837521 0.686833 0.119324
H17   H     H_    0.319367 0.486696 0.649157 0.133169
H18   H     H_    0.204033 0.665475 0.741546 0.142032
H19   H     H_    0.632123 0.719068 0.391168 0.202057
H20   H     H_    0.133768 0.894598 0.312131 0.147609
H21   H     H_    0.156764 0.057253 0.359134 0.176536
H22   H     H_    0.917333 0.199028 0.576711 0.173430
H23   H     H_    0.130346 0.199604 0.576287 0.168095
H24   H     H_    0.842344 0.901550 0.610665 0.175518
H25   H     H_    0.861548 0.802951 0.459033 0.164352
H26   H     H_    0.072409 0.803600 0.459976 0.167608
N1    N     N_R   0.574690 0.246280 0.438200 -0.215086
N2    N     N_R   0.426100 0.754320 0.561190 -0.205346
O1    O     O_R   0.537340 0.972510 0.318130 -0.583588
O2    O     O_R   0.487200 0.806530 0.359650 -0.590457
O3    O     O_R   0.707380 0.082980 0.479220 -0.592530
O4    O     O_R   0.657240 0.917000 0.520740 -0.602736
O5    O     O_R   0.512800 0.193470 0.640350 -0.578275
O6    O     O_R   0.462660 0.027490 0.681870 -0.581034
O7    O     O_R   0.342760 0.083000 0.479260 -0.582410
O8    O     O_R   0.292620 0.917020 0.520780 -0.598077
C39   C     C_3   0.727927 0.930250 0.131162 -0.364358
C40   C     C_3   0.849135 0.947585 0.050658 -0.888371
H27   H     H_    0.912578 0.875548 0.025598 0.248511
H28   H     H_    0.823227 0.946599 0.972854 0.252958
H29   H     H_    0.903549 0.037782 0.096136 0.260528
H30   H     H_    0.666627 0.002131 0.150482 0.227870
H31   H     H_    0.761001 0.945679 0.211590 0.195771
O9    O     O_3   0.832797 0.352306 0.264779 -0.754319
H32   H     H_    0.877775 0.436293 0.291696 0.314339

loop_
_geom_bond_atom_site_label_1
_geom_bond_atom_site_label_2
_ccdc_geom_bond_type
C2    C35   S    
C17   H8    S    
C7    C8    A    
C39   C40   S    
C31   N1    A    
C5    H7    S    
C11   C19   A    
C34   H11   S    
C29   C30   A    
Cu2   O2    S    
C3    C36   S    
C28   C29   A    
C40   H28   S    
C29   H14   S    
C39   H31   S    
C15   C16   A    
C34   C35   S    
C33   O7    A    
C8    C9    A    
C37   H25   S    
Cu1   O7    S    
C9    C10   A    
C7    C39   S    
C12   O4    A    
C21   C22   A    
C34   H1    S    
C23   O5    A    
C36   H22   S    
C6    C18   A    
C3    H4    S    
C1    C19   S    
C27   C31   A    
C9    H9    S    
O9    H32   S    
Cu1   Cu2   S    
C40   H27   S    
C24   H17   S    
C5    C18   A    
C20   C28   A    
C25   C26   A    
C1    O1    A    
Cu2   O8    S    
C35   H20   S    
C2    C4    S    
C37   C38   S    
C11   C16   A    
C33   O8    A    
C30   H19   S    
Cu1   O1    S    
C35   H21   S    
C24   C25   A    
C5    C14   A    
C32   N1    A    
C2    C33   S    
C12   O3    A    
C26   C30   A    
C7    C19   A    
C20   O9    S    
C21   N2    A    
C22   C24   A    
C23   O6    A    
C18   H5    S    
C8    H10   S    
C32   H13   S    
C37   H24   S    
C20   C32   A    
C6    C17   A    
Cu2   O4    S    
C34   C38   S    
Cu1   N1    S    
C16   H12   S    
C10   C13   A    
C22   H18   S    
C21   H16   S    
C3    H23   S    
C25   C27   A    
C1    O2    A    
C13   C17   A    
C26   N2    A    
C36   C38   S    
C2    C3    S    
C4    H26   S    
C40   H29   S    
C4    H2    S    
C39   H30   S    
C6    C23   S    
Cu2   O6    S    
Cu1   O5    S    
C12   C38   S    
C10   C11   A    
C4    C37   S    
Cu2   N2    S    
C27   C28   A    
Cu1   O3    S    
C14   C15   A    
C36   H3    S    
C15   H6    S    
C31   H15   S    
C13   C14   A    
