data_str_m3_o4_o9_f0_pcu.sym.97
_audit_creation_date              2012-12-10T20:45:36-0500
_audit_creation_method            fapswitch 2.2
_symmetry_space_group_name_H-M    P1
_symmetry_Int_Tables_number       1
_space_group_crystal_system       triclinic
_cell_length_a                    10.778358
_cell_length_b                    10.65729
_cell_length_c                    9.878616
_cell_angle_alpha                 90.23579
_cell_angle_beta                  91.017569
_cell_angle_gamma                 90.27519
_cell_volume                      1134.53567019

loop_
_atom_site_label
_atom_site_type_symbol
_atom_type_description
_atom_site_fract_x
_atom_site_fract_y
_atom_site_fract_z
_atom_type_partial_charge
C1    C     C_R   0.498326 0.260174 0.499988 0.877462
C2    C     C_R   0.196308 0.609831 0.982837 -0.102276
C3    C     C_R   0.931947 0.504845 0.379596 -0.215645
C4    C     C_R   0.872675 0.509331 0.504156 -0.102638
C5    C     C_R   0.941556 0.525332 0.625771 -0.003893
C6    C     C_R   0.068577 0.522089 0.620046 -0.244193
C7    C     C_R   0.127616 0.515503 0.495792 -0.095090
C8    C     C_R   0.058507 0.517246 0.373468 -0.021030
C9    C     C_R   0.881580 0.686761 0.791470 -0.246143
C10   C     C_R   0.843384 0.725024 0.919107 -0.271869
C11   C     C_R   0.810802 0.635649 0.016408 0.438074
C12   C     C_R   0.260123 0.505530 0.498487 0.861838
C13   C     C_R   0.815766 0.507920 0.983297 -0.160185
C14   C     C_R   0.854299 0.467791 0.855497 0.417916
C15   C     C_R   0.887988 0.558910 0.758163 0.043395
C16   C     C_R   0.530334 0.064406 0.615954 0.110282
C17   C     C_R   0.487258 0.128275 0.502227 -0.087884
C18   C     C_R   0.425776 0.064043 0.396647 -0.230248
C19   C     C_R   0.425937 0.934146 0.396423 -0.235170
C20   C     C_R   0.485962 0.871342 0.503035 -0.085699
C21   C     C_R   0.528965 0.936546 0.616717 0.125563
C22   C     C_3   0.652634 0.929202 0.686939 -0.496355
C23   C     C_R   0.497925 0.739733 0.500317 0.874518
C24   C     C_3   0.654785 0.071366 0.685118 -0.462405
C25   C     C_R   0.509765 0.390369 0.070753 0.217360
C26   C     C_R   0.500379 0.609411 0.072292 -0.041919
C27   C     C_R   0.501040 0.609454 0.928629 -0.170183
C28   C     C_R   0.509142 0.390379 0.928357 0.253815
C29   C     C_3   0.420988 0.282371 0.920751 -0.503317
C30   C     C_3   0.422878 0.281341 0.074328 -0.530071
C31   C     C_R   0.740040 0.502778 0.501558 0.882575
C32   C     C_R   0.203140 0.697667 0.087988 -0.160209
C33   C     C_R   0.160771 0.666192 0.216250 -0.087036
C34   C     C_R   0.111168 0.546277 0.239912 0.171436
C35   C     C_R   0.103792 0.458682 0.133695 -0.171982
C36   C     C_R   0.147044 0.490331 0.005763 -0.136763
H1    H     H_    0.230125 0.634583 0.884041 0.135201
H2    H     H_    0.790157 0.438850 0.058008 0.150904
H3    H     H_    0.381999 0.113545 0.313393 0.157353
H4    H     H_    0.384003 0.883527 0.311803 0.152084
H5    H     H_    0.645446 0.889682 0.790455 0.203187
H6    H     H_    0.724768 0.885890 0.622854 0.201481
H7    H     H_    0.650790 0.113836 0.787802 0.218409
H8    H     H_    0.727716 0.111087 0.619266 0.201772
H9    H     H_    0.498649 0.697851 0.126081 0.151200
H10   H     H_    0.241502 0.790046 0.070131 0.117981
H11   H     H_    0.499889 0.697866 0.875499 0.151494
H12   H     H_    0.329673 0.308239 0.875357 0.209602
H13   H     H_    0.463394 0.197376 0.876245 0.204421
H14   H     H_    0.332240 0.305021 0.119579 0.220578
H15   H     H_    0.468759 0.196640 0.116506 0.202225
H16   H     H_    0.165464 0.735375 0.296853 0.105740
H17   H     H_    0.064167 0.366497 0.149887 0.131973
H18   H     H_    0.141237 0.422310 0.924401 0.138731
H19   H     H_    0.879620 0.498108 0.285404 0.207904
H20   H     H_    0.121296 0.529069 0.713634 0.162988
H21   H     H_    0.908801 0.757162 0.718826 0.164090
H22   H     H_    0.840368 0.824309 0.942402 0.147013
N1    N     N_R   0.499160 0.499140 0.142800 -0.099776
N2    N     N_R   0.499160 0.499180 0.857150 -0.113785
O1    O     O_R   0.500020 0.316790 0.614690 -0.613012
O2    O     O_R   0.500000 0.316760 0.385350 -0.625068
O3    O     O_R   0.316770 0.500030 0.614670 -0.632321
O4    O     O_R   0.316750 0.499990 0.385330 -0.616332
O5    O     O_R   0.500000 0.683240 0.614650 -0.629248
O6    O     O_R   0.499980 0.683210 0.385310 -0.621236
O7    O     O_R   0.683250 0.500010 0.614670 -0.610445
O8    O     O_R   0.683230 0.499970 0.385330 -0.589194
Zn1   Zn    Zn3+2 0.500010 0.500020 0.653130 0.949953
Zn2   Zn    Zn3+2 0.499990 0.499980 0.346870 0.970694
O9    O     O_3   0.773671 0.670160 0.144051 -0.781623
H23   H     H_    0.774781 0.763008 0.151085 0.325693
O10   O     O_3   0.858402 0.340129 0.831378 -0.796331
H24   H     H_    0.882263 0.324268 0.736638 0.333667

loop_
_geom_bond_atom_site_label_1
_geom_bond_atom_site_label_2
_ccdc_geom_bond_type
C30   H15   S    
C16   C21   A    
C35   H17   S    
O10   H24   S    
C35   C36   A    
C1    O2    A    
C7    C8    A    
C29   H13   S    
C33   H16   S    
C31   O7    A    
C26   C27   A    
C23   O6    A    
C28   C29   S    
C10   H22   S    
C18   C19   A    
C27   N2    A    
C5    C6    A    
C12   O4    A    
C11   O9    S    
C22   H5    S    
C2    C36   A    
O2    Zn2   S    
C2    C32   A    
C34   C35   A    
C26   H9    S    
C3    H19   S    
C19   C20   A    
C16   C17   A    
O4    Zn2   S    
C26   N1    A    
C30   H14   S    
C16   C24   S    
C21   C22   S    
C31   O8    A    
C33   C34   A    
C28   N2    A    
C7    C12   S    
C29   H12   S    
C14   O10   S    
O3    Zn1   S    
C3    C8    A    
C19   H4    S    
C12   O3    A    
C25   C28   A    
C18   H3    S    
C29   C30   S    
C20   C23   S    
C17   C18   A    
C8    C34   S    
C13   H2    S    
C24   H8    S    
C22   C24   S    
C3    C4    A    
C9    C10   A    
C27   H11   S    
C25   C30   S    
C32   H10   S    
C6    H20   S    
C4    C5    A    
C1    O1    A    
C6    C7    A    
O6    Zn2   S    
C1    C17   S    
O1    Zn1   S    
C32   C33   A    
C23   O5    A    
C9    C15   A    
O9    H23   S    
C11   C13   A    
C2    H1    S    
C22   H6    S    
N2    Zn1   S    
O5    Zn1   S    
C9    H21   S    
C5    C15   S    
C4    C31   S    
C36   H18   S    
C10   C11   A    
N1    Zn2   S    
C20   C21   A    
O8    Zn2   S    
C24   H7    S    
C14   C15   A    
C25   N1    A    
O7    Zn1   S    
C13   C14   A    
