data_str_m9_o10_o29_f0_sra.sym.95
_audit_creation_date              2012-12-11T14:08:47-0500
_audit_creation_method            fapswitch 2.2
_symmetry_space_group_name_H-M    P1
_symmetry_Int_Tables_number       1
_space_group_crystal_system       triclinic
_cell_length_a                    28.14722
_cell_length_b                    7.185793
_cell_length_c                    17.300131
_cell_angle_alpha                 90.000063
_cell_angle_beta                  101.833105
_cell_angle_gamma                 90.0
_cell_volume                      3424.7664771

loop_
_atom_site_label
_atom_site_type_symbol
_atom_type_description
_atom_site_fract_x
_atom_site_fract_y
_atom_site_fract_z
_atom_type_partial_charge
O1    O     O_R   0.000700 0.436510 0.857920 -0.505143
O2    O     O_R   0.999300 0.563490 0.142080 -0.505143
O3    O     O_R   0.999300 0.936510 0.642080 -0.505143
O4    O     O_R   0.000700 0.063490 0.357920 -0.505143
O5    O     O_R   0.930080 0.766380 0.721890 -0.540547
O6    O     O_R   0.069920 0.233620 0.278110 -0.540547
O7    O     O_R   0.069920 0.266380 0.778110 -0.540548
O8    O     O_R   0.930080 0.733620 0.221890 -0.540547
C1    C     C_R   0.910583 0.597658 0.709239 0.723357
C2    C     C_R   0.089417 0.402342 0.290761 0.723357
C3    C     C_R   0.089417 0.097657 0.790760 0.723357
C4    C     C_R   0.910583 0.902342 0.209238 0.723357
O9    O     O_R   0.996180 0.766230 0.862310 -0.550641
O10   O     O_R   0.003820 0.233770 0.137690 -0.550641
O11   O     O_R   0.003820 0.266230 0.637690 -0.550641
O12   O     O_R   0.996180 0.733770 0.362310 -0.550641
O13   O     O_R   0.065870 0.936460 0.783500 -0.541130
O14   O     O_R   0.934130 0.063540 0.216500 -0.541131
O15   O     O_R   0.934130 0.436460 0.716500 -0.541130
O16   O     O_R   0.065870 0.563540 0.283500 -0.541131
C5    C     C_R   0.997726 0.596103 0.894169 0.686210
C6    C     C_R   0.002274 0.403897 0.105831 0.686210
C7    C     C_R   0.002274 0.096103 0.605831 0.686210
C8    C     C_R   0.997726 0.903897 0.394169 0.686211
O17   O     O_3   0.022790 0.603020 0.723980 -0.373272
O18   O     O_3   0.977210 0.396980 0.276020 -0.373272
O19   O     O_3   0.977210 0.103020 0.776020 -0.373272
O20   O     O_3   0.022790 0.896980 0.223980 -0.373272
V1    V     V_3+5 0.995770 0.877900 0.754830 1.494888
V2    V     V_3+5 0.004230 0.122100 0.245170 1.494887
V3    V     V_3+5 0.004230 0.377900 0.745170 1.494888
V4    V     V_3+5 0.995770 0.622100 0.254830 1.494887
C9    C     C_2   0.006552 0.080203 0.521281 0.144442
C10   C     C_2   0.993448 0.919797 0.478719 0.144442
C11   C     C_2   0.993447 0.580203 0.978719 0.144442
C12   C     C_2   0.006552 0.419797 0.021281 0.144442
C13   C     C_R   0.684832 0.046681 0.041593 0.742802
C14   C     C_R   0.315171 0.953299 0.958383 0.742785
C15   C     C_R   0.315169 0.546688 0.458403 0.742798
C16   C     C_R   0.684830 0.453310 0.541611 0.742797
O21   O     O_2   0.716037 0.113246 0.998625 -0.428791
O22   O     O_2   0.283967 0.886722 0.001351 -0.428791
O23   O     O_2   0.283964 0.613256 0.501371 -0.428791
O24   O     O_2   0.716035 0.386740 0.498643 -0.428792
N1    N     N_R   0.702843 0.952176 0.109755 -0.578979
N2    N     N_R   0.297158 0.047818 0.890226 -0.578978
N3    N     N_R   0.297157 0.452180 0.390242 -0.578980
N4    N     N_R   0.702842 0.547820 0.609770 -0.578979
C17   C     C_R   0.672794 0.880642 0.155112 0.692899
C18   C     C_R   0.327206 0.119363 0.844869 0.692905
C19   C     C_R   0.327205 0.380644 0.344884 0.692906
C20   C     C_R   0.672794 0.619359 0.655128 0.692905
C21   C     C_R   0.781582 0.087943 0.172140 -0.084538
C22   C     C_R   0.218417 0.912055 0.827846 -0.084534
C23   C     C_R   0.218417 0.587946 0.327859 -0.084536
C24   C     C_R   0.781582 0.412056 0.672152 -0.084534
C25   C     C_R   0.832064 0.077189 0.195741 -0.174946
C26   C     C_R   0.167935 0.922810 0.804250 -0.174946
C27   C     C_R   0.167935 0.577190 0.304259 -0.174947
C28   C     C_R   0.832065 0.422811 0.695749 -0.174946
C29   C     C_R   0.829767 0.758470 0.149537 -0.209485
C30   C     C_R   0.170234 0.241528 0.850456 -0.209482
C31   C     C_R   0.170233 0.258471 0.350462 -0.209484
C32   C     C_R   0.829766 0.741529 0.649544 -0.209484
C33   C     C_R   0.779173 0.770184 0.124560 0.321992
C34   C     C_R   0.220828 0.229812 0.875428 0.321995
C35   C     C_R   0.220827 0.270187 0.375438 0.321993
C36   C     C_R   0.779172 0.729814 0.624571 0.321992
C37   C     C_R   0.754781 0.935591 0.136057 0.296219
C38   C     C_R   0.245220 0.064406 0.863928 0.296215
C39   C     C_R   0.245219 0.435594 0.363941 0.296217
C40   C     C_R   0.754780 0.564407 0.636070 0.296216
C41   C     C_R   0.602300 0.988778 0.058613 -0.162936
C42   C     C_R   0.397702 0.011210 0.941359 -0.162940
C43   C     C_R   0.397700 0.488785 0.441380 -0.162938
C44   C     C_R   0.602298 0.511215 0.558633 -0.162937
C45   C     C_R   0.634223 0.072189 0.015639 -0.099357
C46   C     C_R   0.365780 0.927788 0.984332 -0.099369
C47   C     C_R   0.365778 0.572197 0.484355 -0.099360
C48   C     C_R   0.634221 0.427800 0.515659 -0.099358
C49   C     C_R   0.615241 0.190038 0.951688 0.375749
C50   C     C_R   0.384764 0.809922 0.048277 0.375669
C51   C     C_R   0.384761 0.690051 0.548304 0.375723
C52   C     C_R   0.615238 0.309946 0.451710 0.375729
C53   C     C_R   0.621705 0.899410 0.131486 -0.075021
C54   C     C_R   0.378295 0.100591 0.868491 -0.075024
C55   C     C_R   0.378295 0.399415 0.368508 -0.075019
C56   C     C_R   0.621704 0.600588 0.631504 -0.075021
C57   C     C_R   0.856830 0.912279 0.184837 -0.102171
C58   C     C_R   0.143170 0.087719 0.815157 -0.102174
C59   C     C_R   0.143170 0.412280 0.315162 -0.102171
C60   C     C_R   0.856830 0.587720 0.684842 -0.102172
H1    H     H_    0.847933 0.630385 0.139713 0.159364
H2    H     H_    0.152069 0.369612 0.860283 0.159366
H3    H     H_    0.152068 0.130386 0.360286 0.159365
H4    H     H_    0.847931 0.869613 0.639717 0.159365
C61   C     C_R   0.480811 0.084048 0.926145 0.065060
C62   C     C_R   0.519190 0.915938 0.073823 0.065058
C63   C     C_R   0.519189 0.584052 0.573846 0.065058
C64   C     C_R   0.480810 0.415951 0.426167 0.065063
C65   C     C_R   0.468063 0.906941 0.041919 0.007566
C66   C     C_R   0.531940 0.093036 0.958047 0.007570
C67   C     C_R   0.531938 0.406958 0.458069 0.007571
C68   C     C_R   0.468061 0.593044 0.541944 0.007568
C69   C     C_R   0.448978 0.001890 0.970296 0.006633
C70   C     C_R   0.551024 0.998094 0.029673 0.006641
C71   C     C_R   0.551022 0.501898 0.529695 0.006640
C72   C     C_R   0.448976 0.498103 0.470319 0.006639
C73   C     C_R   0.460551 0.142591 0.848576 -0.127427
C74   C     C_R   0.539448 0.857405 0.151394 -0.127413
C75   C     C_R   0.539448 0.642588 0.651417 -0.127423
C76   C     C_R   0.460551 0.357420 0.348596 -0.127419
C77   C     C_R   0.410738 0.159301 0.820849 0.283679
C78   C     C_R   0.589261 0.840705 0.179126 0.283684
C79   C     C_R   0.589261 0.659295 0.679146 0.283676
C80   C     C_R   0.410738 0.340714 0.320866 0.283696
O25   O     O_2   0.307292 0.209304 0.777751 -0.449627
O26   O     O_2   0.692707 0.790716 0.222234 -0.449630
O27   O     O_2   0.692707 0.709291 0.722248 -0.449628
O28   O     O_2   0.307292 0.290714 0.277764 -0.449626
C81   C     C_R   0.564400 0.202633 0.923418 0.250990
C82   C     C_R   0.435604 0.797325 0.076544 0.251015
C83   C     C_R   0.435601 0.702646 0.576573 0.251005
C84   C     C_R   0.564398 0.297355 0.423441 0.250977
H5    H     H_    0.148340 0.802145 0.776893 0.149720
H6    H     H_    0.851659 0.197856 0.223099 0.149720
H7    H     H_    0.851660 0.302145 0.723106 0.149720
H8    H     H_    0.148341 0.697857 0.276901 0.149720
H9    H     H_    0.236830 0.784428 0.818373 0.178288
H10   H     H_    0.763169 0.215570 0.181611 0.178286
H11   H     H_    0.763170 0.284429 0.681625 0.178287
H12   H     H_    0.236830 0.715574 0.318388 0.178288
H13   H     H_    0.482794 0.168293 0.805958 0.201869
H14   H     H_    0.517203 0.831701 0.194009 0.201878
H15   H     H_    0.517204 0.668288 0.694034 0.201875
H16   H     H_    0.482795 0.331722 0.305978 0.201860
O29   O     O_3   0.025889 0.227559 0.486130 -0.644805
H17   H     H_    0.037279 0.325583 0.525795 0.300241
O30   O     O_3   0.974111 0.772440 0.513870 -0.644804
H18   H     H_    0.962721 0.674417 0.474206 0.300241
O31   O     O_3   0.974111 0.727559 0.013870 -0.644805
H19   H     H_    0.962721 0.825583 0.974206 0.300241
O32   O     O_3   0.025889 0.272440 0.986130 -0.644805
H20   H     H_    0.037279 0.174416 0.025794 0.300241
Br1   Br    Br    0.744413 0.561065 0.072384 -0.447683
Br2   Br    Br    0.255590 0.438930 0.927602 -0.447697
Br3   Br    Br    0.255587 0.061068 0.427614 -0.447691
Br4   Br    Br    0.744411 0.938933 0.572397 -0.447675
O33   O     O_3   0.646777 0.301542 0.920779 -0.566690
H21   H     H_    0.631699 0.425436 0.908581 0.347148
O34   O     O_3   0.353230 0.698396 0.079180 -0.566692
H22   H     H_    0.368298 0.574465 0.091311 0.347118
O35   O     O_3   0.353226 0.801564 0.579211 -0.566692
H23   H     H_    0.368300 0.925472 0.591383 0.347135
O36   O     O_3   0.646774 0.198434 0.420804 -0.566698
H24   H     H_    0.631696 0.074551 0.408604 0.347152
Br5   Br    Br    0.391783 0.255283 0.714817 -0.445897
Br6   Br    Br    0.608213 0.744741 0.285161 -0.445880
Br7   Br    Br    0.608215 0.755271 0.785179 -0.445903
Br8   Br    Br    0.391784 0.244751 0.214831 -0.445864
O37   O     O_3   0.546305 0.335301 0.867464 -0.641114
H25   H     H_    0.566900 0.336934 0.827334 0.321079
O38   O     O_3   0.453702 0.664642 0.132491 -0.641119
H26   H     H_    0.433093 0.662892 0.172596 0.321142
O39   O     O_3   0.453697 0.835318 0.632526 -0.641117
H27   H     H_    0.433096 0.836994 0.672646 0.321099
O40   O     O_3   0.546301 0.164685 0.367488 -0.641114
H28   H     H_    0.566895 0.163035 0.327362 0.321092

loop_
_geom_bond_atom_site_label_1
_geom_bond_atom_site_label_2
_ccdc_geom_bond_type
O17   V3    S    
O1    C5    A    
O39   H27   S    
C62   C74   A    
C23   C27   A    
O19   V1    S    
C18   O25   S    
O13   V1    S    
O3    C7    A    
O38   H26   S    
C76   C80   A    
C48   C52   A    
C21   C37   A    
O37   H25   S    
C9    O29   S    
C68   C83   A    
C33   C37   A    
O7    C3    A    
C43   C47   A    
C25   C57   A    
C54   C77   A    
C32   C36   A    
O9    V1    S    
C53   C78   A    
C12   O32   S    
O10   V2    S    
C14   O22   S    
O16   V4    S    
O4    C8    A    
C52   O36   S    
C29   H1    S    
O32   H20   S    
C31   H3    S    
C10   O30   S    
O1    V3    S    
O2    V4    S    
O3    V1    S    
C78   Br6   S    
C1    O15   A    
C11   C12   D    
C2    O16   A    
C24   C40   A    
O2    C6    A    
O34   H22   S    
C16   C48   A    
C52   C84   A    
O14   V2    S    
N1    C17   A    
C66   C81   A    
C44   C56   A    
C16   O24   S    
C61   C66   A    
C36   Br4   S    
C73   C77   A    
C61   C69   A    
O11   C7    A    
C63   C68   A    
O15   V3    S    
C43   C72   A    
O12   C8    A    
C31   C59   A    
N4    C40   S    
C67   C84   A    
C1    C60   S    
O40   H28   S    
C29   C57   A    
C19   O28   S    
O5    V1    S    
C28   C60   A    
C65   C69   A    
C31   C35   A    
C64   C72   A    
O7    V3    S    
C30   C34   A    
C73   H13   S    
O8    V4    S    
C17   C53   A    
C4    C57   S    
C20   C56   A    
C32   H4    S    
C19   C55   A    
C25   H6    S    
C21   C25   A    
O18   V4    S    
N3    C19   A    
C14   C46   A    
C7    C9    S    
C27   H8    S    
N1    C37   S    
C64   C67   A    
C8    C10   S    
C82   O38   S    
C24   C28   A    
C79   Br7   S    
C36   C40   A    
C15   C47   A    
O5    C1    A    
C84   O40   S    
C61   C73   A    
C46   C50   A    
C17   O26   S    
C22   C38   A    
C45   C49   A    
O8    C4    A    
C63   C75   A    
C4    O14   A    
C9    C10   D    
O9    C5    A    
C27   C59   A    
C42   C54   A    
O11   V3    S    
C26   C58   A    
C41   C53   A    
C55   C80   A    
C11   O31   S    
C5    C11   S    
C43   C55   A    
O6    V2    S    
C2    C59   S    
C64   C76   A    
C44   C71   A    
C30   H2    S    
C35   Br3   S    
C74   H14   S    
C44   C48   A    
N3    C39   S    
C13   N1    A    
C68   C72   A    
N2    C38   S    
C63   C71   A    
C15   N3    A    
C22   C26   A    
C16   N4    A    
C22   H9    S    
C74   C78   A    
C3    O13   A    
C41   C45   A    
C28   H7    S    
C50   O34   S    
O6    C2    A    
C15   O23   S    
O30   H18   S    
C80   Br8   S    
C51   O35   S    
O12   V4    S    
C62   C65   A    
C6    C12   S    
O29   H17   S    
N2    C18   A    
C65   C82   A    
C62   C70   A    
C51   C83   A    
O10   C6    A    
C56   C79   A    
O20   V2    S    
C76   H16   S    
O31   H19   S    
C42   C69   A    
C47   C51   A    
C3    C58   S    
C75   H15   S    
C41   C70   A    
C34   C38   A    
C13   C45   A    
C49   O33   S    
C30   C58   A    
C66   C70   A    
C35   C39   A    
C13   O21   S    
O4    V2    S    
C34   Br2   S    
C14   N2    A    
C24   H11   S    
C18   C54   A    
C83   O39   S    
C20   O27   S    
C29   C33   A    
N4    C20   A    
C26   H5    S    
C75   C79   A    
C23   H12   S    
C42   C46   A    
C49   C81   A    
O36   H24   S    
C32   C60   A    
C67   C71   A    
C21   H10   S    
C77   Br5   S    
O35   H23   S    
O33   H21   S    
C33   Br1   S    
C50   C82   A    
C23   C39   A    
C81   O37   S    
