data_str_m2_o13_o15_f0_pcu.sym.153
_audit_creation_date              2012-12-10T17:10:24-0500
_audit_creation_method            fapswitch 2.2
_symmetry_space_group_name_H-M    P1
_symmetry_Int_Tables_number       1
_space_group_crystal_system       triclinic
_cell_length_a                    10.881599
_cell_length_b                    12.970539
_cell_length_c                    11.712024
_cell_angle_alpha                 100.009074
_cell_angle_beta                  97.323504
_cell_angle_gamma                 93.693052
_cell_volume                      1608.24510505

loop_
_atom_site_label
_atom_site_type_symbol
_atom_type_description
_atom_site_fract_x
_atom_site_fract_y
_atom_site_fract_z
_atom_type_partial_charge
C1    C     C_R   0.499040 0.299005 0.478386 0.778854
C2    C     C_R   0.500960 0.700994 0.521614 0.778853
C3    C     C_R   0.498787 0.814237 0.534060 -0.045198
C4    C     C_R   0.501213 0.185763 0.465940 -0.045198
C5    C     C_R   0.542259 0.019082 0.355656 -0.229792
C6    C     C_R   0.457741 0.980918 0.644344 -0.229792
C7    C     C_R   0.533672 0.126504 0.363929 -0.203893
C8    C     C_R   0.466328 0.873496 0.636070 -0.203893
C9    C     C_R   0.474691 0.137054 0.558696 -0.281314
C10   C     C_R   0.525309 0.862946 0.441304 -0.281314
C11   C     C_R   0.482814 0.029705 0.551131 0.180332
C12   C     C_R   0.517185 0.970295 0.448869 0.180332
C13   C     C_R   0.440716 0.370233 0.016427 -0.305141
C14   C     C_R   0.559284 0.629767 0.983573 -0.305141
C15   C     C_R   0.411837 0.393126 0.132376 0.219713
C16   C     C_R   0.588163 0.606874 0.867624 0.219713
C17   C     C_R   0.528378 0.558611 0.160545 0.004151
C18   C     C_R   0.471622 0.441389 0.839455 0.004151
C19   C     C_R   0.520295 0.548241 0.036337 0.047254
C20   C     C_R   0.479705 0.451759 0.963662 0.047254
C21   C     C_R   0.262503 0.510639 0.497954 0.802312
C22   C     C_R   0.737497 0.489361 0.502046 0.802313
C23   C     C_R   0.153836 0.605353 0.703445 -0.173906
C24   C     C_R   0.846163 0.394647 0.296555 -0.173907
C25   C     C_R   0.120691 0.605071 0.814731 0.063986
C26   C     C_R   0.879309 0.394929 0.185269 0.063986
C27   C     C_R   0.010317 0.546978 0.823150 -0.171691
C28   C     C_R   0.989683 0.453022 0.176850 -0.171691
C29   C     C_R   0.926848 0.504299 0.722558 -0.153325
C30   C     C_R   0.073152 0.495701 0.277442 -0.153325
C31   C     C_R   0.957422 0.510053 0.610123 0.070936
C32   C     C_R   0.042578 0.489947 0.389877 0.070936
C33   C     C_R   0.080106 0.546637 0.602144 0.059798
C34   C     C_R   0.919894 0.453363 0.397855 0.059798
C35   C     C_R   0.872784 0.476199 0.505732 -0.220533
C36   C     C_R   0.127216 0.523801 0.494268 -0.220533
Cu1   Cu    Cu3+1 0.509250 0.507730 0.615930 0.918363
Cu2   Cu    Cu3+1 0.490750 0.492270 0.384070 0.918363
H1    H     H_    0.015201 0.459652 0.092238 0.125478
H2    H     H_    0.984799 0.540348 0.907762 0.125478
H3    H     H_    0.406318 0.295506 0.960529 0.139306
H4    H     H_    0.593682 0.704494 0.039471 0.139306
H5    H     H_    0.239081 0.649935 0.695997 0.146064
H6    H     H_    0.760919 0.350065 0.304003 0.146064
H7    H     H_    0.841394 0.463306 0.734275 0.155710
H8    H     H_    0.158606 0.536693 0.265725 0.155710
H9    H     H_    0.552097 0.817281 0.363104 0.137015
H10   H     H_    0.447904 0.182719 0.636896 0.137016
H11   H     H_    0.445172 0.836486 0.708233 0.151537
H12   H     H_    0.554827 0.163514 0.291767 0.151537
H13   H     H_    0.569131 0.974468 0.276983 0.126247
H14   H     H_    0.430869 0.025532 0.723017 0.126247
H15   H     H_    0.427700 0.369951 0.783326 0.121897
H16   H     H_    0.572300 0.630049 0.216674 0.121897
N1    N     N_R   0.523180 0.519350 0.790130 -0.196642
N2    N     N_R   0.476820 0.480650 0.209870 -0.196642
O1    O     O_R   0.506570 0.354460 0.582000 -0.592713
O2    O     O_R   0.493430 0.645540 0.418000 -0.592712
O3    O     O_R   0.490940 0.341410 0.386200 -0.611203
O4    O     O_R   0.509060 0.658590 0.613800 -0.611203
O5    O     O_R   0.327470 0.506520 0.597900 -0.569202
O6    O     O_R   0.672530 0.493480 0.402100 -0.569202
O7    O     O_R   0.311840 0.493460 0.402100 -0.601724
O8    O     O_R   0.688160 0.506540 0.597900 -0.601724
C37   C     C_R   0.199828 0.667189 0.920576 0.125276
C38   C     C_R   0.257321 0.767006 0.917200 -0.162816
C39   C     C_R   0.326287 0.827996 0.017806 -0.138741
C40   C     C_R   0.338511 0.790519 0.122935 -0.124029
C41   C     C_R   0.283300 0.691509 0.127436 -0.132757
C42   C     C_R   0.215177 0.629675 0.026775 -0.159274
H17   H     H_    0.246010 0.799508 0.837794 0.106812
H18   H     H_    0.369115 0.904907 0.014528 0.123822
H19   H     H_    0.390790 0.838152 0.200872 0.127793
H20   H     H_    0.294614 0.662408 0.208897 0.140979
H21   H     H_    0.175669 0.552439 0.031769 0.108125
C43   C     C_R   0.800172 0.332811 0.079424 0.125276
C44   C     C_R   0.784823 0.370324 0.973225 -0.159273
C45   C     C_R   0.716700 0.308490 0.872564 -0.132758
C46   C     C_R   0.661489 0.209480 0.877065 -0.124029
C47   C     C_R   0.673713 0.172003 0.982194 -0.138741
C48   C     C_R   0.742678 0.232994 0.082800 -0.162816
H22   H     H_    0.824331 0.447561 0.968231 0.108124
H23   H     H_    0.705386 0.337592 0.791103 0.140980
H24   H     H_    0.609210 0.161848 0.799128 0.127793
H25   H     H_    0.630885 0.095093 0.985472 0.123822
H26   H     H_    0.753990 0.200492 0.162206 0.106812
C49   C     C_R   0.717032 0.659023 0.859925 0.083766
C50   C     C_R   0.806981 0.676109 0.962843 -0.226551
C51   C     C_R   0.912884 0.746432 0.977019 -0.126069
C52   C     C_R   0.937530 0.797326 0.886403 -0.084031
C53   C     C_R   0.859211 0.774231 0.780300 -0.167060
C54   C     C_R   0.751403 0.705870 0.766922 -0.088497
H27   H     H_    0.793420 0.637874 0.036014 0.133315
H28   H     H_    0.976432 0.760589 0.058239 0.140512
H29   H     H_    0.019378 0.851918 0.896980 0.126293
H30   H     H_    0.881640 0.809970 0.707706 0.125977
H31   H     H_    0.701830 0.692058 0.682208 0.174480
C55   C     C_R   0.282968 0.340976 0.140075 0.083766
C56   C     C_R   0.193019 0.323891 0.037157 -0.226551
C57   C     C_R   0.087116 0.253568 0.022981 -0.126069
C58   C     C_R   0.062470 0.202674 0.113597 -0.084031
C59   C     C_R   0.140789 0.225769 0.219700 -0.167060
C60   C     C_R   0.248597 0.294130 0.233078 -0.088498
H32   H     H_    0.206580 0.362125 0.963985 0.133315
H33   H     H_    0.023568 0.239411 0.941761 0.140512
H34   H     H_    0.980622 0.148082 0.103020 0.126293
H35   H     H_    0.118360 0.190031 0.292294 0.125977
H36   H     H_    0.298170 0.307942 0.317792 0.174481

loop_
_geom_bond_atom_site_label_1
_geom_bond_atom_site_label_2
_ccdc_geom_bond_type
C49   C50   A    
C58   C59   A    
C27   C29   A    
C19   C20   A    
C13   H3    S    
C52   H29   S    
C21   C36   S    
C44   C45   A    
C22   C35   S    
C57   H33   S    
Cu1   Cu2   S    
C32   C36   A    
C24   C26   A    
C39   H18   S    
C1    O3    A    
C46   H24   S    
C2    O4    A    
C55   C60   A    
C33   C36   A    
C23   H5    S    
C18   C20   A    
C34   C35   A    
C51   H28   S    
C18   H15   S    
C53   H30   S    
Cu2   O2    S    
C45   H23   S    
C56   C57   A    
C40   C41   A    
C23   C33   A    
C16   C49   S    
C26   C43   S    
C31   C33   A    
C60   H36   S    
C21   O5    A    
C48   H26   S    
C14   H4    S    
C56   H32   S    
C49   C54   A    
C41   C42   A    
C4    C7    A    
C54   H31   S    
C39   C40   A    
C59   H35   S    
C25   C37   S    
C43   C44   A    
C5    C12   A    
C3    C8    A    
C53   C54   A    
C5    C7    A    
C45   C46   A    
C6    C8    A    
C28   H1    S    
C40   H19   S    
C24   C34   A    
Cu2   O3    S    
C29   H7    S    
C32   C34   A    
C47   H25   S    
C1    O1    A    
C22   O6    A    
C38   H17   S    
C27   H2    S    
C41   H20   S    
C9    C11   A    
C17   N2    A    
C10   C12   A    
C18   N1    A    
C55   C56   A    
C13   C15   A    
C24   H6    S    
C14   C16   A    
C15   C55   S    
C6    C11   A    
Cu1   O8    S    
Cu2   O7    S    
C58   H34   S    
C50   H27   S    
C13   C20   A    
C14   C19   A    
C30   H8    S    
C7    H12   S    
C47   C48   A    
C43   C48   A    
Cu1   O5    S    
C11   C12   A    
C2    O2    A    
C25   C27   A    
C26   C28   A    
C1    C4    S    
C15   N2    A    
C28   C30   A    
C2    C3    S    
C51   C52   A    
C16   N1    A    
C29   C31   A    
C3    C10   A    
C30   C32   A    
C52   C53   A    
C44   H22   S    
C8    H11   S    
C57   C58   A    
C17   C19   A    
C38   C39   A    
C31   C35   A    
C23   C25   A    
C59   C60   A    
C21   O7    A    
Cu1   O4    S    
C22   O8    A    
C46   C47   A    
Cu1   N1    S    
Cu2   N2    S    
C50   C51   A    
C42   H21   S    
C9    H10   S    
C37   C38   A    
C10   H9    S    
C5    H13   S    
C6    H14   S    
C4    C9    A    
C17   H16   S    
Cu1   O1    S    
C37   C42   A    
Cu2   O6    S    
