data_str_m2_o12_o15_f0_pcu.sym.176
_audit_creation_date              2012-12-10T17:02:30-0500
_audit_creation_method            fapswitch 2.2
_symmetry_space_group_name_H-M    P1
_symmetry_Int_Tables_number       1
_space_group_crystal_system       triclinic
_cell_length_a                    10.853846
_cell_length_b                    11.000908
_cell_length_c                    9.819646
_cell_angle_alpha                 109.653732
_cell_angle_beta                  98.963352
_cell_angle_gamma                 89.723193
_cell_volume                      1089.26963406

loop_
_atom_site_label
_atom_site_type_symbol
_atom_type_description
_atom_site_fract_x
_atom_site_fract_y
_atom_site_fract_z
_atom_type_partial_charge
C1    C     C_R   0.490533 0.254747 0.442072 0.870298
C2    C     C_R   0.501246 0.744635 0.556948 0.861319
C3    C     C_2   0.489737 0.116343 0.409331 -0.357930
C4    C     C_2   0.479010 0.879756 0.583502 -0.374012
C5    C     C_2   0.454823 0.063669 0.501327 -0.174549
C6    C     C_2   0.471944 0.927094 0.474470 -0.146432
C7    C     C_2   0.507297 0.512783 0.081591 -0.098067
C8    C     C_2   0.488413 0.491857 0.919429 -0.074591
C9    C     C_R   0.264102 0.518381 0.503220 0.803711
C10   C     C_R   0.738881 0.492220 0.499866 0.806004
C11   C     C_R   0.157901 0.667369 0.766953 -0.166233
C12   C     C_R   0.856482 0.368251 0.241359 -0.143861
C13   C     C_R   0.115939 0.701614 0.901840 0.151070
C14   C     C_R   0.892888 0.353555 0.105693 0.149408
C15   C     C_R   0.004529 0.643810 0.909527 -0.208066
C16   C     C_R   0.000764 0.420785 0.103881 -0.230160
C17   C     C_R   0.929592 0.564678 0.782227 -0.183198
C18   C     C_R   0.075434 0.492557 0.234662 -0.154451
C19   C     C_R   0.961167 0.545530 0.641637 0.093158
C20   C     C_R   0.044792 0.496546 0.370966 0.086113
C21   C     C_R   0.084279 0.583723 0.637717 0.043934
C22   C     C_R   0.924873 0.451570 0.373072 0.026665
C23   C     C_R   0.877035 0.488181 0.505967 -0.214922
C24   C     C_R   0.129948 0.542051 0.504020 -0.218778
Cu1   Cu    Cu3+1 0.521920 0.521810 0.644910 0.919485
Cu2   Cu    Cu3+1 0.478080 0.478190 0.355090 0.919127
H1    H     H_    0.028253 0.416027 0.000861 0.142993
H2    H     H_    0.974502 0.661508 0.014409 0.140657
H3    H     H_    0.245295 0.711500 0.761941 0.139878
H4    H     H_    0.776933 0.312578 0.246499 0.135395
H5    H     H_    0.850672 0.515950 0.799101 0.168973
H6    H     H_    0.155150 0.547185 0.227313 0.163836
H7    H     H_    0.487702 0.866336 0.366142 0.177534
H8    H     H_    0.419608 0.122480 0.599008 0.174272
H9    H     H_    0.464445 0.939073 0.691972 0.150930
H10   H     H_    0.519017 0.056559 0.307771 0.141283
H11   H     H_    0.416706 0.421101 0.847205 0.166969
H12   H     H_    0.576856 0.585778 0.154326 0.168869
H13   H     H_    0.622784 0.620777 0.933480 0.189712
H14   H     H_    0.380280 0.376022 0.065801 0.194958
N1    N     N_2   0.445130 0.445420 0.137360 -0.302108
N2    N     N_2   0.554870 0.554580 0.862640 -0.298129
O1    O     O_R   0.511700 0.332340 0.577400 -0.584905
O2    O     O_R   0.488300 0.667660 0.422600 -0.582713
O3    O     O_R   0.474680 0.295500 0.332650 -0.580154
O4    O     O_R   0.525320 0.704500 0.667350 -0.577883
O5    O     O_R   0.338170 0.518410 0.622370 -0.579069
O6    O     O_R   0.661830 0.481590 0.377630 -0.578994
O7    O     O_R   0.301150 0.481570 0.377630 -0.578251
O8    O     O_R   0.698850 0.518430 0.622370 -0.583424
C25   C     C_3   0.188370 0.800535 0.036828 -0.419667
C26   C     C_3   0.117204 0.925198 0.080804 -0.351772
C27   C     C_3   0.191931 0.030890 0.210386 -0.820736
H15   H     H_    0.212861 0.997970 0.306359 0.262008
H16   H     H_    0.280393 0.056268 0.180432 0.259496
H17   H     H_    0.136974 0.118698 0.240697 0.244559
H18   H     H_    0.097389 0.960872 0.986598 0.221833
H19   H     H_    0.026731 0.905553 0.111117 0.216926
H20   H     H_    0.203063 0.760615 0.127901 0.194513
H21   H     H_    0.282032 0.823097 0.016059 0.194243
C28   C     C_3   0.817327 0.273338 0.961019 -0.416322
C29   C     C_3   0.691729 0.219530 0.974586 -0.366319
C30   C     C_3   0.610421 0.164984 0.826727 -0.852989
H22   H     H_    0.599828 0.239153 0.773083 0.283358
H23   H     H_    0.653131 0.079447 0.756842 0.272958
H24   H     H_    0.516814 0.138536 0.843251 0.225657
H25   H     H_    0.706582 0.142338 0.024195 0.213731
H26   H     H_    0.640805 0.297701 0.043891 0.247577
H27   H     H_    0.799989 0.335705 0.891955 0.200345
H28   H     H_    0.873191 0.192064 0.905183 0.194929

loop_
_geom_bond_atom_site_label_1
_geom_bond_atom_site_label_2
_ccdc_geom_bond_type
C28   H28   S    
Cu1   N2    S    
C19   C23   A    
C30   H23   S    
C9    C24   S    
C29   C30   S    
Cu2   O6    S    
C10   C23   S    
Cu1   O5    S    
C2    C4    S    
C6    H7    S    
C29   H26   S    
C3    C5    D    
C5    H8    S    
Cu1   O1    S    
C16   H1    S    
C27   H16   S    
C30   H24   S    
Cu2   O2    S    
C7    C8    S    
C9    O7    A    
C13   C25   S    
C27   H15   S    
C2    O4    A    
C11   C13   A    
C1    O3    A    
C15   H2    S    
C28   C29   S    
C26   H19   S    
C29   H25   S    
C3    H10   S    
C16   C18   A    
H14   N1    S    
C17   C19   A    
C7    H12   S    
C8    N2    D    
C9    O5    A    
H13   N2    S    
C18   C20   A    
C13   C15   A    
C10   O6    A    
C5    C6    S    
C17   H5    S    
C14   C16   A    
C21   C24   A    
C25   H20   S    
C26   H18   S    
C20   C22   A    
C11   C21   A    
C25   C26   S    
C10   O8    A    
C12   C22   A    
C18   H6    S    
C26   C27   S    
C11   H3    S    
C4    C6    D    
C8    H11   S    
C27   H17   S    
C28   H27   S    
C15   C17   A    
C4    H9    S    
Cu1   O8    S    
C25   H21   S    
Cu2   O3    S    
C12   H4    S    
Cu1   Cu2   S    
C19   C21   A    
C14   C28   S    
Cu2   N1    S    
Cu1   O4    S    
C1    O1    A    
C22   C23   A    
C2    O2    A    
C20   C24   A    
C7    N1    D    
C12   C14   A    
C30   H22   S    
C1    C3    S    
Cu2   O7    S    
