data_str_m3_o41_o41_f0_fof.sym.70
_audit_creation_date              2012-12-10T16:39:38-0500
_audit_creation_method            fapswitch 2.2
_symmetry_space_group_name_H-M    P1
_symmetry_Int_Tables_number       1
_space_group_crystal_system       triclinic
_cell_length_a                    16.907
_cell_length_b                    16.733317
_cell_length_c                    16.755401
_cell_angle_alpha                 65.73471
_cell_angle_beta                  65.29192
_cell_angle_gamma                 65.787443
_cell_volume                      3759.76120492

loop_
_atom_site_label
_atom_site_type_symbol
_atom_type_description
_atom_site_fract_x
_atom_site_fract_y
_atom_site_fract_z
_atom_type_partial_charge
C1    C     C_R   0.324789 0.949627 0.459619 -0.000809
C2    C     C_R   0.313946 0.432845 0.001412 -0.015875
C3    C     C_R   0.550087 0.427343 0.961127 0.025035
C4    C     C_R   0.051573 0.438922 0.578176 0.024016
C5    C     C_R   0.973800 0.535296 0.433274 0.026296
C6    C     C_3   0.265352 0.874283 0.255306 0.149020
C7    C     C_3   0.200309 0.817487 0.290410 -0.821048
C8    C     C_3   0.694000 0.195695 0.690154 0.117522
C9    C     C_3   0.761664 0.218954 0.708326 -0.810257
C10   C     C_3   0.134131 0.211135 0.203183 0.124299
C11   C     C_3   0.157649 0.159145 0.136440 -0.755583
C12   C     C_3   0.131775 0.740104 0.731486 0.155585
C13   C     C_R   0.002637 0.679843 0.571834 -0.017838
C14   C     C_3   0.197255 0.683377 0.788657 -0.800795
C15   C     C_3   0.299338 0.330358 0.805384 0.145689
C16   C     C_3   0.397536 0.296848 0.747807 -0.933077
C17   C     C_3   0.654111 0.705707 0.201571 0.139726
C18   C     C_3   0.702383 0.718714 0.252060 -0.843047
C19   C     C_R   0.034493 0.295549 0.430846 -0.004742
C20   C     C_R   0.457602 0.976910 0.458021 -0.034686
C21   C     C_R   0.540821 0.026765 0.539947 -0.035406
C22   C     C_R   0.008345 0.439386 0.455614 -0.033638
C23   C     C_R   0.020186 0.535132 0.553346 -0.033482
C24   C     C_R   0.454641 0.452157 0.989621 -0.030221
C25   C     C_R   0.544698 0.549250 0.009961 -0.032609
C26   C     C_R   0.007398 0.161438 0.424313 0.952791
C27   C     C_R   0.674462 0.052271 0.538930 -0.008743
C28   C     C_R   0.023738 0.822032 0.568797 0.961644
C29   C     C_R   0.176874 0.430789 0.978375 0.911541
C30   C     C_R   0.822686 0.568979 0.022770 0.967627
C31   C     C_R   0.438347 0.960252 0.179831 0.874485
C32   C     C_R   0.561942 0.038387 0.820285 0.932772
C33   C     C_R   0.561207 0.820529 0.038989 0.919350
C34   C     C_R   0.438988 0.179451 0.960645 0.930768
C35   C     C_R   0.043607 0.559731 0.820419 0.870629
C36   C     C_R   0.970946 0.433211 0.179435 0.931736
C37   C     C_R   0.820405 0.036944 0.562538 0.978956
C38   C     C_R   0.971269 0.440044 0.328188 -0.014374
C39   C     C_R   0.179721 0.961807 0.437720 0.904242
C40   C     C_R   0.414398 0.955878 0.415232 0.051585
C41   C     C_R   0.584375 0.046752 0.583189 0.067997
C42   C     C_R   0.005203 0.391818 0.404597 0.073023
C43   C     C_R   0.030545 0.583440 0.598758 0.069602
C44   C     C_R   0.409517 0.405021 0.977541 0.069053
C45   C     C_R   0.589862 0.596025 0.022495 0.068566
C46   C     C_R   0.279215 0.938462 0.410436 -0.165184
C47   C     C_R   0.720922 0.060381 0.589276 -0.237328
C48   C     C_R   0.981076 0.389897 0.270998 -0.223566
C49   C     C_R   0.066315 0.535660 0.673293 0.015904
C50   C     C_R   0.071441 0.586889 0.719984 -0.191364
C51   C     C_R   0.410232 0.278982 0.939744 -0.220778
C52   C     C_R   0.588703 0.720637 0.062598 -0.270332
C53   C     C_R   0.588980 0.063586 0.719789 -0.246370
C54   C     C_R   0.411193 0.933982 0.280553 -0.216092
C55   C     C_R   0.727159 0.605531 0.029034 -0.218183
C56   C     C_R   0.272127 0.394793 0.972180 -0.254135
C57   C     C_R   0.031551 0.725205 0.606451 -0.215744
C58   C     C_R   0.024361 0.250100 0.382038 -0.256650
C59   C     C_R   0.445383 0.061155 0.709789 -0.211346
C60   C     C_R   0.459398 0.327853 0.944518 -0.015322
C61   C     C_R   0.553662 0.940034 0.289579 -0.215631
C62   C     C_R   0.951611 0.726120 0.508443 -0.226103
C63   C     C_R   0.072946 0.247759 0.504062 -0.220020
C64   C     C_R   0.734468 0.503228 0.948200 -0.213353
C65   C     C_R   0.264865 0.498373 0.051410 -0.219042
C66   C     C_R   0.285415 0.952586 0.552333 -0.216158
C67   C     C_R   0.714072 0.049054 0.446341 -0.217253
C68   C     C_R   0.555425 0.303222 0.916557 -0.219893
C69   C     C_R   0.444060 0.696820 0.084717 -0.203641
C70   C     C_R   0.932120 0.535956 0.310494 -0.237811
C71   C     C_R   0.539928 0.672455 0.056442 0.010895
C72   C     C_R   0.094954 0.439052 0.699464 -0.223585
C73   C     C_R   0.327480 0.916020 0.328452 0.359771
C74   C     C_R   0.673377 0.078735 0.672891 0.359138
C75   C     C_R   0.017412 0.295121 0.294983 0.374354
C76   C     C_R   0.075527 0.675790 0.673980 0.386929
C77   C     C_R   0.323675 0.323435 0.932928 0.419734
C78   C     C_R   0.674930 0.674934 0.071260 0.379025
C79   C     C_R   0.674603 0.021968 0.406742 0.102300
C80   C     C_R   0.324483 0.980242 0.591770 0.101167
C81   C     C_R   0.089470 0.390639 0.651411 0.109283
C82   C     C_R   0.538883 0.057633 0.672033 -0.001759
C83   C     C_R   0.933359 0.583499 0.362034 0.112421
C84   C     C_R   0.398674 0.646975 0.077815 0.111727
C85   C     C_R   0.600714 0.353542 0.923074 0.116564
C86   C     C_R   0.594652 0.966033 0.328633 0.107868
C87   C     C_R   0.404205 0.036092 0.670125 0.113392
C88   C     C_R   0.308975 0.546792 0.061833 0.107290
C89   C     C_R   0.690343 0.454615 0.938032 0.108383
C90   C     C_R   0.078543 0.294805 0.553233 0.109341
C91   C     C_R   0.942752 0.678865 0.461614 0.112410
C92   C     C_R   0.721900 0.004514 0.321205 -0.217712
C93   C     C_R   0.460152 0.943517 0.327185 0.012107
C94   C     C_R   0.277703 0.996131 0.678005 -0.231668
C95   C     C_R   0.121637 0.294694 0.674973 -0.213814
C96   C     C_R   0.895701 0.678936 0.342754 -0.216216
C97   C     C_R   0.303481 0.668357 0.110036 -0.213063
C98   C     C_R   0.695958 0.331663 0.891985 -0.214973
C99   C     C_R   0.683129 0.974549 0.283562 -0.208257
C100  C     C_R   0.316236 0.026250 0.715723 -0.205130
C101  C     C_R   0.259070 0.617956 0.103182 -0.205815
C102  C     C_R   0.740303 0.382683 0.897885 -0.202188
C103  C     C_R   0.116416 0.247238 0.626138 -0.204826
C104  C     C_R   0.685433 0.568450 0.998518 -0.020462
C105  C     C_R   0.899661 0.726112 0.392623 -0.205009
C106  C     C_R   0.546245 0.985196 0.413162 0.027907
C107  C     C_R   0.452234 0.018256 0.584919 0.026551
C108  C     C_R   0.045753 0.391003 0.529254 0.024580
C109  C     C_R   0.979270 0.583111 0.482495 0.026973
C110  C     C_R   0.404279 0.524810 0.029275 0.027929
C111  C     C_R   0.595031 0.476675 0.970300 0.027401
C112  C     C_R   0.587356 0.010868 0.453570 0.030363
C113  C     C_R   0.411150 0.992643 0.544447 0.032740
C114  C     C_R   0.449237 0.573908 0.038704 0.023655
H1    H     H_    0.278230 0.039378 0.781734 0.134836
H2    H     H_    0.263346 0.723968 0.140635 0.140030
H3    H     H_    0.864052 0.717350 0.288408 0.147314
H4    H     H_    0.151189 0.256339 0.730924 0.136824
H5    H     H_    0.402098 0.084649 0.769398 0.175438
H6    H     H_    0.597222 0.915031 0.230957 0.176678
H7    H     H_    0.917968 0.798736 0.494434 0.175793
H8    H     H_    0.101568 0.174028 0.521221 0.163862
H9    H     H_    0.806917 0.489245 0.915572 0.177379
H10   H     H_    0.192427 0.512264 0.084159 0.177529
H11   H     H_    0.226182 0.930156 0.597718 0.173315
H12   H     H_    0.721508 0.960157 0.218155 0.134804
H13   H     H_    0.774322 0.069885 0.401510 0.184333
H14   H     H_    0.595348 0.247904 0.885579 0.164093
H15   H     H_    0.404491 0.751376 0.116457 0.151108
H16   H     H_    0.900130 0.574912 0.257027 0.171961
H17   H     H_    0.124437 0.401365 0.755175 0.144889
H18   H     H_    0.313932 0.860360 0.190196 0.157649
H19   H     H_    0.227297 0.948370 0.240118 0.151374
H20   H     H_    0.153749 0.822183 0.359269 0.299520
H21   H     H_    0.159753 0.842544 0.242666 0.181530
H22   H     H_    0.239196 0.744510 0.295398 0.248025
H23   H     H_    0.870836 0.799839 0.375758 0.147258
H24   H     H_    0.624280 0.223748 0.732788 0.125288
H25   H     H_    0.698345 0.229363 0.616054 0.127226
H26   H     H_    0.830328 0.199486 0.659809 0.273816
H27   H     H_    0.740720 0.293589 0.699077 0.204777
H28   H     H_    0.764774 0.180589 0.779442 0.243101
H29   H     H_    0.163453 0.162998 0.260132 0.103368
H30   H     H_    0.165898 0.268290 0.166236 0.123739
H31   H     H_    0.132762 0.205928 0.076589 0.269088
H32   H     H_    0.232430 0.129925 0.111992 0.229814
H33   H     H_    0.125655 0.102513 0.171069 0.222979
H34   H     H_    0.141742 0.173262 0.645574 0.148357
H35   H     H_    0.060059 0.754100 0.776276 0.146050
H36   H     H_    0.145138 0.807756 0.694663 0.158038
H37   H     H_    0.267513 0.685670 0.745231 0.245377
H38   H     H_    0.177719 0.711117 0.846287 0.201805
H39   H     H_    0.196506 0.611001 0.816477 0.268795
H40   H     H_    0.276672 0.406490 0.788383 0.123913
H41   H     H_    0.256348 0.311011 0.785570 0.154228
H42   H     H_    0.442408 0.326737 0.752809 0.235143
H43   H     H_    0.422569 0.221158 0.771526 0.253960
H44   H     H_    0.400821 0.318358 0.674625 0.236238
H45   H     H_    0.813903 0.364338 0.873097 0.144612
H46   H     H_    0.635175 0.640614 0.241634 0.130550
H47   H     H_    0.591102 0.763868 0.199908 0.130718
H48   H     H_    0.731648 0.777002 0.209463 0.249836
H49   H     H_    0.653727 0.732412 0.317651 0.218882
H50   H     H_    0.757104 0.655470 0.267994 0.240147
H51   H     H_    0.185509 0.635824 0.128661 0.143640
H52   H     H_    0.210404 0.987326 0.715326 0.128833
H53   H     H_    0.789760 0.011921 0.284436 0.135805
H54   H     H_    0.736431 0.274938 0.863394 0.141282
O1    O     O_R   0.982940 0.138950 0.510160 -0.646723
O2    O     O_R   0.982940 0.510160 0.138950 -0.653831
O3    O     O_R   0.861050 0.017060 0.489840 -0.666095
O4    O     O_R   0.138950 0.982940 0.510160 -0.678923
O5    O     O_R   0.867700 0.025880 0.612340 -0.558737
O6    O     O_R   0.132300 0.974120 0.387660 -0.644760
O7    O     O_R   0.025880 0.612340 0.867700 -0.634745
O8    O     O_R   0.974120 0.387660 0.132300 -0.556487
O9    O     O_R   0.612340 0.867700 0.025880 -0.579886
O10   O     O_R   0.387660 0.132300 0.974120 -0.583883
O11   O     O_R   0.387660 0.974120 0.132300 -0.665574
O12   O     O_R   0.017060 0.861050 0.489840 -0.653390
O13   O     O_R   0.612340 0.025880 0.867700 -0.563988
O14   O     O_R   0.132300 0.387660 0.974120 -0.593985
O15   O     O_R   0.867700 0.612340 0.025880 -0.563104
O16   O     O_R   0.974120 0.132300 0.387660 -0.569004
O17   O     O_R   0.025880 0.867700 0.612340 -0.641447
O18   O     O_3   0.313200 0.844505 0.319043 -0.603241
O19   O     O_3   0.715154 0.099604 0.714317 -0.571176
O20   O     O_3   0.038575 0.245062 0.236388 -0.568636
O21   O     O_3   0.150262 0.697660 0.665481 -0.604317
O22   O     O_3   0.286073 0.287561 0.900665 -0.597410
O23   O     O_R   0.138950 0.510160 0.982940 -0.658610
O24   O     O_3   0.711850 0.703651 0.111532 -0.576986
O25   O     O_R   0.861050 0.489840 0.017060 -0.651970
O26   O     O_R   0.510160 0.982940 0.138950 -0.628903
O27   O     O_R   0.489840 0.017060 0.861050 -0.645618
O28   O     O_R   0.489840 0.861050 0.017060 -0.636040
O29   O     O_R   0.510160 0.138950 0.982940 -0.638194
O30   O     O_R   0.017060 0.489840 0.861050 -0.637030
Zn1   Zn    Zn3+2 0.004880 0.004880 0.583590 0.914439
Zn2   Zn    Zn3+2 0.995120 0.995120 0.416410 0.919380
Zn3   Zn    Zn3+2 0.004880 0.583590 0.004880 0.936284
Zn4   Zn    Zn3+2 0.995120 0.416410 0.995120 0.960624
Zn5   Zn    Zn3+2 0.583590 0.004880 0.004880 0.975030
Zn6   Zn    Zn3+2 0.416410 0.995120 0.995120 0.912335

loop_
_geom_bond_atom_site_label_1
_geom_bond_atom_site_label_2
_ccdc_geom_bond_type
C89   C111  A    
C96   C105  A    
C38   C70   A    
C16   H42   S    
O10   Zn6   S    
C89   C102  A    
C3    C85   A    
C30   O15   A    
C91   C105  A    
C75   O20   S    
C92   H53   S    
C59   C82   A    
C40   C93   A    
C2    C65   A    
C11   H33   S    
C94   H52   S    
C92   C99   A    
C88   C101  A    
C25   C111  A    
C22   C108  A    
C106  C112  A    
C28   C57   S    
C33   C52   S    
C12   O21   S    
C4    C108  A    
C34   C51   S    
C39   O4    A    
C79   C112  A    
C65   C88   A    
C8    H25   S    
C77   O22   S    
C57   C76   A    
C59   H5    S    
C38   C42   A    
C6    H19   S    
C67   H13   S    
C32   O27   A    
C20   C113  A    
C81   C95   A    
C9    H26   S    
C61   C93   A    
C1    C46   A    
C30   O25   A    
O5    Zn1   S    
O26   Zn5   S    
C15   C16   S    
C70   H16   S    
C23   C43   A    
O4    Zn1   S    
C8    H24   S    
C65   H10   S    
C69   C71   A    
C17   H46   S    
C27   C41   A    
C107  C113  A    
O2    Zn3   S    
C85   C98   A    
C1    C40   A    
C18   H50   S    
C5    C22   A    
C53   C74   A    
C26   O1    A    
C19   C63   A    
C8    C9    S    
C15   H40   S    
C49   C72   A    
C14   H37   S    
O30   Zn4   S    
C10   O20   S    
O9    Zn5   S    
O29   Zn5   S    
C76   O21   S    
C37   C47   S    
C68   H14   S    
C15   H41   S    
C72   C81   A    
C19   C42   A    
O1    Zn1   S    
C88   C110  A    
C95   H4    S    
C61   H6    S    
C68   C85   A    
C48   C75   A    
C3    C24   A    
C86   C106  A    
C100  H1    S    
C64   C89   A    
C39   O6    A    
C52   C78   A    
C95   C103  A    
C103  H34   S    
C1    C66   A    
C99   H12   S    
C20   C106  A    
O6    Zn2   S    
C8    O19   S    
C23   C109  A    
C29   O14   A    
C13   C62   A    
C16   H44   S    
O15   Zn3   S    
C12   H36   S    
C32   O13   A    
C24   C110  A    
C14   H38   S    
C33   O28   A    
C7    H20   S    
C6    H18   S    
C10   C11   S    
C2    C44   A    
C55   C78   A    
C9    H27   S    
C43   C49   A    
O27   Zn6   S    
O16   Zn2   S    
C98   C102  A    
C33   O9    A    
C55   C104  A    
O25   Zn4   S    
C31   O11   A    
C53   C82   A    
C19   C58   A    
C51   C77   A    
C83   C96   A    
C7    H21   S    
O3    Zn2   S    
O12   Zn2   S    
C45   C104  A    
C50   C76   A    
O11   Zn6   S    
C31   O26   A    
C54   C73   A    
C28   O12   A    
C18   H49   S    
C96   H3    S    
C20   C40   A    
C94   C100  A    
C62   H7    S    
C97   C101  A    
C62   C91   A    
C35   C50   S    
C29   O23   A    
C17   C18   S    
C78   O24   S    
C10   H30   S    
O17   Zn1   S    
C97   H2    S    
C101  H51   S    
C86   C99   A    
C26   C58   S    
O7    Zn3   S    
C79   C92   A    
C21   C107  A    
C17   H47   S    
C39   C46   S    
C21   C41   A    
C15   O22   S    
C12   C14   S    
C36   O8    A    
C14   H39   S    
C73   O18   S    
C24   C44   A    
C34   O10   A    
O28   Zn6   S    
C84   C97   A    
C80   C94   A    
C64   H9    S    
C25   C45   A    
C32   C53   S    
C13   C43   A    
C21   C112  A    
C45   C71   A    
C72   H17   S    
C87   C100  A    
C27   C47   A    
C4    C23   A    
C110  C114  A    
C84   C114  A    
C56   C77   A    
C16   H43   S    
O14   Zn4   S    
C38   C48   A    
C12   H35   S    
C64   C104  A    
C47   C74   A    
C37   O5    A    
C102  H45   S    
C37   O3    A    
O13   Zn5   S    
C9    H28   S    
C87   C107  A    
C11   H32   S    
C6    C7    S    
C29   C56   S    
O8    Zn4   S    
C66   C80   A    
C30   C55   S    
C6    O18   S    
C36   O2    A    
C54   C93   A    
C66   H11   S    
C35   O7    A    
C11   H31   S    
C105  H23   S    
C90   C108  A    
C7    H22   S    
C69   C84   A    
C2    C56   A    
C25   C114  A    
C63   H8    S    
C18   H48   S    
C34   O29   A    
C91   C109  A    
C70   C83   A    
C17   O24   S    
C5    C109  A    
C44   C60   A    
C5    C83   A    
C41   C82   A    
C4    C81   A    
C63   C90   A    
C36   C48   S    
C10   H29   S    
C46   C73   A    
C31   C54   S    
C59   C87   A    
C90   C103  A    
C27   C67   A    
C61   C86   A    
C74   O19   S    
C3    C111  A    
C13   C57   A    
C80   C113  A    
C60   C68   A    
C69   H15   S    
C49   C50   A    
C22   C42   A    
C52   C71   A    
C51   C60   A    
O23   Zn3   S    
C28   O17   A    
C67   C79   A    
C98   H54   S    
C35   O30   A    
C58   C75   A    
C26   O16   A    
