data_str_m2_o10_o28_f0_pcu.sym.231
_audit_creation_date              2012-12-10T16:50:15-0500
_audit_creation_method            fapswitch 2.2
_symmetry_space_group_name_H-M    P1
_symmetry_Int_Tables_number       1
_space_group_crystal_system       triclinic
_cell_length_a                    23.521195
_cell_length_b                    8.760299
_cell_length_c                    7.405037
_cell_angle_alpha                 103.140876
_cell_angle_beta                  93.727214
_cell_angle_gamma                 91.860568
_cell_volume                      1480.97622261

loop_
_atom_site_label
_atom_site_type_symbol
_atom_type_description
_atom_site_fract_x
_atom_site_fract_y
_atom_site_fract_z
_atom_type_partial_charge
C1    C     C_R   0.497176 0.200201 0.454352 0.877677
C2    C     C_R   0.501081 0.799802 0.546487 0.841896
C3    C     C_R   0.240567 0.576497 0.659993 -0.147804
C4    C     C_R   0.764533 0.413276 0.570020 -0.154218
C5    C     C_R   0.300293 0.581443 0.669020 0.296000
C6    C     C_R   0.705541 0.406305 0.582897 0.297581
C7    C     C_R   0.328208 0.510683 0.508381 -0.162590
C8    C     C_R   0.670912 0.495841 0.486611 -0.118726
C9    C     C_R   0.295021 0.446473 0.341512 -0.177563
C10   C     C_R   0.696083 0.585871 0.375796 -0.238563
C11   C     C_R   0.235966 0.450343 0.332846 -0.064653
C12   C     C_R   0.754853 0.589776 0.362369 -0.056590
C13   C     C_R   0.208251 0.513043 0.492510 0.253461
C14   C     C_R   0.789203 0.503869 0.460047 0.261033
C15   C     C_2   0.490163 0.034399 0.431570 0.079356
C16   C     C_2   0.505220 0.966238 0.573061 0.120688
C17   C     C_R   0.390924 0.504763 0.504003 0.822759
C18   C     C_R   0.608826 0.496872 0.496155 0.856130
C19   C     C_R   0.880841 0.643437 0.527426 0.606002
C20   C     C_R   0.115777 0.375765 0.418934 0.601620
C21   C     C_R   0.875273 0.372812 0.370526 0.598841
C22   C     C_R   0.120999 0.652694 0.541643 0.614685
C23   C     C_R   0.935545 0.366620 0.380076 -0.145692
C24   C     C_R   0.060906 0.655499 0.547505 -0.130719
C25   C     C_R   0.968073 0.508821 0.460193 -0.062932
C26   C     C_R   0.028399 0.512929 0.470585 -0.061501
C27   C     C_R   0.940365 0.647384 0.531594 -0.091990
C28   C     C_R   0.056187 0.373576 0.404943 -0.072252
C29   C     C_R   0.964901 0.226294 0.315933 0.423170
C30   C     C_R   0.031777 0.793063 0.624912 0.436030
C31   C     C_R   0.024427 0.233341 0.329081 -0.117762
C32   C     C_R   0.972230 0.786428 0.612589 -0.142255
Cu1   Cu    Cu3+1 0.506340 0.517380 0.684380 1.128992
Cu2   Cu    Cu3+1 0.493660 0.482620 0.315620 1.101298
H1    H     H_    0.046499 0.127213 0.279388 0.254780
H2    H     H_    0.950297 0.891248 0.669721 0.252351
H3    H     H_    0.218674 0.625613 0.782601 0.201042
H4    H     H_    0.791825 0.346578 0.643420 0.196230
H5    H     H_    0.314759 0.393237 0.215735 0.207281
H6    H     H_    0.670141 0.654264 0.300410 0.175529
H7    H     H_    0.211645 0.403253 0.201521 0.170376
H8    H     H_    0.773737 0.659595 0.276407 0.180899
H9    H     H_    0.455814 0.378954 0.947967 0.252063
H10   H     H_    0.544432 0.620382 0.051888 0.240221
N1    N     N_R   0.849855 0.507760 0.449016 -0.476515
N2    N     N_R   0.146919 0.513840 0.484458 -0.470075
N3    N     N_2   0.484110 0.456420 0.038520 -0.142692
N4    N     N_2   0.515890 0.543580 0.961480 -0.142451
O1    O     O_R   0.504120 0.286130 0.619770 -0.562423
O2    O     O_R   0.495880 0.713870 0.380230 -0.571241
O3    O     O_R   0.493410 0.256770 0.308360 -0.532176
O4    O     O_R   0.506590 0.743230 0.691640 -0.513524
O5    O     O_R   0.423230 0.514630 0.655730 -0.541958
O6    O     O_R   0.576770 0.485370 0.344270 -0.591858
O7    O     O_R   0.412530 0.485280 0.344320 -0.563251
O8    O     O_R   0.587470 0.514720 0.655680 -0.541198
O9    O     O_2   0.853936 0.773624 0.604304 -0.451320
O10   O     O_2   0.142573 0.240293 0.368111 -0.492716
O11   O     O_2   0.841659 0.247265 0.282607 -0.408691
O12   O     O_2   0.153602 0.786848 0.586028 -0.422383
S1    S     S_3+6 0.931327 0.036496 0.225963 0.068530
O13   O     O_2   0.891544 0.998770 0.362384 -0.232910
O14   O     O_2   0.898316 0.033646 0.044326 -0.191687
O15   O     O_3   0.979965 0.898066 0.189057 -0.535763
H11   H     H_    0.957391 0.797094 0.149761 0.370288
S2    S     S_3+6 0.066079 0.973157 0.752578 0.064059
O16   O     O_2   0.095872 0.051788 0.622157 -0.217812
O17   O     O_2   0.023443 0.081972 0.848022 -0.291423
O18   O     O_3   0.113928 0.937287 0.914999 -0.468564
H12   H     H_    0.131553 0.041563 0.978247 0.394744
S3    S     S_3+6 0.337199 0.690160 0.877051 0.063430
O19   O     O_2   0.297038 0.786516 0.001118 -0.247106
O20   O     O_2   0.364874 0.579079 0.979196 -0.255027
O21   O     O_3   0.387604 0.810816 0.825713 -0.444178
H13   H     H_    0.366926 0.874214 0.750199 0.337582
S4    S     S_3+6 0.676649 0.273418 0.704690 0.076006
O22   O     O_2   0.630964 0.170418 0.579639 -0.250032
O23   O     O_2   0.721802 0.171717 0.760047 -0.218138
O24   O     O_3   0.648104 0.371851 0.897043 -0.459817
H14   H     H_    0.679056 0.446443 0.964655 0.329731
Cl1   Cl    Cl    0.456024 0.934108 0.213467 -0.441358
Cl2   Cl    Cl    0.534499 0.066825 0.798982 -0.428263

loop_
_geom_bond_atom_site_label_1
_geom_bond_atom_site_label_2
_ccdc_geom_bond_type
S2    O17   D    
C17   O5    A    
S4    O24   S    
C15   Cl1   S    
C19   O9    S    
Cu1   O4    S    
Cu2   O3    S    
C32   H2    S    
C24   C26   A    
C21   O11   S    
C22   O12   S    
C13   N2    S    
S2    O18   S    
Cu1   O1    S    
C15   C16   D    
C9    H5    S    
C10   H6    S    
S1    O14   D    
C12   H8    S    
C2    O2    A    
C7    C17   S    
C1    C15   S    
C2    C16   S    
C17   O7    A    
C3    C13   A    
C18   O8    A    
Cu1   O8    S    
S2    O16   D    
Cu2   O7    S    
O18   H12   S    
C10   C12   A    
C14   N1    S    
C21   N1    A    
Cu1   O5    S    
C29   S1    S    
Cu2   O2    S    
O21   H13   S    
S4    O23   D    
S4    O22   D    
C4    C6    A    
C5    C7    A    
C6    C8    A    
C20   C28   A    
C25   C26   A    
C8    C18   S    
S1    O15   S    
C9    C11   A    
N3    N4    D    
C16   Cl2   S    
Cu1   Cu2   S    
C1    O3    A    
C30   S2    S    
C2    O4    A    
C8    C10   A    
C22   N2    A    
C12   C14   A    
Cu2   O6    S    
C21   C23   A    
C22   C24   A    
C20   O10   S    
C23   C29   A    
C19   C27   A    
S3    O20   D    
C7    C9    A    
C27   C32   A    
C28   C31   A    
C4    H4    S    
C3    C5    A    
S3    O21   S    
C19   N1    A    
C6    S4    S    
C25   C27   A    
C26   C28   A    
O15   H11   S    
S3    O19   D    
C5    S3    S    
C30   C32   A    
C11   C13   A    
C1    O1    A    
C11   H7    S    
C31   H1    S    
C23   C25   A    
C4    C14   A    
S1    O13   D    
C24   C30   A    
C18   O6    A    
O24   H14   S    
C3    H3    S    
C29   C31   A    
Cu1   N4    S    
Cu2   N3    S    
H9    N3    S    
C20   N2    A    
H10   N4    S    
