data_str_m9_o1_o2_f0_sra.sym.60
_audit_creation_date              2012-12-11T15:54:43-0500
_audit_creation_method            fapswitch 2.2
_symmetry_space_group_name_H-M    P1
_symmetry_Int_Tables_number       1
_space_group_crystal_system       triclinic
_cell_length_a                    6.927924
_cell_length_b                    14.537862
_cell_length_c                    16.091843
_cell_angle_alpha                 90.002835
_cell_angle_beta                  90.275147
_cell_angle_gamma                 89.789624
_cell_volume                      1620.6958052

loop_
_atom_site_label
_atom_site_type_symbol
_atom_type_description
_atom_site_fract_x
_atom_site_fract_y
_atom_site_fract_z
_atom_type_partial_charge
O1    O     O_R   0.638180 0.333920 0.163320 -0.548130
O2    O     O_R   0.361820 0.666080 0.836680 -0.548130
O3    O     O_R   0.308470 0.344960 0.336080 -0.537619
O4    O     O_R   0.691530 0.655040 0.663920 -0.537619
O5    O     O_R   0.138140 0.166110 0.336680 -0.533689
O6    O     O_R   0.861860 0.833890 0.663320 -0.533689
C1    C     C_R   0.477597 0.367234 0.365031 0.723223
C2    C     C_R   0.522403 0.632766 0.634969 0.723224
O7    O     O_R   0.308460 0.344950 0.163930 -0.544934
O8    O     O_R   0.691540 0.655050 0.836070 -0.544934
O9    O     O_R   0.138140 0.166100 0.163310 -0.546812
O10   O     O_R   0.861860 0.833900 0.836690 -0.546812
C3    C     C_R   0.476372 0.368361 0.135952 0.689547
C4    C     C_R   0.523628 0.631638 0.864048 0.689547
O11   O     O_R   0.638180 0.333930 0.336700 -0.520996
O12   O     O_R   0.361820 0.666070 0.663300 -0.520997
O13   O     O_3   0.471670 0.191340 0.250000 -0.373042
O14   O     O_3   0.528330 0.808660 0.750000 -0.373042
V1    V     V_3+5 0.196830 0.260900 0.250000 1.464861
V2    V     V_3+5 0.803170 0.739100 0.750000 1.464861
O15   O     O_R   0.808420 0.155070 0.163920 -0.549876
O16   O     O_R   0.191580 0.844930 0.836080 -0.549877
C5    C     C_R   0.977426 0.132772 0.135002 0.662458
C6    C     C_R   0.022574 0.867228 0.864997 0.662459
O17   O     O_R   0.808420 0.155080 0.336070 -0.527366
O18   O     O_R   0.191580 0.844920 0.663930 -0.527366
C7    C     C_R   0.977705 0.133621 0.365057 0.837258
C8    C     C_R   0.022295 0.866379 0.634943 0.837259
V3    V     V_3+5 0.696830 0.239130 0.250000 1.480669
V4    V     V_3+5 0.303170 0.760870 0.750000 1.480669
O19   O     O_3   0.971850 0.308690 0.250010 -0.368303
O20   O     O_3   0.028150 0.691310 0.749990 -0.368303
C9    C     C_R   0.930532 0.188384 0.539485 0.495981
C10   C     C_R   0.069468 0.811616 0.460515 0.495981
C11   C     C_R   0.906576 0.214719 0.622100 -0.251866
C12   C     C_R   0.093424 0.785281 0.377900 -0.251866
C13   C     C_R   0.916256 0.149959 0.685342 0.613298
C14   C     C_R   0.083744 0.850041 0.314658 0.613298
C15   C     C_R   0.950461 0.057925 0.666685 -0.255269
C16   C     C_R   0.049539 0.942075 0.333315 -0.255269
C17   C     C_R   0.975080 0.028277 0.583575 -0.097936
C18   C     C_R   0.024919 0.971723 0.416425 -0.097936
C19   C     C_R   0.964335 0.094584 0.518188 -0.035063
C20   C     C_R   0.035665 0.905415 0.481812 -0.035063
C21   C     C_R   0.011137 0.934149 0.565665 -0.094152
C22   C     C_R   0.988863 0.065851 0.434335 -0.094152
H1    H     H_    0.880794 0.286315 0.637154 0.168604
H2    H     H_    0.119206 0.713685 0.362846 0.168604
H3    H     H_    0.957724 0.010367 0.718336 0.129433
H4    H     H_    0.042276 0.989633 0.281664 0.129433
C23   C     C_R   0.179354 0.975764 0.966828 -0.116704
C24   C     C_R   0.820646 0.024235 0.033172 -0.116704
H5    H     H_    0.320051 0.958209 0.942318 0.115032
H6    H     H_    0.679949 0.041791 0.057682 0.115032
C25   C     C_R   0.168158 0.039249 0.032117 -0.106737
C26   C     C_R   0.831842 0.960750 0.967883 -0.106737
H7    H     H_    0.300824 0.068792 0.055693 0.115674
H8    H     H_    0.699176 0.931208 0.944307 0.115674
C27   C     C_R   0.988641 0.064394 0.066214 -0.032270
C28   C     C_R   0.011359 0.935606 0.933786 -0.032269
C29   C     C_R   0.320159 0.472337 0.469318 -0.147664
C30   C     C_R   0.679841 0.527663 0.530682 -0.147664
H9    H     H_    0.179108 0.451896 0.446886 0.143058
H10   H     H_    0.820892 0.548104 0.553114 0.143058
C31   C     C_R   0.331243 0.535863 0.534561 -0.105872
C32   C     C_R   0.668756 0.464136 0.465439 -0.105872
H11   H     H_    0.198191 0.562507 0.560271 0.162132
H12   H     H_    0.801809 0.437493 0.439729 0.162132
C33   C     C_R   0.511231 0.564423 0.566167 -0.056328
C34   C     C_R   0.488769 0.435576 0.433833 -0.056328
C35   C     C_R   0.335192 0.502104 0.051510 0.149560
C36   C     C_R   0.664808 0.497896 0.948490 0.149560
C37   C     C_R   0.353249 0.563647 0.984806 -0.171899
C38   C     C_R   0.646751 0.436353 0.015194 -0.171899
H13   H     H_    0.239699 0.613756 0.973935 0.130477
H14   H     H_    0.760301 0.386244 0.026065 0.130478
C39   C     C_R   0.515627 0.563065 0.932844 -0.089906
C40   C     C_R   0.484373 0.436935 0.067156 -0.089905
F1    F     F_    0.106808 0.823461 0.234514 -0.673516
F2    F     F_    0.893192 0.176539 0.765485 -0.673516
F3    F     F_    0.921574 0.256201 0.481657 -0.712199
F4    F     F_    0.078426 0.743798 0.518343 -0.712199
C41   C     C_3   0.158047 0.509834 0.105380 -0.701140
H15   H     H_    0.067277 0.570138 0.088246 0.205419
H16   H     H_    0.067058 0.447732 0.097851 0.207398
H17   H     H_    0.201076 0.518174 0.171506 0.205205
C42   C     C_3   0.841953 0.490166 0.894620 -0.701140
H18   H     H_    0.932723 0.429861 0.911754 0.205419
H19   H     H_    0.798924 0.481825 0.828494 0.205205
H20   H     H_    0.932942 0.552268 0.902149 0.207398

loop_
_geom_bond_atom_site_label_1
_geom_bond_atom_site_label_2
_ccdc_geom_bond_type
C29   C34   A    
C32   H12   S    
C42   H18   S    
C25   C27   A    
O13   V3    S    
O4    C2    A    
V1    O19   S    
C1    C34   S    
C15   C17   A    
C5    C27   S    
O9    V1    S    
C2    C33   S    
C38   H14   S    
C11   C13   A    
O3    C1    A    
C16   H4    S    
C14   F1    S    
O12   V4    S    
C18   C22   A    
C4    C39   S    
C29   H9    S    
O7    C3    A    
C30   H10   S    
O13   V1    S    
O5    C7    A    
O7    V1    S    
O6    C8    A    
O8    V2    S    
C31   H11   S    
O3    V1    S    
O14   V4    S    
V4    O20   S    
C23   C25   A    
C16   C18   A    
C11   H1    S    
C2    O12   A    
C17   C19   A    
C18   C20   A    
C24   H6    S    
O11   V3    S    
C35   C41   S    
O17   V3    S    
C13   F2    S    
C8    C21   S    
C30   C32   A    
C9    C19   A    
C10   C20   A    
C36   C38   A    
O8    C4    A    
C35   C37   A    
C1    O11   A    
O15   V3    S    
C26   C28   A    
C30   C33   A    
C23   H5    S    
C36   C39   A    
C24   C27   A    
C41   H15   S    
C6    C28   S    
O10   V2    S    
O1    V3    S    
C7    C22   S    
C41   H16   S    
O18   V4    S    
C25   H7    S    
O16   C6    A    
O1    C3    A    
C37   H13   S    
C12   C14   A    
C36   C42   S    
C20   C21   A    
V2    O20   S    
C3    C40   S    
C37   C39   A    
O16   V4    S    
C15   H3    S    
O5    V1    S    
O17   C7    A    
O6    V2    S    
O10   C6    A    
O18   C8    A    
O2    V4    S    
O15   C5    A    
V3    O19   S    
C14   C16   A    
C32   C34   A    
C31   C33   A    
O9    C5    A    
C9    C11   A    
C10   C12   A    
C26   H8    S    
C12   H2    S    
O14   V2    S    
O2    C4    A    
C19   C22   A    
O4    V2    S    
C29   C31   A    
C41   H17   S    
C13   C15   A    
C38   C40   A    
C42   H20   S    
C42   H19   S    
C17   C21   A    
C23   C28   A    
C10   F4    S    
C9    F3    S    
C35   C40   A    
C24   C26   A    
