data_str_m3_o1_o13_f0_pcu.sym.160
_audit_creation_date              2012-12-10T18:44:23-0500
_audit_creation_method            fapswitch 2.2
_symmetry_space_group_name_H-M    P1
_symmetry_Int_Tables_number       1
_space_group_crystal_system       triclinic
_cell_length_a                    12.789951
_cell_length_b                    10.590897
_cell_length_c                    10.035358
_cell_angle_alpha                 90.098323
_cell_angle_beta                  97.696821
_cell_angle_gamma                 92.51121
_cell_volume                      1345.77988796

loop_
_atom_site_label
_atom_site_type_symbol
_atom_type_description
_atom_site_fract_x
_atom_site_fract_y
_atom_site_fract_z
_atom_type_partial_charge
C1    C     C_R   0.509408 0.259485 0.501670 0.883083
C2    C     C_R   0.484832 0.738032 0.498486 0.907320
C3    C     C_R   0.457508 0.869934 0.498061 -0.221024
C4    C     C_R   0.517414 0.122398 0.503817 -0.193966
C5    C     C_R   0.573863 0.572068 0.082984 0.111184
C6    C     C_R   0.427370 0.426330 0.917135 0.109158
C7    C     C_R   0.572125 0.573632 0.940497 0.396496
C8    C     C_R   0.425658 0.429842 0.059043 0.391574
C9    C     C_R   0.298241 0.510490 0.471440 0.873388
C10   C     C_R   0.701494 0.489050 0.528809 0.888536
C11   C     C_R   0.814882 0.467992 0.554308 -0.345497
C12   C     C_R   0.184328 0.530403 0.447228 -0.293135
C13   C     C_R   0.020135 0.446413 0.328157 0.500231
C14   C     C_R   0.978739 0.551979 0.673150 0.484573
C15   C     C_R   0.123185 0.496685 0.324181 -0.013538
C16   C     C_R   0.875838 0.505272 0.676849 0.062358
C17   C     C_R   0.133411 0.571410 0.553398 0.400756
C18   C     C_R   0.865892 0.426378 0.448223 0.427186
C19   C     C_R   0.027982 0.532298 0.557190 -0.170111
C20   C     C_R   0.971860 0.464666 0.445074 -0.114469
C21   C     C_R   0.500174 0.056440 0.379767 0.111782
C22   C     C_R   0.465497 0.936049 0.620211 0.142450
C23   C     C_R   0.452847 0.935412 0.377672 0.082044
C24   C     C_R   0.514394 0.056227 0.626121 0.093434
N1    N     N_R   0.499970 0.499970 0.857200 -0.204901
N2    N     N_R   0.500030 0.500030 0.142800 -0.197920
O1    O     O_R   0.499990 0.316750 0.614620 -0.638784
O2    O     O_R   0.500010 0.683250 0.385380 -0.627095
O3    O     O_R   0.499990 0.316780 0.385290 -0.622124
O4    O     O_R   0.500010 0.683220 0.614710 -0.628983
O5    O     O_R   0.346360 0.499970 0.595710 -0.606391
O6    O     O_R   0.653640 0.500030 0.404290 -0.596113
O7    O     O_R   0.346360 0.499990 0.366380 -0.635103
O8    O     O_R   0.653640 0.500010 0.633620 -0.642195
Zn1   Zn    Zn3+2 0.500000 0.499980 0.653120 0.903974
Zn2   Zn    Zn3+2 0.500000 0.500020 0.346880 0.913165
O9    O     O_3   0.813415 0.348449 0.348242 -0.706358
H1    H     H_    0.752157 0.306039 0.382652 0.316656
O10   O     O_3   0.184606 0.653173 0.650055 -0.750919
H2    H     H_    0.243650 0.696314 0.611773 0.327311
C25   C     C_3   0.842185 0.477871 0.814508 -0.297307
C26   C     C_3   0.906126 0.372375 0.884275 -0.925710
H3    H     H_    0.903844 0.289176 0.816166 0.264074
H4    H     H_    0.989514 0.404316 0.915290 0.267244
H5    H     H_    0.870927 0.342209 0.974930 0.293053
H6    H     H_    0.852970 0.564901 0.877270 0.248888
H7    H     H_    0.759699 0.443283 0.812500 0.248687
C27   C     C_3   0.156931 0.538394 0.190245 -0.364140
C28   C     C_3   0.081778 0.633732 0.120564 -0.860953
H8    H     H_    0.004327 0.587391 0.081511 0.295266
H9    H     H_    0.069540 0.710519 0.191726 0.258513
H10   H     H_    0.116656 0.677200 0.035181 0.277734
H11   H     H_    0.235024 0.589053 0.202621 0.250059
H12   H     H_    0.161458 0.456032 0.123432 0.224472
O11   O     O_3   0.964139 0.386269 0.217156 -0.726685
H13   H     H_    0.014757 0.349904 0.162894 0.325963
O12   O     O_3   0.028331 0.617046 0.784225 -0.729191
H14   H     H_    0.088157 0.566565 0.821523 0.349968
C29   C     C_3   0.573247 0.085176 0.275230 -0.318475
C30   C     C_3   0.521115 0.149228 0.149340 -0.797151
H15   H     H_    0.548520 0.108290 0.059091 0.216712
H16   H     H_    0.433777 0.138057 0.138704 0.276673
H17   H     H_    0.546434 0.250407 0.152917 0.270330
H18   H     H_    0.642538 0.144135 0.320281 0.189441
H19   H     H_    0.607564 0.996372 0.245653 0.191937
C31   C     C_3   0.377590 0.915385 0.706972 -0.417662
C32   C     C_3   0.396386 0.813550 0.813026 -0.804809
H20   H     H_    0.385886 0.717252 0.770324 0.299644
H21   H     H_    0.476268 0.826534 0.871064 0.263710
H22   H     H_    0.334621 0.819952 0.879898 0.249762
H23   H     H_    0.364483 0.004549 0.760065 0.194054
H24   H     H_    0.301876 0.894241 0.641588 0.208717
C33   C     C_3   0.374135 0.889183 0.259664 -0.331934
C34   C     C_3   0.425974 0.841817 0.143007 -0.839974
H25   H     H_    0.506358 0.812517 0.177174 0.263192
H26   H     H_    0.379372 0.758864 0.095354 0.243531
H27   H     H_    0.430628 0.918059 0.068653 0.252133
H28   H     H_    0.322248 0.811230 0.292257 0.192057
H29   H     H_    0.320824 0.966155 0.225154 0.197963
C35   C     C_3   0.565488 0.106213 0.763039 -0.376889
C36   C     C_3   0.681472 0.147014 0.762392 -0.829298
H30   H     H_    0.689898 0.227438 0.693437 0.257199
H31   H     H_    0.716540 0.177145 0.865343 0.252183
H32   H     H_    0.725830 0.066846 0.730598 0.260699
H33   H     H_    0.521753 0.183784 0.800102 0.212407
H34   H     H_    0.563860 0.030401 0.839168 0.208595
C37   C     C_3   0.659021 0.655319 0.164245 -0.337158
C38   C     C_3   0.768500 0.602431 0.166683 -0.691912
H35   H     H_    0.763556 0.497766 0.163805 0.310695
H36   H     H_    0.805180 0.636558 0.078745 0.254691
H37   H     H_    0.820552 0.635471 0.258737 0.228793
H38   H     H_    0.661008 0.751317 0.119799 0.197155
H39   H     H_    0.643069 0.671737 0.266927 0.245769
C39   C     C_3   0.348310 0.335123 0.836674 -0.297964
C40   C     C_3   0.236323 0.380336 0.827536 -0.817297
H40   H     H_    0.201025 0.357844 0.920116 0.270782
H41   H     H_    0.238852 0.483596 0.812808 0.291590
H42   H     H_    0.185503 0.333956 0.741181 0.229806
H43   H     H_    0.365180 0.321212 0.734510 0.248455
H44   H     H_    0.351837 0.239950 0.883231 0.187699
O13   O     O_3   0.645245 0.652568 0.889482 -0.803151
H45   H     H_    0.630042 0.652268 0.791391 0.397961
O14   O     O_3   0.349038 0.356393 0.109861 -0.813439
H46   H     H_    0.367979 0.349845 0.207301 0.394811

loop_
_geom_bond_atom_site_label_1
_geom_bond_atom_site_label_2
_ccdc_geom_bond_type
O11   H13   S    
C11   C18   A    
O13   H45   S    
C8    N2    A    
C33   C34   S    
C3    C23   A    
C40   H40   S    
C37   C38   S    
C28   H9    S    
C36   H30   S    
C40   H42   S    
C27   H12   S    
O3    Zn2   S    
C29   H18   S    
C35   H33   S    
C34   H26   S    
O4    Zn1   S    
C30   H17   S    
O6    Zn2   S    
C18   O9    S    
C21   C29   S    
C17   O10   S    
C4    C24   A    
C6    N1    A    
O7    Zn2   S    
C30   H16   S    
O8    Zn1   S    
C25   C26   S    
C22   C31   S    
C35   H34   S    
C24   C35   S    
C31   H24   S    
C19   C20   A    
C6    C39   S    
C34   H27   S    
C12   C17   A    
C25   H6    S    
C38   H37   S    
C18   C20   A    
C31   C32   S    
C29   C30   S    
C37   H38   S    
C9    O7    A    
C26   H4    S    
C15   C27   S    
C23   C33   S    
C36   H31   S    
C25   H7    S    
C27   H11   S    
C34   H25   S    
C32   H20   S    
O10   H2    S    
C5    C7    A    
C6    C8    A    
O1    Zn1   S    
C30   H15   S    
C32   H21   S    
C26   H5    S    
O9    H1    S    
C11   C16   A    
C31   H23   S    
C12   C15   A    
C39   H44   S    
C33   H28   S    
C28   H10   S    
C1    O3    A    
C33   H29   S    
C10   O8    A    
C8    O14   S    
N1    Zn1   S    
N2    Zn2   S    
C27   C28   S    
C38   H36   S    
C21   C23   A    
C14   C16   A    
C26   H3    S    
C36   H32   S    
C14   O12   S    
C13   C20   A    
C14   C19   A    
C35   C36   S    
C40   H41   S    
C7    N1    A    
C2    O4    A    
C1    C4    S    
C32   H22   S    
C13   C15   A    
C2    C3    S    
C29   H19   S    
C4    C21   A    
O12   H14   S    
C39   H43   S    
C37   H39   S    
O5    Zn1   S    
C17   C19   A    
C22   C24   A    
C39   C40   S    
C9    C12   S    
C10   C11   S    
C9    O5    A    
C5    N2    A    
C5    C37   S    
C10   O6    A    
C38   H35   S    
O2    Zn2   S    
C28   H8    S    
C7    O13   S    
O14   H46   S    
C1    O1    A    
C3    C22   A    
C2    O2    A    
C16   C25   S    
C13   O11   S    
