data_str_m2_o10_o16_f0_pcu.sym.1
_audit_creation_date              2012-10-26T19:58:17-0400
_audit_creation_method            fapswitch 2.2
_symmetry_space_group_name_H-M    P1
_symmetry_Int_Tables_number       1
_space_group_crystal_system       triclinic
_cell_length_a                    7.535475
_cell_length_b                    8.697414
_cell_length_c                    13.426759
_cell_angle_alpha                 95.811946
_cell_angle_beta                  78.501126
_cell_angle_gamma                 102.661198
_cell_volume                      839.820610713

loop_
_atom_site_label
_atom_site_type_symbol
_atom_type_description
_atom_site_fract_x
_atom_site_fract_y
_atom_site_fract_z
_atom_type_partial_charge
C1    C     C_R   0.543880 0.799634 0.504554 0.548480
C2    C     C_R   0.343290 0.495098 0.805275 -0.006144
C3    C     C_2   0.565813 0.967463 0.510062 -0.159013
C4    C     C_R   0.401790 0.497985 0.693899 0.533984
C5    C     C_2   0.430691 0.032141 0.493869 -0.158970
C6    C     C_R   0.455069 0.200264 0.496903 0.540602
C7    C     C_R   0.599718 0.511284 0.306682 0.534058
C8    C     C_R   0.871320 0.679543 0.061832 -0.132432
C9    C     C_R   0.659220 0.538201 0.198111 -0.003521
C10   C     C_R   0.162268 0.418127 0.844276 -0.133413
C11   C     C_R   0.109657 0.389348 0.946746 -0.138875
C12   C     C_R   0.422880 0.507210 0.974493 0.032471
C13   C     C_R   0.238447 0.429922 0.010962 -0.123527
C14   C     C_3   0.974655 0.315645 0.414684 -0.043819
C15   C     C_3   0.098277 0.281144 0.314457 -0.409400
C16   C     C_R   0.469933 0.552774 0.872547 0.025346
C17   C     C_R   0.560925 0.543946 0.036583 0.029530
C18   C     C_R   0.735840 0.639689 0.000171 0.047252
C19   C     C_R   0.771949 0.697732 0.903727 -0.142255
C20   C     C_R   0.640543 0.656626 0.841296 -0.123654
C21   C     C_R   0.530540 0.487895 0.134007 -0.134673
C22   C     C_R   0.832401 0.630575 0.160917 -0.142035
Cu1   Cu    Cu3+1 0.321300 0.483160 0.488710 0.931987
Cu2   Cu    Cu3+1 0.678700 0.516840 0.511290 0.926113
H1    H     H_    0.934514 0.669950 0.209449 0.133318
H2    H     H_    0.672965 0.711827 0.769556 0.139096
H3    H     H_    0.693878 0.037969 0.528506 0.116962
H4    H     H_    0.136496 0.387811 0.269955 0.149657
H5    H     H_    0.220987 0.239286 0.325207 0.185629
H6    H     H_    0.020252 0.184827 0.269412 0.080346
H7    H     H_    0.945388 0.213001 0.462171 0.126482
H8    H     H_    0.854168 0.327701 0.386898 0.194920
H9    H     H_    0.300821 0.961147 0.477264 0.129902
H10   H     H_    0.014767 0.632727 0.571175 0.224404
H11   H     H_    0.902398 0.775721 0.876386 0.108019
H12   H     H_    0.005180 0.752622 0.034471 0.115771
H13   H     H_    0.407150 0.404955 0.162251 0.100946
H14   H     H_    0.061914 0.376102 0.794958 0.141622
H15   H     H_    0.187651 0.403252 0.089325 0.097741
H16   H     H_    0.969119 0.331085 0.976180 0.127735
N1    N     N_2   0.947230 0.542220 0.528320 -0.244827
N2    N     N_2   0.052770 0.457780 0.471680 -0.141557
O1    O     O_R   0.383920 0.714220 0.492660 -0.504257
O2    O     O_R   0.685730 0.742660 0.511730 -0.505531
O3    O     O_R   0.275440 0.478800 0.636790 -0.505016
O4    O     O_R   0.577250 0.507240 0.655860 -0.500266
O5    O     O_R   0.314270 0.257340 0.488270 -0.510781
O6    O     O_R   0.616080 0.285780 0.507340 -0.526788
O7    O     O_R   0.422750 0.492760 0.344140 -0.508512
O8    O     O_R   0.724560 0.521200 0.363210 -0.523110

loop_
_geom_bond_atom_site_label_1
_geom_bond_atom_site_label_2
_ccdc_geom_bond_type
C12   C17   A    
C8    C22   A    
Cu1   Cu2   S    
H10   N1    S    
Cu1   O3    S    
C2    C16   A    
N1    N2    D    
C1    O2    A    
C2    C4    S    
C19   C20   A    
C14   N2    S    
C14   H7    S    
C10   H14   S    
Cu2   O4    S    
Cu1   O5    S    
C3    H3    S    
C17   C18   A    
Cu1   O1    S    
C4    O4    A    
Cu2   N1    S    
C11   C13   A    
C9    C21   A    
C15   H4    S    
C6    O6    A    
Cu1   N2    S    
C20   H2    S    
C16   C20   A    
C15   H5    S    
C4    O3    A    
Cu2   O8    S    
C5    C6    S    
Cu2   O2    S    
C17   C21   A    
C9    C22   A    
Cu1   O7    S    
C13   H15   S    
C10   C11   A    
C11   H16   S    
C2    C10   A    
C5    H9    S    
C6    O5    A    
C21   H13   S    
C12   C13   A    
C7    O7    A    
C15   H6    S    
C18   C19   A    
C8    H12   S    
C7    C9    S    
C14   C15   S    
C19   H11   S    
C3    C5    D    
C1    O1    A    
C8    C18   A    
C12   C16   A    
C7    O8    A    
C14   H8    S    
C1    C3    S    
C22   H1    S    
Cu2   O6    S    
