data_str_m9_o4_o16_f0_sra.sym.96
_audit_creation_date              2012-12-11T17:00:26-0500
_audit_creation_method            fapswitch 2.2
_symmetry_space_group_name_H-M    P1
_symmetry_Int_Tables_number       1
_space_group_crystal_system       triclinic
_cell_length_a                    6.973676
_cell_length_b                    13.591126
_cell_length_c                    20.246761
_cell_angle_alpha                 103.09293
_cell_angle_beta                  89.963007
_cell_angle_gamma                 90.504333
_cell_volume                      1869.02981003

loop_
_atom_site_label
_atom_site_type_symbol
_atom_type_description
_atom_site_fract_x
_atom_site_fract_y
_atom_site_fract_z
_atom_type_partial_charge
O1    O     O_R   0.506770 0.599700 0.449550 -0.531103
O2    O     O_R   0.179980 0.595740 0.587960 -0.548071
O3    O     O_R   0.004580 0.400300 0.550450 -0.542011
C1    C     C_R   0.348077 0.616667 0.615348 0.742251
O4    O     O_R   0.177380 0.611700 0.452380 -0.545306
O5    O     O_R   0.001970 0.416370 0.413900 -0.547670
C2    C     C_R   0.346742 0.637269 0.434873 0.695949
O6    O     O_R   0.509390 0.583630 0.586100 -0.544607
O7    O     O_3   0.337530 0.435890 0.487530 -0.375560
V1    V     V_3+5 0.064660 0.511890 0.502310 1.435092
O8    O     O_R   0.671950 0.404260 0.412040 -0.541509
C3    C     C_R   0.840388 0.382958 0.384806 0.735304
O9    O     O_R   0.674540 0.388300 0.547620 -0.538545
C4    C     C_R   0.843338 0.361479 0.564122 0.680383
V2    V     V_3+5 0.564030 0.488110 0.497690 1.449555
O10   O     O_3   0.841030 0.564110 0.512470 -0.373402
C5    C     C_R   0.941808 0.115027 0.610932 -0.039233
H1    H     H_    0.930563 0.164795 0.517754 0.115750
H2    H     H_    0.983811 0.039492 0.585209 0.182924
C6    C     C_R   0.855372 0.283829 0.603539 -0.039383
C7    C     C_R   0.810374 0.313527 0.929854 -0.161586
C8    C     C_R   0.787858 0.388638 0.894145 -0.084723
C9    C     C_R   0.809064 0.366665 0.823917 -0.100240
C10   C     C_R   0.854301 0.267939 0.787226 0.062438
C11   C     C_R   0.886166 0.192514 0.824619 -0.044207
C12   C     C_R   0.869383 0.241649 0.714893 0.001372
C13   C     C_R   0.923303 0.141807 0.681925 -0.024552
C14   C     C_R   0.960380 0.070156 0.720125 0.633998
C15   C     C_R   0.941967 0.095278 0.790229 -0.241004
C16   C     C_R   0.833014 0.311088 0.673942 -0.170790
C17   C     C_R   0.910195 0.185932 0.572183 -0.139785
C18   C     C_R   0.860137 0.215812 0.895926 -0.050812
H3    H     H_    0.790685 0.387468 0.695142 0.119508
H4    H     H_    0.789074 0.331626 0.984282 0.149750
H5    H     H_    0.790770 0.428969 0.800125 0.171499
H6    H     H_    0.751837 0.464498 0.921027 0.157401
H7    H     H_    0.974206 0.037895 0.817668 0.201543
C19   C     C_R   0.725406 0.260275 0.200711 0.071366
C20   C     C_R   0.867752 0.186791 0.183262 -0.251304
C21   C     C_R   0.011635 0.184635 0.232010 0.574699
C22   C     C_R   0.004902 0.250152 0.296856 -0.270351
H8    H     H_    0.114169 0.244136 0.333668 0.151652
C23   C     C_R   0.850890 0.317024 0.315762 -0.190700
C24   C     C_R   0.715965 0.322806 0.265566 0.137137
C25   C     C_3   0.502285 0.316947 0.267201 -0.438074
C26   C     C_3   0.512103 0.248663 0.196248 -0.193533
H9    H     H_    0.435760 0.391781 0.269737 0.206022
H10   H     H_    0.449767 0.277021 0.305993 0.171496
H11   H     H_    0.465284 0.169695 0.193708 0.171344
C27   C     C_R   0.509945 0.748647 0.705929 -0.061064
C28   C     C_R   0.352164 0.685860 0.683423 -0.109439
C29   C     C_R   0.202854 0.684305 0.729864 -0.197582
H12   H     H_    0.091030 0.628484 0.716998 0.110829
C30   C     C_R   0.207444 0.746660 0.795583 0.721054
C31   C     C_R   0.358097 0.815848 0.815914 -0.208849
C32   C     C_R   0.511345 0.813940 0.770709 -0.105835
C33   C     C_3   0.711921 0.785802 0.783071 1.193714
C34   C     C_3   0.710849 0.714897 0.713400 -0.320458
H13   H     H_    0.810303 0.738528 0.676796 0.140186
C35   C     C_R   0.476211 0.881354 0.387836 -0.002028
H14   H     H_    0.495888 0.819467 0.476742 0.163147
H15   H     H_    0.469785 0.012107 0.302900 0.123199
C36   C     C_R   0.361664 0.714246 0.394700 -0.172404
C37   C     C_R   0.347613 0.682923 0.069326 -0.252084
C38   C     C_R   0.361896 0.606832 0.104728 -0.150155
C39   C     C_R   0.376338 0.630634 0.175258 0.664090
C40   C     C_R   0.365049 0.732463 0.212441 -0.007807
C41   C     C_R   0.372730 0.809702 0.175482 -0.034524
C42   C     C_R   0.365281 0.760200 0.284985 0.103694
C43   C     C_R   0.428691 0.859337 0.317771 0.011038
C44   C     C_R   0.439256 0.933889 0.279728 -0.160093
C45   C     C_R   0.403887 0.910177 0.210473 -0.076585
C46   C     C_R   0.304149 0.693711 0.326242 -0.037949
C47   C     C_R   0.450343 0.806056 0.424212 -0.126857
C48   C     C_R   0.357643 0.784172 0.103894 -0.076414
H16   H     H_    0.339038 0.662862 0.014463 0.164968
H17   H     H_    0.368066 0.528763 0.077112 0.171095
H18   H     H_    0.411956 0.970894 0.183991 0.146771
O11   O     O_R   0.203450 0.916320 0.913910 -0.507462
O12   O     O_R   0.535520 0.888300 0.047620 -0.546888
O13   O     O_R   0.710860 0.083650 0.086100 -0.555752
C49   C     C_R   0.366393 0.861495 0.064006 0.715073
O14   O     O_R   0.532860 0.904250 0.912040 -0.517724
O15   O     O_R   0.708190 0.099710 0.949550 -0.535015
C50   C     C_R   0.364568 0.882367 0.884958 0.784513
O16   O     O_R   0.206120 0.900260 0.050460 -0.531815
O17   O     O_3   0.375280 0.064080 0.012470 -0.390960
V3    V     V_3+5 0.648180 0.988110 0.997690 1.584114
O18   O     O_R   0.038220 0.111740 0.952370 -0.554093
C51   C     C_R   0.869781 0.137903 0.935425 0.691856
O19   O     O_R   0.040880 0.095790 0.087940 -0.529200
C52   C     C_R   0.872737 0.116807 0.115357 0.750376
V4    V     V_3+5 0.148800 0.011950 0.002300 1.562104
O20   O     O_3   0.871820 0.935920 0.987530 -0.339755
C53   C     C_2   0.421273 0.294356 0.142821 0.527612
H19   H     H_    0.267558 0.306351 0.143987 0.042613
O21   O     O_2   0.516943 0.317188 0.097875 -0.535885
F1    F     F_    0.078421 0.730766 0.842016 -0.624877
F2    F     F_    0.723540 0.739467 0.837302 -0.612685
F3    F     F_    0.837692 0.866132 0.788256 -0.689199
C54   C     C_2   0.722693 0.603682 0.713063 0.442782
H20   H     H_    0.808608 0.554842 0.674762 0.012862
O22   O     O_2   0.629170 0.566876 0.752613 -0.519435
F4    F     F_    0.015060 0.975010 0.689562 -0.664000
C55   C     C_2   0.564901 0.979112 0.423457 0.366384
H21   H     H_    0.631587 0.029504 0.395620 0.036017
O23   O     O_2   0.567498 0.004112 0.485331 -0.525371
C56   C     C_2   0.161614 0.611076 0.301883 0.489269
H22   H     H_    0.160849 0.543634 0.322047 0.034064
O24   O     O_2   0.039406 0.619136 0.260304 -0.519847
F5    F     F_    0.421682 0.554554 0.205624 -0.710112
F6    F     F_    0.149201 0.113119 0.219239 -0.733597

loop_
_geom_bond_atom_site_label_1
_geom_bond_atom_site_label_2
_ccdc_geom_bond_type
C31   C32   A    
V4    O20   S    
C22   H8    S    
C53   H19   S    
C1    O6    A    
C21   F6    S    
C6    C16   A    
C25   C26   S    
C32   C33   S    
C41   C48   A    
C55   O23   D    
C26   H11   S    
C12   C13   A    
C54   H20   S    
C14   C15   A    
C10   C12   A    
O11   V4    S    
C3    C23   S    
O5    C3    A    
C19   C20   A    
V2    O10   S    
C33   F2    S    
C56   H22   S    
C45   H18   S    
O13   C52   A    
O8    V2    S    
C18   C51   S    
C26   C53   S    
C9    C10   A    
C42   C46   A    
C43   C44   A    
O1    V2    S    
C39   F5    S    
O7    V1    S    
O19   C52   A    
C11   C18   A    
C39   C40   A    
C54   O22   D    
O9    C4    A    
C22   C23   A    
O15   C51   A    
C29   C30   A    
C25   H9    S    
C11   C15   A    
C7    C18   A    
V3    O20   S    
C38   H17   S    
C1    C28   S    
C40   C41   A    
C27   C34   S    
C4    C6    S    
C10   C11   A    
O12   C49   A    
C20   C21   A    
O4    C2    A    
C46   C56   S    
C7    H4    S    
C36   C46   A    
C34   H13   S    
C49   O16   A    
C33   F3    S    
C27   C32   A    
C28   C29   A    
C40   C42   A    
C5    C13   A    
C31   C50   S    
O2    C1    A    
C23   C24   A    
C19   C24   A    
O16   V4    S    
O19   V4    S    
C14   F4    S    
C35   C43   A    
C41   C45   A    
C27   C28   A    
C37   H16   S    
C34   C54   S    
C2    C36   S    
O3    C4    A    
C21   C22   A    
O14   C50   A    
C12   C16   A    
O6    V2    S    
C9    H5    S    
O9    V2    S    
C5    C17   A    
O2    V1    S    
C20   C52   S    
O11   C50   A    
C29   H12   S    
C25   H10   S    
C30   C31   A    
C16   H3    S    
O1    C2    A    
C24   C25   S    
O15   V3    S    
O5    V1    S    
O8    C3    A    
C53   O21   D    
C48   C49   S    
C36   C47   A    
H14   C47   S    
C8    H6    S    
C55   H21   S    
C37   C38   A    
O7    V2    S    
O4    V1    S    
O12   V3    S    
O3    V1    S    
V1    O10   S    
C33   C34   S    
O17   V4    S    
C35   C47   A    
C5    H2    S    
C37   C48   A    
C56   O24   D    
H15   C44   S    
O14   V3    S    
O18   V4    S    
C42   C43   A    
C19   C26   S    
O13   V3    S    
C44   C45   A    
O17   V3    S    
C38   C39   A    
C15   H7    S    
C13   C14   A    
C8    C9    A    
C30   F1    S    
H1    C17   S    
O18   C51   A    
C7    C8    A    
C35   C55   S    
C6    C17   A    
