data_str_m3_o1_o10_f0_pcu.sym.44
_audit_creation_date              2012-12-10T18:42:33-0500
_audit_creation_method            fapswitch 2.2
_symmetry_space_group_name_H-M    P1
_symmetry_Int_Tables_number       1
_space_group_crystal_system       triclinic
_cell_length_a                    8.577018
_cell_length_b                    10.7149
_cell_length_c                    9.829264
_cell_angle_alpha                 90.064408
_cell_angle_beta                  98.691101
_cell_angle_gamma                 90.072394
_cell_volume                      892.953855504

loop_
_atom_site_label
_atom_site_type_symbol
_atom_type_description
_atom_site_fract_x
_atom_site_fract_y
_atom_site_fract_z
_atom_type_partial_charge
C1    C     C_R   0.504899 0.260058 0.500285 0.866782
C2    C     C_R   0.439341 0.067080 0.602028 -0.262015
C3    C     C_R   0.491609 0.872460 0.499724 -0.075981
C4    C     C_R   0.508391 0.127540 0.500277 -0.075977
C5    C     C_R   0.603682 0.572956 0.085696 -0.079601
C6    C     C_R   0.396316 0.427046 0.914303 -0.079630
C7    C     C_R   0.603648 0.572916 0.941725 -0.057862
C8    C     C_R   0.396350 0.427086 0.058275 -0.057861
C9    C     C_R   0.651740 0.120430 0.290933 0.144556
C10   C     C_R   0.584034 0.114445 0.151691 -0.167164
C11   C     C_R   0.658435 0.172058 0.051157 -0.140252
C12   C     C_R   0.495101 0.739942 0.499716 0.866777
C13   C     C_R   0.801345 0.234917 0.088794 -0.104926
C14   C     C_R   0.870319 0.239954 0.226966 -0.127854
C15   C     C_R   0.795692 0.183371 0.328040 -0.112060
C16   C     C_R   0.348255 0.879572 0.709067 0.144547
C17   C     C_R   0.204330 0.816594 0.671952 -0.111998
C18   C     C_R   0.129689 0.760027 0.773027 -0.127845
C19   C     C_R   0.198621 0.765114 0.911206 -0.104943
C20   C     C_R   0.341504 0.828009 0.948852 -0.140255
C21   C     C_R   0.415918 0.885608 0.848317 -0.167203
C22   C     C_R   0.201011 0.500521 0.464022 0.962741
C23   C     C_R   0.798989 0.499472 0.535978 0.962756
C24   C     C_2   0.035915 0.503153 0.444727 -0.405268
C25   C     C_2   0.964085 0.496830 0.555272 -0.405276
C26   C     C_R   0.571275 0.060841 0.397495 -0.005188
C27   C     C_R   0.428725 0.939159 0.602507 -0.005176
C28   C     C_R   0.560660 0.932920 0.397974 -0.262018
H1    H     H_    0.973932 0.510978 0.340020 0.175377
H2    H     H_    0.605053 0.168362 0.944135 0.133507
H3    H     H_    0.858773 0.279503 0.010878 0.121713
H4    H     H_    0.981773 0.287533 0.255631 0.125518
H5    H     H_    0.849745 0.188500 0.434875 0.106841
H6    H     H_    0.150308 0.811427 0.565112 0.106822
H7    H     H_    0.018253 0.712423 0.744356 0.125520
H8    H     H_    0.141179 0.720543 0.989123 0.121715
H9    H     H_    0.394852 0.831746 0.055880 0.133511
H10   H     H_    0.527116 0.933365 0.878540 0.124134
H11   H     H_    0.026067 0.489002 0.659978 0.175371
H12   H     H_    0.611351 0.880297 0.320990 0.156833
H13   H     H_    0.388650 0.119704 0.679011 0.156829
H14   H     H_    0.686333 0.631441 0.151243 0.118980
H15   H     H_    0.313665 0.368561 0.848757 0.118982
H16   H     H_    0.686188 0.631433 0.898011 0.120646
H17   H     H_    0.313808 0.368570 0.101988 0.120642
H18   H     H_    0.472810 0.066722 0.121476 0.124114
N1    N     N_R   0.499960 0.499970 0.857200 -0.074522
N2    N     N_R   0.500040 0.500030 0.142800 -0.074519
O1    O     O_R   0.499990 0.316750 0.614620 -0.633240
O2    O     O_R   0.500010 0.683250 0.385380 -0.633234
O3    O     O_R   0.499990 0.316780 0.385290 -0.608912
O4    O     O_R   0.500010 0.683220 0.614710 -0.608912
O5    O     O_R   0.271750 0.499990 0.587840 -0.608706
O6    O     O_R   0.728250 0.500010 0.412160 -0.608703
O7    O     O_R   0.271750 0.500010 0.358510 -0.635818
O8    O     O_R   0.728250 0.499990 0.641490 -0.635820
Zn1   Zn    Zn3+2 0.500000 0.499980 0.653120 0.941760
Zn2   Zn    Zn3+2 0.500000 0.500020 0.346880 0.941766

loop_
_geom_bond_atom_site_label_1
_geom_bond_atom_site_label_2
_ccdc_geom_bond_type
C10   H18   S    
C4    C26   A    
C5    H14   S    
C8    N2    A    
C24   C25   D    
N2    Zn2   S    
C16   C21   A    
C26   C28   A    
N1    Zn1   S    
C11   C13   A    
C9    C10   A    
C2    C4    A    
C19   C20   A    
C19   H8    S    
C1    C4    S    
C16   C27   S    
C3    C27   A    
C17   C18   A    
C9    C15   A    
C22   O7    A    
C23   O8    A    
O3    Zn2   S    
C13   C14   A    
O8    Zn1   S    
C20   H9    S    
C1    O3    A    
C17   H6    S    
C2    C27   A    
C3    C28   A    
C12   O4    A    
C13   H3    S    
C9    C26   S    
C22   O5    A    
C6    H15   S    
C23   C25   S    
O6    Zn2   S    
C5    N2    A    
C22   C24   S    
C10   C11   A    
C28   H12   S    
C2    H13   S    
O4    Zn1   S    
O2    Zn2   S    
C6    N1    A    
O1    Zn1   S    
C20   C21   A    
C23   O6    A    
C18   C19   A    
C18   H7    S    
O7    Zn2   S    
C5    C7    A    
O5    Zn1   S    
C24   H1    S    
C16   C17   A    
C6    C8    A    
C3    C12   S    
C7    H16   S    
C14   C15   A    
C1    O1    A    
C15   H5    S    
C25   H11   S    
C21   H10   S    
C8    H17   S    
C11   H2    S    
C14   H4    S    
C12   O2    A    
C7    N1    A    
