data_str_m4_o4_o22_f0_acs.sym.118
_audit_creation_date              2012-12-11T15:48:34-0500
_audit_creation_method            fapswitch 2.2
_symmetry_space_group_name_H-M    P1
_symmetry_Int_Tables_number       1
_space_group_crystal_system       triclinic
_cell_length_a                    10.951003
_cell_length_b                    11.086969
_cell_length_c                    18.824035
_cell_angle_alpha                 90.112985
_cell_angle_beta                  89.987044
_cell_angle_gamma                 60.542812
_cell_volume                      1990.02445406

loop_
_atom_site_label
_atom_site_type_symbol
_atom_type_description
_atom_site_fract_x
_atom_site_fract_y
_atom_site_fract_z
_atom_type_partial_charge
C1    C     C_R   0.235902 0.646910 0.608954 0.541367
C2    C     C_3   0.728850 0.522267 0.800616 -0.310535
C3    C     C_3   0.692773 0.672277 0.814908 0.108926
C4    C     C_3   0.662986 0.642987 0.679057 -0.008058
C5    C     C_3   0.765790 0.698592 0.688428 -0.277477
C6    C     C_3   0.718438 0.503505 0.720248 0.060778
C7    C     C_R   0.692870 0.132031 0.816983 0.019846
C8    C     C_R   0.814073 0.094206 0.775917 0.104472
C9    C     C_R   0.807839 0.098177 0.701265 -0.008863
C10   C     C_R   0.574252 0.136185 0.706107 -0.161545
C11   C     C_R   0.571489 0.149254 0.779798 0.208852
C12   C     C_R   0.650243 0.617411 0.602991 0.588157
C13   C     C_3   0.903524 0.161104 0.774206 0.094682
C14   C     C_3   0.911007 0.146888 0.693792 -0.221520
C15   C     C_R   0.679940 0.139441 0.666382 -0.013272
C16   C     C_R   0.153519 0.685518 0.829864 0.010153
C17   C     C_R   0.130894 0.592231 0.790314 0.009641
C18   C     C_R   0.145235 0.583869 0.716996 0.092313
C19   C     C_R   0.177902 0.782382 0.719441 -0.152898
C20   C     C_R   0.172679 0.783525 0.793022 -0.095485
C21   C     C_3   0.198918 0.440703 0.798944 -0.259024
C22   C     C_3   0.217350 0.429952 0.718527 0.072981
C23   C     C_R   0.631984 0.220875 0.600248 0.573809
C24   C     C_R   0.176444 0.674407 0.680376 -0.013530
C25   C     C_R   0.670458 0.680949 0.173381 -0.031009
C26   C     C_R   0.771205 0.564193 0.208614 0.094352
C27   C     C_R   0.771318 0.553372 0.280804 0.036667
C28   C     C_R   0.578896 0.786383 0.289391 -0.178685
C29   C     C_R   0.579069 0.796648 0.214782 -0.173759
C30   C     C_3   0.814918 0.415676 0.196443 0.082965
C31   C     C_3   0.814235 0.402730 0.276458 -0.166238
C32   C     C_R   0.668956 0.659353 0.322385 -0.001708
C33   C     C_R   0.659285 0.162235 0.174518 -0.065216
C34   C     C_R   0.219067 0.650992 0.402736 0.522416
C35   C     C_R   0.528879 0.232904 0.206527 0.008381
C36   C     C_R   0.519589 0.243844 0.279031 -0.046314
C37   C     C_R   0.772563 0.126304 0.290392 0.189462
C38   C     C_R   0.780923 0.119629 0.216642 -0.105903
C39   C     C_3   0.401307 0.217436 0.200347 0.124314
C40   C     C_3   0.391970 0.227314 0.280754 -0.142998
C41   C     C_R   0.639187 0.185053 0.322390 -0.013273
C42   C     C_R   0.113662 0.691417 0.189331 -0.069782
C43   C     C_R   0.134675 0.789677 0.224177 0.037669
C44   C     C_R   0.146655 0.789070 0.295848 0.064787
C45   C     C_R   0.644043 0.623125 0.393136 0.535711
C46   C     C_R   0.091891 0.602698 0.304287 0.191040
C47   C     C_R   0.078368 0.606243 0.229950 -0.049715
C48   C     C_3   0.240479 0.834147 0.210096 0.174240
C49   C     C_3   0.256013 0.833584 0.289899 0.195870
C50   C     C_R   0.142812 0.685156 0.336392 -0.041371
C51   C     C_R   0.704082 0.096074 0.893617 0.580276
C52   C     C_R   0.720309 0.686797 0.890011 0.627973
C53   C     C_R   0.111888 0.710448 0.904125 0.574479
C54   C     C_R   0.676725 0.105766 0.103978 0.534750
C55   C     C_R   0.698334 0.692728 0.098901 0.534346
C56   C     C_R   0.616633 0.229027 0.395382 0.522409
C57   C     C_R   0.084877 0.713932 0.114583 0.545965
C58   C     C_3   0.536008 0.769524 0.792876 0.421348
C59   C     C_3   0.519837 0.749950 0.712171 -0.195362
C60   C     C_3   0.797816 0.696133 0.768214 0.074370
Cr1   Cr    Cr6+3 0.392960 0.397920 0.502240 1.047116
Cr2   Cr    Cr6+3 0.398340 0.708480 0.501250 1.001624
Cr3   Cr    Cr6+3 0.708670 0.393570 0.496460 1.050799
Cr4   Cr    Cr6+3 0.937650 0.938540 0.007610 1.066483
Cr5   Cr    Cr6+3 0.625330 0.937370 0.994520 1.092226
Cr6   Cr    Cr6+3 0.937940 0.625230 0.001190 1.064296
H1    H     H_    0.901874 0.604864 0.776174 0.183864
H2    H     H_    0.864975 0.633246 0.658791 0.158940
H3    H     H_    0.844326 0.265019 0.795892 0.141504
H4    H     H_    0.872244 0.242495 0.663019 0.179131
H5    H     H_    0.012651 0.063642 0.673538 0.136483
H6    H     H_    0.200964 0.856696 0.694599 0.144272
H7    H     H_    0.125467 0.406927 0.819719 0.161914
H8    H     H_    0.502154 0.873036 0.320249 0.140182
H9    H     H_    0.735531 0.399208 0.167529 0.105119
H10   H     H_    0.919467 0.335313 0.299994 0.236972
H11   H     H_    0.884771 0.067880 0.193317 0.210943
H12   H     H_    0.418809 0.117165 0.178851 0.148171
H13   H     H_    0.042177 0.542076 0.204411 0.234627
H14   H     H_    0.478441 0.850788 0.683947 0.120294
H15   H     H_    0.336078 0.754875 0.181801 0.049728
H16   H     H_    0.361106 0.753528 0.308561 0.080900
H17   H     H_    0.663746 0.490907 0.832502 0.131989
O1    O     O_R   0.507380 0.255700 0.581440 -0.532166
O2    O     O_R   0.524480 0.695810 0.424040 -0.524347
O3    O     O_R   0.736390 0.504290 0.414790 -0.506197
O4    O     O_R   0.691300 0.277290 0.422170 -0.504556
O5    O     O_3   0.499990 0.499990 0.499980 -0.256957
O6    O     O_R   0.089400 0.825690 0.930570 -0.486204
O7    O     O_R   0.818460 0.054440 0.929850 -0.482837
O8    O     O_R   0.606060 0.077150 0.915510 -0.422642
O9    O     O_R   0.646550 0.806680 0.917570 -0.408295
O10   O     O_R   0.837170 0.593410 0.915250 -0.549890
O11   O     O_R   0.065200 0.635530 0.931570 -0.499358
O12   O     O_R   0.280320 0.527350 0.578930 -0.480386
O13   O     O_R   0.068260 0.828890 0.091840 -0.514525
O14   O     O_R   0.798870 0.057410 0.079340 -0.517871
O15   O     O_R   0.584930 0.080350 0.076780 -0.536601
O16   O     O_R   0.626960 0.809650 0.067060 -0.520587
O17   O     O_R   0.816040 0.596610 0.076510 -0.473867
O18   O     O_R   0.045610 0.638500 0.081060 -0.492002
O19   O     O_3   0.833640 0.833710 0.001100 -0.284325
O20   O     O_R   0.260510 0.739590 0.584590 -0.536719
O21   O     O_R   0.532300 0.695080 0.573820 -0.514662
O22   O     O_R   0.744840 0.503500 0.576370 -0.496048
O23   O     O_R   0.699120 0.276560 0.571960 -0.478152
O24   O     O_R   0.498940 0.256500 0.419860 -0.521159
O25   O     O_R   0.272500 0.528080 0.429150 -0.493524
O26   O     O_R   0.252060 0.740380 0.423010 -0.531044
O27   O     O_3   0.497390 0.908512 0.804485 -0.642734
H18   H     H_    0.393761 0.962718 0.799372 0.338774
H19   H     H_    0.827571 0.436428 0.701801 0.179705
H20   H     H_    0.482351 0.144308 0.680034 0.123302
O28   O     O_3   0.453069 0.170532 0.816254 -0.671144
H21   H     H_    0.382768 0.171519 0.782832 0.308005
O29   O     O_3   0.032342 0.084143 0.807570 -0.715579
H22   H     H_    0.083155 0.136703 0.800711 0.314017
O30   O     O_3   0.448227 0.739204 0.835336 -0.716980
H23   H     H_    0.449414 0.654925 0.817068 0.286903
H24   H     H_    0.191656 0.856360 0.821846 0.245800
H25   H     H_    0.296565 0.405720 0.829844 0.163461
H26   H     H_    0.327298 0.381435 0.699445 0.154517
O31   O     O_3   0.135875 0.380452 0.685604 -0.721183
H27   H     H_    0.189569 0.278214 0.690372 0.308443
H28   H     H_    0.506279 0.892486 0.189546 0.146321
O32   O     O_3   0.950440 0.343825 0.167863 -0.635777
H29   H     H_    0.970825 0.246818 0.161718 0.358192
H30   H     H_    0.729446 0.383669 0.295479 0.120978
H31   H     H_    0.442377 0.715159 0.703174 0.120366
O33   O     O_3   0.895878 0.072382 0.328481 -0.648517
H32   H     H_    0.878576 0.051789 0.377427 0.330440
O34   O     O_3   0.290987 0.332631 0.167578 -0.679530
H33   H     H_    0.308468 0.317968 0.115728 0.342795
H34   H     H_    0.298934 0.321435 0.301032 0.232095
H35   H     H_    0.411936 0.129232 0.306622 0.110373
O35   O     O_3   0.059779 0.515747 0.342314 -0.696036
H36   H     H_    0.047856 0.543956 0.392921 0.338155
O36   O     O_3   0.178644 0.967964 0.181210 -0.628019
H37   H     H_    0.214988 0.957557 0.132000 0.322612
O37   O     O_3   0.208320 0.966777 0.318043 -0.593905
H38   H     H_    0.249274 0.953930 0.366246 0.326799
O38   O     O_3   0.809467 0.811108 0.788950 -0.698344
H39   H     H_    0.719108 0.891993 0.777250 0.370245
H40   H     H_    0.719447 0.805265 0.666439 0.133466
H41   H     H_    0.838959 0.452667 0.817644 0.104199
O39   O     O_3   0.639680 0.437112 0.705465 -0.721560
H42   H     H_    0.547506 0.488295 0.729427 0.310459

loop_
_geom_bond_atom_site_label_1
_geom_bond_atom_site_label_2
_ccdc_geom_bond_type
C44   C49   S    
Cr5   O9    S    
C30   O32   S    
O32   H29   S    
C29   H28   S    
Cr3   O5    S    
C32   C45   S    
Cr6   O19   S    
C45   O2    A    
C35   C36   A    
Cr4   O7    S    
C9    C14   S    
C28   H8    S    
O28   H21   S    
C2    H17   S    
O31   H27   S    
C56   O24   A    
C14   H5    S    
C37   O33   S    
C2    H41   S    
C7    C11   A    
C28   C32   A    
C26   C27   A    
C8    C13   S    
C13   H3    S    
C19   C24   A    
C18   C24   A    
C31   H30   S    
C28   C29   A    
Cr5   O15   S    
C12   O21   A    
C10   C15   A    
C51   O7    A    
C12   O22   A    
C6    O39   S    
C39   O34   S    
C21   H7    S    
C58   O30   S    
O29   H22   S    
Cr4   O19   S    
Cr6   O17   S    
Cr1   O25   S    
C11   O28   S    
O30   H23   S    
C51   O8    A    
C16   C53   S    
C19   C20   A    
C60   H1    S    
O34   H33   S    
C57   O13   A    
C55   O17   A    
C54   O14   A    
C47   H13   S    
Cr3   O22   S    
C43   C48   S    
C1    O20   A    
C16   C20   A    
Cr6   O11   S    
C60   O38   S    
C3    C60   S    
C15   C23   S    
C53   O11   A    
C58   O27   S    
C13   C14   S    
C37   C41   A    
C14   H4    S    
Cr6   O18   S    
C36   C41   A    
C2    C6    S    
Cr5   O19   S    
C5    H2    S    
C42   C57   S    
C40   H35   S    
C22   H26   S    
Cr2   O21   S    
C25   C29   A    
Cr2   O2    S    
C34   C50   S    
C23   O1    A    
C27   C31   S    
C39   H12   S    
C7    C8    A    
C19   H6    S    
O37   H38   S    
Cr5   O16   S    
C4    C6    S    
O36   H37   S    
C39   C40   S    
C8    C9    A    
C5    H40   S    
C58   C59   S    
C23   O23   A    
Cr2   O5    S    
C17   C21   S    
O27   H18   S    
C49   H16   S    
C35   C39   S    
C43   C44   A    
C41   C56   S    
C37   C38   A    
Cr1   O5    S    
O33   H32   S    
C36   C40   S    
C30   C31   S    
C1    O12   A    
C17   C18   A    
C52   O10   A    
Cr3   O23   S    
Cr4   O13   S    
C10   H20   S    
Cr6   O10   S    
Cr4   O14   S    
C26   C30   S    
Cr3   O3    S    
C53   O6    A    
C52   O9    A    
C4    C12   S    
C42   C43   A    
C20   H24   S    
C22   O31   S    
O39   H42   S    
C44   C50   A    
C33   C54   S    
Cr5   O8    S    
C46   C47   A    
C59   H31   S    
C5    C60   S    
Cr3   O4    S    
C27   C32   A    
C18   C22   S    
C6    H19   S    
C25   C55   S    
O35   H36   S    
C56   O4    A    
Cr1   O1    S    
C59   H14   S    
Cr2   O20   S    
C3    C52   S    
Cr1   O12   S    
C38   H11   S    
C57   O18   A    
C46   C50   A    
C33   C38   A    
C48   O36   S    
C34   O25   A    
C45   O3    A    
C25   C26   A    
C7    C51   S    
C30   H9    S    
C31   H10   S    
C16   C17   A    
Cr2   O26   S    
C40   H34   S    
C48   H15   S    
C48   C49   S    
C4    C59   S    
C33   C35   A    
C2    C3    S    
Cr4   O6    S    
C42   C47   A    
C21   H25   S    
Cr1   O24   S    
C13   O29   S    
C10   C11   A    
C46   O35   S    
C3    C58   S    
C4    C5    S    
C1    C24   S    
C49   O37   S    
C55   O16   A    
C34   O26   A    
O38   H39   S    
C54   O15   A    
C21   C22   S    
C9    C15   A    
