data_str_m2_o10_o26_f0_pcu.sym.181
_audit_creation_date              2012-12-10T16:48:48-0500
_audit_creation_method            fapswitch 2.2
_symmetry_space_group_name_H-M    P1
_symmetry_Int_Tables_number       1
_space_group_crystal_system       triclinic
_cell_length_a                    17.351981
_cell_length_b                    8.841673
_cell_length_c                    7.429516
_cell_angle_alpha                 101.376764
_cell_angle_beta                  88.72704
_cell_angle_gamma                 93.059114
_cell_volume                      1115.7720454

loop_
_atom_site_label
_atom_site_type_symbol
_atom_type_description
_atom_site_fract_x
_atom_site_fract_y
_atom_site_fract_z
_atom_type_partial_charge
C1    C     C_R   0.496024 0.201287 0.456894 0.904017
C2    C     C_R   0.504946 0.798604 0.542688 0.910060
C3    C     C_2   0.485093 0.036854 0.438144 0.154994
C4    C     C_2   0.517038 0.962717 0.560075 -0.013920
C5    C     C_R   0.351331 0.503364 0.529450 0.908583
C6    C     C_R   0.648557 0.492979 0.469902 0.890697
C7    C     C_R   0.267110 0.501542 0.556504 -0.148644
C8    C     C_R   0.732704 0.488469 0.442025 -0.126960
C9    C     C_R   0.221372 0.366503 0.485560 -0.094219
C10   C     C_R   0.780675 0.612330 0.534209 -0.090673
C11   C     C_R   0.141171 0.372431 0.486427 -0.205563
C12   C     C_R   0.860072 0.597257 0.536719 -0.203404
C13   C     C_R   0.105780 0.507711 0.568873 0.104133
C14   C     C_R   0.893142 0.463207 0.440772 0.115567
C15   C     C_R   0.150450 0.635601 0.655495 -0.224689
C16   C     C_R   0.846760 0.348221 0.333133 -0.211733
C17   C     C_R   0.230738 0.634148 0.651309 0.340247
C18   C     C_R   0.766898 0.359919 0.329900 0.330964
C19   C     C_2   0.021727 0.516339 0.577306 -0.175873
C20   C     C_2   0.976882 0.445463 0.438578 -0.176658
Cu1   Cu    Cu3+1 0.508700 0.517250 0.683000 1.144194
Cu2   Cu    Cu3+1 0.491300 0.482750 0.317000 1.142997
H1    H     H_    0.002129 0.372280 0.319467 0.151816
H2    H     H_    0.997065 0.589224 0.697220 0.151515
H3    H     H_    0.122080 0.736617 0.727604 0.179368
H4    H     H_    0.873407 0.249166 0.250984 0.173086
H5    H     H_    0.896143 0.694383 0.605195 0.131158
H6    H     H_    0.106242 0.268716 0.432645 0.137993
H7    H     H_    0.435404 0.392562 0.963194 0.240924
H8    H     H_    0.563879 0.609287 0.037386 0.251230
N1    N     N_2   0.478180 0.456750 0.041980 -0.155111
N2    N     N_2   0.521820 0.543250 0.958020 -0.147514
O1    O     O_R   0.505650 0.286040 0.618880 -0.585279
O2    O     O_R   0.494350 0.713960 0.381120 -0.566641
O3    O     O_R   0.490960 0.256910 0.309800 -0.487154
O4    O     O_R   0.509040 0.743090 0.690200 -0.512073
O5    O     O_R   0.394600 0.516230 0.672450 -0.563041
O6    O     O_R   0.605400 0.483770 0.327550 -0.564489
O7    O     O_R   0.379910 0.487100 0.363380 -0.575189
O8    O     O_R   0.620090 0.512900 0.636620 -0.564460
C21   C     C_2   0.254056 0.213258 0.430683 0.441681
H9    H     H_    0.223854 0.123233 0.333121 0.089845
O9    O     O_2   0.311841 0.182526 0.504109 -0.517523
C22   C     C_2   0.751162 0.765633 0.609621 0.437663
H10   H     H_    0.778886 0.840225 0.726423 0.127409
O10   O     O_2   0.699029 0.814159 0.532910 -0.544601
S1    S     S_3+6 0.713752 0.219650 0.171439 0.072090
O11   O     O_2   0.673444 0.300665 0.043879 -0.165417
O12   O     O_2   0.766055 0.105825 0.059445 -0.298193
O13   O     O_3   0.648012 0.123952 0.281300 -0.508756
H11   H     H_    0.676631 0.042939 0.321877 0.382545
S2    S     S_3+6 0.282220 0.789620 0.790360 0.014209
O14   O     O_2   0.344536 0.856071 0.681940 -0.255323
O15   O     O_2   0.229401 0.915061 0.872817 -0.332648
O16   O     O_3   0.322450 0.719962 0.958359 -0.453582
H12   H     H_    0.278872 0.671208 0.018235 0.344528
S3    S     S_3+6 0.424518 0.945799 0.250826 0.099910
O17   O     O_2   0.473492 0.857204 0.101439 -0.207467
O18   O     O_2   0.364969 0.837876 0.315130 -0.257343
O19   O     O_3   0.378803 0.076692 0.161641 -0.512436
H13   H     H_    0.328962 0.025146 0.117628 0.408153
S4    S     S_3+6 0.577775 0.055060 0.747059 0.127715
O20   O     O_2   0.618094 0.940622 0.831911 -0.179130
O21   O     O_2   0.637699 0.161206 0.680896 -0.228952
O22   O     O_3   0.523223 0.156516 0.911988 -0.423643
H14   H     H_    0.470961 0.105839 0.894389 0.369009

loop_
_geom_bond_atom_site_label_1
_geom_bond_atom_site_label_2
_ccdc_geom_bond_type
C2    C4    S    
O16   H12   S    
C6    O6    A    
C15   C17   A    
S4    O20   D    
C5    O5    A    
C11   C13   A    
C21   H9    S    
C9    C21   S    
C19   C20   D    
S2    O16   S    
S4    O21   D    
C18   S1    S    
C2    O2    A    
C13   C15   A    
C19   H2    S    
Cu1   O5    S    
S1    O12   D    
Cu1   O4    S    
N1    N2    D    
Cu1   Cu2   S    
S2    O14   D    
H8    N2    S    
Cu2   O3    S    
C21   O9    D    
S3    O17   D    
Cu1   O8    S    
C10   C12   A    
C11   H6    S    
Cu2   O7    S    
C3    S3    S    
C17   S2    S    
C8    C10   A    
C12   C14   A    
S2    O15   D    
O13   H11   S    
S1    O13   S    
C7    C9    A    
C9    C11   A    
C16   H4    S    
Cu2   O2    S    
Cu1   N2    S    
C14   C16   A    
C15   H3    S    
S3    O18   D    
Cu2   N1    S    
C13   C19   S    
C12   H5    S    
C10   C22   S    
C3    C4    D    
Cu2   O6    S    
C4    S4    S    
C6    O8    A    
Cu1   O1    S    
C22   H10   S    
C1    O3    A    
C14   C20   S    
H7    N1    S    
O22   H14   S    
C2    O4    A    
C5    C7    S    
C5    O7    A    
C1    O1    A    
S3    O19   S    
C6    C8    S    
S4    O22   S    
C1    C3    S    
C20   H1    S    
C16   C18   A    
C8    C18   A    
S1    O11   D    
C22   O10   D    
O19   H13   S    
C7    C17   A    
