data_str_m9_o16_o26_f0_sra.sym.20
_audit_creation_date              2012-12-11T15:15:37-0500
_audit_creation_method            fapswitch 2.2
_symmetry_space_group_name_H-M    P1
_symmetry_Int_Tables_number       1
_space_group_crystal_system       triclinic
_cell_length_a                    20.56651
_cell_length_b                    22.809342
_cell_length_c                    6.93559
_cell_angle_alpha                 90.000077
_cell_angle_beta                  86.441873
_cell_angle_gamma                 90.0
_cell_volume                      3247.27294653

loop_
_atom_site_label
_atom_site_type_symbol
_atom_type_description
_atom_site_fract_x
_atom_site_fract_y
_atom_site_fract_z
_atom_type_partial_charge
O1    O     O_R   0.387100 0.552640 0.378490 -0.536770
O2    O     O_R   0.612900 0.052640 0.621510 -0.536770
O3    O     O_R   0.249610 0.559600 0.072250 -0.544565
O4    O     O_R   0.750390 0.059600 0.927750 -0.544565
O5    O     O_R   0.249120 0.447360 0.902040 -0.536593
O6    O     O_R   0.750880 0.947360 0.097960 -0.536593
C1    C     C_R   0.227422 0.573949 0.245352 0.722204
C2    C     C_R   0.772578 0.073949 0.754648 0.722204
O7    O     O_R   0.386610 0.559560 0.048860 -0.540026
O8    O     O_R   0.613390 0.059560 0.951140 -0.540026
O9    O     O_R   0.387100 0.447320 0.878470 -0.531922
O10   O     O_R   0.612900 0.947320 0.121530 -0.531919
C3    C     C_R   0.407960 0.574699 0.213744 0.702388
C4    C     C_R   0.592040 0.074699 0.786256 0.702389
O11   O     O_R   0.249120 0.552680 0.402050 -0.543770
O12   O     O_R   0.750880 0.052680 0.597950 -0.543770
O13   O     O_3   0.318110 0.463180 0.223790 -0.370961
O14   O     O_3   0.681890 0.963180 0.776210 -0.370962
V1    V     V_3+5 0.318110 0.506830 0.948930 1.449625
V2    V     V_3+5 0.681890 0.006830 0.051070 1.449627
O15   O     O_R   0.386610 0.440400 0.548840 -0.542142
O16   O     O_R   0.613390 0.940400 0.451160 -0.542149
C5    C     C_R   0.407661 0.424965 0.714161 0.711530
C6    C     C_R   0.592340 0.924965 0.285839 0.711540
O17   O     O_R   0.249610 0.440440 0.572240 -0.544267
O18   O     O_R   0.750390 0.940440 0.427760 -0.544268
C7    C     C_R   0.227226 0.426031 0.745589 0.767807
C8    C     C_R   0.772774 0.926031 0.254411 0.767816
V3    V     V_3+5 0.318110 0.493170 0.448930 1.442325
V4    V     V_3+5 0.681890 0.993170 0.551070 1.442316
O19   O     O_3   0.318110 0.536820 0.723940 -0.374663
O20   O     O_3   0.681890 0.036820 0.276060 -0.374662
C9    C     C_R   0.174503 0.381358 0.764577 -0.242201
C10   C     C_R   0.825497 0.881357 0.235423 -0.242200
C11   C     C_R   0.163530 0.345504 0.605347 -0.314365
C12   C     C_R   0.836469 0.845504 0.394653 -0.314364
C13   C     C_R   0.113358 0.303685 0.613090 0.479430
C14   C     C_R   0.886641 0.803684 0.386910 0.479433
C15   C     C_R   0.071819 0.298644 0.781504 -0.044486
C16   C     C_R   0.928180 0.798643 0.218497 -0.044490
C17   C     C_R   0.082238 0.334455 0.943905 0.305431
C18   C     C_R   0.917761 0.834454 0.056096 0.305431
C19   C     C_R   0.134209 0.374342 0.936549 0.335124
C20   C     C_R   0.865791 0.874342 0.063451 0.335124
C21   C     C_R   0.887618 0.196835 0.869016 -0.238334
C22   C     C_R   0.112383 0.696837 0.130988 -0.238335
C23   C     C_R   0.840033 0.153401 0.891345 -0.151099
C24   C     C_R   0.159970 0.653403 0.108659 -0.151102
C25   C     C_R   0.858110 0.128016 0.553057 -0.233759
C26   C     C_R   0.141887 0.628013 0.446940 -0.233762
C27   C     C_R   0.906723 0.171337 0.529876 0.384583
C28   C     C_R   0.093274 0.671334 0.470122 0.384592
C29   C     C_R   0.921121 0.206187 0.689085 -0.018906
C30   C     C_R   0.078878 0.706186 0.310916 -0.018911
C31   C     C_2   0.020015 0.253499 0.791097 -0.169728
C32   C     C_2   0.979984 0.753498 0.208904 -0.169726
C33   C     C_2   0.971872 0.252521 0.668394 0.455224
C34   C     C_2   0.028127 0.752520 0.331608 0.455223
C35   C     C_R   0.824499 0.118762 0.733408 -0.073766
C36   C     C_R   0.175501 0.618761 0.266593 -0.073767
H1    H     H_    0.194927 0.349248 0.474693 0.148893
H2    H     H_    0.805072 0.849248 0.525307 0.148892
H3    H     H_    0.814775 0.147580 0.031767 0.130460
H4    H     H_    0.185230 0.647584 0.968239 0.130462
H5    H     H_    0.846985 0.101286 0.430247 0.123028
H6    H     H_    0.153010 0.601282 0.569747 0.123029
H7    H     H_    0.897932 0.223754 0.992108 0.147249
H8    H     H_    0.102071 0.723758 0.007899 0.147247
H9    H     H_    0.020353 0.221493 0.907225 0.114751
H10   H     H_    0.979647 0.721493 0.092774 0.114753
C37   C     C_R   0.576933 0.363371 0.721531 0.366058
C38   C     C_R   0.423067 0.863373 0.278432 0.366058
H11   H     H_    0.533011 0.448460 0.729390 0.151442
H12   H     H_    0.466990 0.948460 0.270578 0.151441
H13   H     H_    0.668837 0.277477 0.728295 0.134504
H14   H     H_    0.331163 0.777479 0.271647 0.134503
C39   C     C_R   0.460696 0.380920 0.715992 -0.231361
C40   C     C_R   0.539303 0.880920 0.284006 -0.231367
C41   C     C_R   0.474961 0.095226 0.834552 -0.202885
C42   C     C_R   0.525040 0.595225 0.165472 -0.202886
C43   C     C_R   0.422733 0.133003 0.871283 -0.216262
C44   C     C_R   0.577269 0.633001 0.128751 -0.216263
C45   C     C_R   0.430746 0.194149 0.856824 0.433509
C46   C     C_R   0.569257 0.694147 0.143199 0.433515
C47   C     C_R   0.491512 0.217792 0.783604 0.078624
C48   C     C_R   0.508489 0.717792 0.216397 0.078621
C49   C     C_R   0.546274 0.178792 0.767207 -0.004437
C50   C     C_R   0.453726 0.678793 0.232783 -0.004438
C51   C     C_R   0.501273 0.279487 0.744396 0.020433
C52   C     C_R   0.498727 0.779488 0.255597 0.020432
C53   C     C_R   0.566199 0.301855 0.732209 -0.039264
C54   C     C_R   0.433800 0.801856 0.267762 -0.039262
C55   C     C_R   0.618901 0.262542 0.733609 -0.157171
C56   C     C_R   0.381099 0.762543 0.266350 -0.157170
C57   C     C_R   0.609081 0.202336 0.740504 -0.163256
C58   C     C_R   0.390918 0.702337 0.259464 -0.163256
C59   C     C_R   0.449342 0.319348 0.709978 0.374344
C60   C     C_R   0.550657 0.819348 0.290029 0.374338
C61   C     C_R   0.524060 0.401610 0.727689 -0.208417
C62   C     C_R   0.475940 0.901611 0.272287 -0.208416
C63   C     C_R   0.537348 0.117192 0.789956 -0.089930
C64   C     C_R   0.462652 0.617192 0.210046 -0.089930
H15   H     H_    0.467362 0.048494 0.853356 0.138062
H16   H     H_    0.532640 0.548492 0.146678 0.138062
H17   H     H_    0.376236 0.114455 0.921368 0.136278
H18   H     H_    0.623768 0.614452 0.078682 0.136278
H19   H     H_    0.651689 0.174326 0.734335 0.101505
H20   H     H_    0.348310 0.674327 0.265624 0.101503
O21   O     O_3   0.941606 0.179441 0.355206 -0.638659
H21   H     H_    0.926749 0.150514 0.260713 0.287752
O22   O     O_3   0.058389 0.679436 0.644790 -0.638651
H22   H     H_    0.073245 0.650509 0.739281 0.287755
O23   O     O_3   0.638158 0.388224 0.709917 -0.631869
H23   H     H_    0.666408 0.364660 0.618997 0.289474
O24   O     O_3   0.361843 0.888226 0.290025 -0.631871
H24   H     H_    0.333589 0.864662 0.380939 0.289473
O25   O     O_3   0.390967 0.297112 0.652646 -0.616177
H25   H     H_    0.360612 0.329239 0.625317 0.280963
O26   O     O_3   0.609030 0.797112 0.347378 -0.616179
H26   H     H_    0.639377 0.829239 0.374767 0.280968
O27   O     O_3   0.382707 0.230737 0.936512 -0.619491
H27   H     H_    0.344467 0.207143 0.983831 0.293844
O28   O     O_3   0.617298 0.730734 0.063520 -0.619486
H28   H     H_    0.655540 0.707139 0.016219 0.293843
O29   O     O_3   0.969910 0.294921 0.526307 -0.586252
H29   H     H_    0.928808 0.290046 0.460561 0.307058
O30   O     O_3   0.030088 0.794919 0.473699 -0.586250
H30   H     H_    0.071194 0.790049 0.539430 0.307049
O31   O     O_3   0.043167 0.332169 0.113575 -0.579448
H31   H     H_    0.004087 0.308012 0.095946 0.315328
O32   O     O_3   0.956833 0.832168 0.886426 -0.579446
H32   H     H_    0.995913 0.808012 0.904056 0.315328
O33   O     O_3   0.142665 0.407724 0.098132 -0.599822
H33   H     H_    0.185323 0.395957 0.144876 0.291413
O34   O     O_3   0.857335 0.907723 0.901868 -0.599823
H34   H     H_    0.814676 0.895957 0.855125 0.291413
O35   O     O_3   0.104925 0.266384 0.459505 -0.588392
H35   H     H_    0.137901 0.275518 0.353332 0.304769
O36   O     O_3   0.895073 0.766384 0.540495 -0.588389
H36   H     H_    0.862097 0.775517 0.646668 0.304770

loop_
_geom_bond_atom_site_label_1
_geom_bond_atom_site_label_2
_ccdc_geom_bond_type
V4    O20   S    
C50   C58   A    
C17   O31   S    
O13   V3    S    
O22   H22   S    
O4    C2    A    
V1    O19   S    
C38   C62   A    
O28   H28   S    
C15   C17   A    
C7    C9    S    
C46   O28   S    
C22   H8    S    
C38   O24   S    
O9    V1    S    
C25   H5    S    
O10   V2    S    
C42   H16   S    
C11   C13   A    
C46   C48   A    
O23   H23   S    
O3    C1    A    
C2    C35   S    
C33   O29   S    
C38   C54   A    
C48   C50   A    
C24   H4    S    
O12   V4    S    
O24   H24   S    
C37   O23   S    
C19   O33   S    
O7    C3    A    
H14   C56   S    
O5    C7    A    
O7    V1    S    
O6    C8    A    
O8    V2    S    
C16   C32   S    
C49   C57   A    
C40   C60   A    
C26   C28   A    
C14   O36   S    
O3    V1    S    
C18   O32   S    
O14   V4    S    
C51   C53   A    
C10   C12   A    
C24   C36   A    
C15   C31   S    
C20   O34   S    
C16   C18   A    
C58   H20   S    
C8    C10   S    
C34   O30   S    
C55   C57   A    
C49   C63   A    
C17   C19   A    
C41   H15   S    
C18   C20   A    
C12   H2    S    
O1    V3    S    
C43   C45   A    
C28   C30   A    
O11   V3    S    
C43   H17   S    
C21   C23   A    
O17   V3    S    
C13   C15   A    
C22   C24   A    
C23   C35   A    
C47   C49   A    
C9    C19   A    
O34   H34   S    
C10   C20   A    
C42   C44   A    
C48   C52   A    
C41   C43   A    
C29   C33   S    
O13   V1    S    
C4    C63   S    
H12   C62   S    
C1    O11   A    
C28   O22   S    
C25   C27   A    
O15   V3    S    
C5    C39   S    
C23   H3    S    
C51   C59   A    
C27   C29   A    
C40   C62   A    
C21   H7    S    
C53   C55   A    
C52   C54   A    
O26   H26   S    
C22   C30   A    
C54   C56   A    
C11   H1    S    
C45   O27   S    
C56   C58   A    
C26   H6    S    
C60   O26   S    
O27   H27   S    
C31   H9    S    
C57   H19   S    
C6    C40   S    
C45   C47   A    
O18   V4    S    
C44   C46   A    
C31   C33   D    
O8    C4    A    
O29   H29   S    
C30   C34   S    
O16   C6    A    
O1    C3    A    
O30   H30   S    
C1    C36   S    
H13   C55   S    
O31   H31   S    
V2    O20   S    
H11   C61   S    
C47   C51   A    
O16   V4    S    
O18   C8    A    
C50   C64   A    
O36   H36   S    
O5    V1    S    
O17   C7    A    
O6    V2    S    
O35   H35   S    
O10   C6    A    
C32   H10   S    
C25   C35   A    
O2    V4    S    
C26   C36   A    
O15   C5    A    
C27   O21   S    
V3    O19   S    
O25   H25   S    
C12   C14   A    
C14   C16   A    
O33   H33   S    
C37   C61   A    
O9    C5    A    
C9    C11   A    
C32   C34   D    
C39   C61   A    
O14   V2    S    
C44   H18   S    
C59   O25   S    
O2    C4    A    
C21   C29   A    
O4    V2    S    
C37   C53   A    
C2    O12   A    
C42   C64   A    
C41   C63   A    
C13   O35   S    
C39   C59   A    
C3    C64   S    
O21   H21   S    
C52   C60   A    
O32   H32   S    
