data_str_m9_o11_o16_f0_sra.sym.68
_audit_creation_date              2012-12-11T14:17:47-0500
_audit_creation_method            fapswitch 2.2
_symmetry_space_group_name_H-M    P1
_symmetry_Int_Tables_number       1
_space_group_crystal_system       triclinic
_cell_length_a                    6.937844
_cell_length_b                    13.634953
_cell_length_c                    20.430514
_cell_angle_alpha                 101.95311
_cell_angle_beta                  89.920148
_cell_angle_gamma                 90.774704
_cell_volume                      1890.58891911

loop_
_atom_site_label
_atom_site_type_symbol
_atom_type_description
_atom_site_fract_x
_atom_site_fract_y
_atom_site_fract_z
_atom_type_partial_charge
O1    O     O_R   0.506860 0.599390 0.449240 -0.539341
O2    O     O_R   0.180220 0.594600 0.586780 -0.555643
O3    O     O_R   0.004500 0.400610 0.550760 -0.539332
C1    C     C_R   0.349304 0.612854 0.614440 0.622541
O4    O     O_R   0.177490 0.611290 0.451970 -0.539191
O5    O     O_R   0.001750 0.417420 0.414990 -0.509745
C2    C     C_R   0.347266 0.638032 0.435170 0.747049
O6    O     O_R   0.509610 0.582580 0.585010 -0.550702
O7    O     O_3   0.337420 0.436370 0.488020 -0.343947
V1    V     V_3+5 0.064680 0.511800 0.502220 1.492608
O8    O     O_R   0.671710 0.405400 0.413220 -0.522430
C3    C     C_R   0.840758 0.385273 0.385946 0.801576
O9    O     O_R   0.674440 0.388710 0.548030 -0.542479
C4    C     C_R   0.842354 0.361886 0.564693 0.692745
V2    V     V_3+5 0.564010 0.488200 0.497780 1.518830
O10   O     O_3   0.841140 0.563630 0.511980 -0.387364
C5    C     C_R   0.833125 0.110889 0.612856 -0.140364
H1    H     H_    0.825219 0.161108 0.520084 0.139889
H2    H     H_    0.831492 0.985645 0.696237 0.137299
H3    H     H_    0.823633 0.032598 0.588034 0.127761
C6    C     C_R   0.847546 0.284910 0.604811 -0.043439
C7    C     C_R   0.874865 0.315372 0.928183 -0.175360
C8    C     C_R   0.875825 0.391440 0.892304 -0.103940
C9    C     C_R   0.868458 0.368661 0.822642 -0.144876
C10   C     C_R   0.859573 0.267890 0.786733 0.073849
C11   C     C_R   0.856706 0.190198 0.823980 0.060753
C12   C     C_R   0.853474 0.241633 0.715274 0.076535
C13   C     C_R   0.842274 0.138715 0.682935 0.125388
C14   C     C_R   0.839556 0.064194 0.720597 -0.193836
C15   C     C_R   0.847111 0.089305 0.789925 -0.193576
C16   C     C_R   0.857495 0.313824 0.674518 -0.214509
C17   C     C_R   0.834523 0.183665 0.574063 -0.130431
C18   C     C_R   0.864879 0.215104 0.894805 -0.076885
H4    H     H_    0.866254 0.393174 0.695075 0.100644
H5    H     H_    0.882260 0.334723 0.982323 0.106502
H6    H     H_    0.869906 0.431881 0.798637 0.128680
H7    H     H_    0.883102 0.468936 0.918702 0.135140
H8    H     H_    0.844875 0.028547 0.816663 0.150718
C19   C     C_2   0.007373 0.299947 0.279343 0.306932
C20   C     C_2   0.848889 0.315491 0.319528 -0.316586
H9    H     H_    0.716960 0.273811 0.304013 0.167754
C21   C     C_2   0.012860 0.225948 0.214378 -0.124167
C22   C     C_2   0.857250 0.185137 0.179342 -0.348867
H10   H     H_    0.154718 0.207529 0.193141 0.180728
H11   H     H_    0.713299 0.204306 0.197921 0.163438
C23   C     C_2   0.202181 0.781412 0.783400 0.292934
C24   C     C_2   0.359351 0.826181 0.816739 -0.286841
H12   H     H_    0.496013 0.823268 0.790659 0.189746
C25   C     C_2   0.212246 0.727022 0.712349 -0.181488
C26   C     C_2   0.361452 0.670095 0.684936 0.174217
H13   H     H_    0.083639 0.729572 0.682503 0.127244
C27   C     C_R   0.448555 0.885832 0.388313 0.410765
H14   H     H_    0.449452 0.830724 0.479388 0.123901
C28   C     C_R   0.361240 0.716082 0.395810 -0.121336
C29   C     C_R   0.328891 0.686026 0.073371 -0.158360
C30   C     C_R   0.317554 0.610856 0.109865 -0.119185
C31   C     C_R   0.329990 0.634297 0.179441 -0.138744
C32   C     C_R   0.352670 0.734982 0.214763 0.096699
C33   C     C_R   0.366658 0.811311 0.176904 0.015997
C34   C     C_R   0.366118 0.761783 0.286111 -0.006726
C35   C     C_R   0.409677 0.863272 0.318193 -0.033510
C36   C     C_R   0.408547 0.938270 0.279419 0.255903
C37   C     C_R   0.389223 0.911642 0.210248 -0.221051
C38   C     C_R   0.336499 0.690502 0.326685 -0.192803
C39   C     C_R   0.419455 0.812760 0.426144 -0.191879
C40   C     C_R   0.354172 0.785907 0.106081 -0.061667
H15   H     H_    0.293378 0.614118 0.306277 0.144780
H16   H     H_    0.319022 0.666229 0.019288 0.116677
H17   H     H_    0.325321 0.571384 0.203738 0.133907
H18   H     H_    0.300153 0.533488 0.083997 0.125958
H19   H     H_    0.390328 0.971355 0.182593 0.146198
O11   O     O_R   0.203230 0.917310 0.915020 -0.513774
O12   O     O_R   0.535500 0.888690 0.048040 -0.540490
O13   O     O_R   0.711080 0.082610 0.085000 -0.545060
C41   C     C_R   0.365945 0.862395 0.065190 0.687419
O14   O     O_R   0.532630 0.905370 0.913230 -0.528898
O15   O     O_R   0.708190 0.099410 0.949230 -0.543214
C42   C     C_R   0.363415 0.885334 0.886195 0.768659
O16   O     O_R   0.206120 0.900510 0.050790 -0.538265
O17   O     O_3   0.375360 0.063570 0.011990 -0.383507
V3    V     V_3+5 0.648170 0.988200 0.997780 1.495349
O18   O     O_R   0.038240 0.111390 0.951940 -0.543111
C43   C     C_R   0.870330 0.137732 0.934950 0.685205
O19   O     O_R   0.041120 0.094710 0.086750 -0.546668
C44   C     C_R   0.872176 0.115932 0.113379 0.753213
V4    V     V_3+5 0.148810 0.011930 0.002180 1.480762
O20   O     O_3   0.871750 0.936430 0.988010 -0.348232
Br1   Br    Br    0.948546 0.787016 0.822119 -0.561526
O21   O     O_3   0.518434 0.659065 0.724460 -0.629642
H20   H     H_    0.607030 0.609008 0.698801 0.303553
Br2   Br    Br    0.404215 0.080473 0.316054 -0.542113
O22   O     O_3   0.529053 0.975279 0.420996 -0.620923
H21   H     H_    0.635022 0.991579 0.392269 0.316965
Br3   Br    Br    0.247649 0.372272 0.300823 -0.567391

loop_
_geom_bond_atom_site_label_1
_geom_bond_atom_site_label_2
_ccdc_geom_bond_type
C29   C30   A    
C1    O6    A    
C29   H16   S    
C28   C39   A    
C7    H5    S    
C6    C16   A    
C23   C25   S    
C9    H6    S    
C4    C6    S    
C13   C14   A    
O19   V4    S    
C27   C35   A    
C33   C40   A    
O5    C3    A    
O15   C43   A    
C32   C34   A    
V2    O10   S    
C5    H3    S    
C30   C31   A    
C15   H8    S    
O11   C42   A    
C11   C18   A    
O8    V2    S    
C25   H13   S    
O17   V4    S    
C8    C9    A    
O1    V2    S    
H14   C39   S    
O7    V1    S    
O9    C4    A    
O12   C41   A    
C21   H10   S    
O12   V3    S    
C19   C21   S    
C23   Br1   S    
C6    C17   A    
C12   C16   A    
C22   C44   S    
C38   H15   S    
O19   C44   A    
C19   C20   D    
O4    C2    A    
V4    O20   S    
C32   C33   A    
C8    H7    S    
O18   C43   A    
C1    C26   S    
C34   C35   A    
C3    C20   S    
O2    C1    A    
C19   Br3   S    
C14   C15   A    
C22   H11   S    
C26   O21   S    
C24   H12   S    
O15   V3    S    
C36   Br2   S    
C36   C37   A    
C16   H4    S    
C9    C10   A    
C18   C43   S    
V3    O20   S    
O3    C4    A    
C20   H9    S    
C37   H19   S    
C11   C15   A    
O6    V2    S    
C30   H18   S    
O9    V2    S    
C27   O22   S    
H1    C17   S    
C21   C22   D    
O13   V3    S    
O2    V1    S    
C29   C40   A    
C7    C18   A    
C23   C24   D    
O1    C2    A    
C5    C13   A    
O14   C42   A    
O17   V3    S    
O14   V3    S    
O5    V1    S    
O11   V4    S    
O8    C3    A    
C10   C12   A    
C33   C37   A    
C24   C42   S    
C34   C38   A    
C10   C11   A    
O4    V1    S    
O3    V1    S    
O18   V4    S    
C31   C32   A    
C28   C38   A    
C40   C41   S    
O22   H21   S    
O13   C44   A    
O7    V2    S    
C35   C36   A    
C25   C26   D    
C12   C13   A    
C5    C17   A    
C7    C8    A    
V1    O10   S    
C2    C28   S    
C31   H17   S    
O21   H20   S    
C41   O16   A    
O16   V4    S    
C27   C39   A    
H2    C14   S    
