data_str_m2_o5_o29_f0_pcu.sym.90
_audit_creation_date              2013-03-05T16:36:16-0500
_audit_creation_method            fapswitch 2.2
_symmetry_space_group_name_H-M    P1
_symmetry_Int_Tables_number       1
_space_group_crystal_system       triclinic
_cell_length_a                    27.82017
_cell_length_b                    9.085685
_cell_length_c                    7.783847
_cell_angle_alpha                 90.002387
_cell_angle_beta                  89.996662
_cell_angle_gamma                 89.997404
_cell_volume                      1967.4864249

loop_
_atom_site_label
_atom_site_type_symbol
_atom_site_description
_atom_site_fract_x
_atom_site_fract_y
_atom_site_fract_z
_atom_type_partial_charge
O1    O     O_R   0.500000 0.288390 0.642760 -0.574733
O2    O     O_R   0.500000 0.711610 0.357240 -0.574721
O3    O     O_R   0.500000 0.711610 0.642760 -0.574726
O4    O     O_R   0.500000 0.288390 0.357240 -0.574724
C1    C     C_R   0.500000 0.220027 0.499999 0.851001
C2    C     C_R   0.500000 0.779973 0.500000 0.851022
O5    O     O_R   0.430260 0.500000 0.642770 -0.581990
O6    O     O_R   0.569740 0.500000 0.357230 -0.581968
O7    O     O_R   0.569740 0.500000 0.642770 -0.581954
O8    O     O_R   0.430260 0.500000 0.357230 -0.581938
C3    C     C_R   0.407221 0.499991 0.500007 0.814850
C4    C     C_R   0.592780 0.499991 0.499994 0.814826
Cu1   Cu    Cu3+1 0.500000 0.500000 0.669080 1.028225
Cu2   Cu    Cu3+1 0.500000 0.500000 0.330920 1.028247
C5    C     C_R   0.177520 0.370410 0.472226 0.641034
C6    C     C_R   0.822485 0.629071 0.472018 0.639918
C7    C     C_R   0.177521 0.628924 0.527725 0.638442
C8    C     C_R   0.822476 0.370586 0.527712 0.639929
O9    O     O_2   0.202386 0.245378 0.442805 -0.511255
O10   O     O_2   0.797623 0.754092 0.442513 -0.511514
O11   O     O_2   0.202387 0.753944 0.557172 -0.511611
O12   O     O_2   0.797606 0.245591 0.557246 -0.511513
N1    N     N_R   0.201586 0.499651 0.500054 -0.430340
N2    N     N_R   0.798415 0.499842 0.499884 -0.430294
C9    C     C_R   0.278689 0.551188 0.353540 0.003574
C10   C     C_R   0.721293 0.448621 0.353287 0.003218
C11   C     C_R   0.278715 0.448335 0.646651 0.002860
C12   C     C_R   0.721307 0.551162 0.646579 0.003223
C13   C     C_R   0.329101 0.549123 0.355846 -0.216270
C14   C     C_R   0.670880 0.450857 0.355677 -0.216336
C15   C     C_R   0.329131 0.450643 0.644263 -0.216740
C16   C     C_R   0.670893 0.549007 0.644244 -0.216320
C17   C     C_R   0.253228 0.499654 0.500061 0.213755
C18   C     C_R   0.746775 0.499871 0.499919 0.213617
C19   C     C_R   0.101612 0.499701 0.499873 -0.036687
C20   C     C_R   0.898390 0.499790 0.499819 -0.036688
C21   C     C_R   0.127110 0.367311 0.476316 -0.014875
C22   C     C_R   0.872895 0.632171 0.476159 -0.014777
C23   C     C_R   0.127114 0.632070 0.523481 -0.014743
C24   C     C_R   0.872885 0.367435 0.523504 -0.014776
C25   C     C_R   0.101832 0.235341 0.456826 -0.144387
C26   C     C_R   0.898173 0.764132 0.456618 -0.144397
C27   C     C_R   0.101842 0.764066 0.542892 -0.144322
C28   C     C_R   0.898154 0.235447 0.543006 -0.144380
C29   C     C_R   0.354344 0.499918 0.500034 -0.079962
C30   C     C_R   0.645659 0.499954 0.499973 -0.080226
H1    H     H_    0.349081 0.412528 0.755256 0.195670
H2    H     H_    0.650959 0.587073 0.755313 0.195702
H3    H     H_    0.349023 0.587350 0.244821 0.195435
H4    H     H_    0.650936 0.412822 0.244629 0.195703
H5    H     H_    0.120571 0.132399 0.435760 0.185801
H6    H     H_    0.879436 0.867066 0.435485 0.185850
H7    H     H_    0.120584 0.866993 0.563984 0.185889
H8    H     H_    0.879409 0.132531 0.564146 0.185869
C31   C     C_R   0.974600 0.364257 0.507805 0.045869
C32   C     C_R   0.025398 0.635237 0.507741 0.045871
C33   C     C_R   0.974610 0.635254 0.491788 0.045880
C34   C     C_R   0.025391 0.364233 0.491876 0.045872
C35   C     C_R   0.949364 0.499767 0.499801 0.068484
C36   C     C_R   0.050636 0.499724 0.499826 0.068496
C37   C     C_R   0.948072 0.233432 0.533590 -0.202446
C38   C     C_R   0.051925 0.766074 0.533463 -0.202482
C39   C     C_R   0.948092 0.766102 0.465997 -0.202446
C40   C     C_R   0.051912 0.233376 0.466170 -0.202394
H9    H     H_    0.965161 0.128275 0.553131 0.131059
H10   H     H_    0.034834 0.871237 0.552947 0.131035
H11   H     H_    0.965189 0.871241 0.446435 0.131049
H12   H     H_    0.034816 0.128230 0.446649 0.131014
C41   C     C_1   0.500000 0.065386 0.499999 -0.151802
C42   C     C_1   0.500000 0.934614 0.500000 -0.151805
N3    N     N_1   0.500000 0.500000 0.076820 -0.040739
N4    N     N_1   0.500000 0.500000 0.923180 -0.040741
C43   C     C_2   0.254010 0.391040 0.803679 0.915613
O13   O     O_2   0.277107 0.324945 0.913011 -0.572262
O14   O     O_R   0.204742 0.412071 0.828789 -0.775236
H13   H     H_    0.192477 0.363320 0.937449 0.358328
C44   C     C_2   0.746033 0.608337 0.803608 0.916113
O15   O     O_2   0.722978 0.674712 0.912829 -0.572298
O16   O     O_R   0.795275 0.586850 0.828845 -0.775452
H14   H     H_    0.807561 0.635450 0.937561 0.357952
C45   C     C_2   0.253940 0.608617 0.196740 0.915884
O17   O     O_2   0.276874 0.676600 0.088528 -0.571687
O18   O     O_R   0.204813 0.585539 0.170560 -0.775402
H15   H     H_    0.192473 0.634544 0.062165 0.357860
C46   C     C_2   0.746003 0.391410 0.196231 0.916128
O19   O     O_2   0.722934 0.325064 0.087038 -0.572320
O20   O     O_R   0.795246 0.412825 0.170934 -0.775440
H16   H     H_    0.807520 0.364202 0.062206 0.357958

loop_
_geom_bond_atom_site_label_1
_geom_bond_atom_site_label_2
_geom_bond_distance
_ccdc_geom_bond_type
O5    Cu1   1.950969 S    
C9    C45   1.495360 S    
O20   H16   1.013878 S    
C31   C35   1.418645 A    
C43   O14   1.397616 S    
Cu2   N3    1.977875 S    
C20   C35   1.418119 A    
C45   O17   1.223977 D    
C13   H3    1.083807 S    
C44   O15   1.223810 D    
C11   C17   1.422050 A    
C5    O9    1.349596 S    
C7    N1    1.368953 A    
O1    C1    1.273014 A    
C40   H12   1.077941 S    
C19   C21   1.408393 A    
C22   C26   1.398319 A    
C33   C35   1.418650 A    
C34   C36   1.418661 A    
C32   C33   1.418406 A    
C7    C23   1.403009 A    
O7    Cu1   1.950942 S    
C5    C21   1.403042 A    
C1    C41   1.405016 S    
C27   H7    1.083231 S    
N1    C17   1.436695 S    
C8    N2    1.368989 A    
O3    Cu1   1.933515 S    
C6    O10   1.349589 S    
O3    C2    1.273052 A    
C5    N1    1.368982 A    
C14   H4    1.083731 S    
C12   C18   1.422037 A    
C6    N2    1.368988 A    
C15   H1    1.083720 S    
Cu1   Cu2   2.632186 S    
O4    Cu2   1.933516 S    
C16   H2    1.083733 S    
O2    C2    1.273014 A    
C45   O18   1.397659 S    
C10   C18   1.422015 A    
C33   C39   1.413457 A    
C44   O16   1.397628 S    
C43   O13   1.223851 D    
C9    C13   1.402705 A    
C39   H11   1.077960 S    
C38   H10   1.077927 S    
C46   O20   1.397630 S    
C11   C15   1.402839 A    
C12   C16   1.402794 A    
C4    C30   1.471092 S    
O8    Cu2   1.950945 S    
C23   C27   1.398317 A    
C34   C40   1.413461 A    
C46   O19   1.223819 D    
C7    O11   1.349599 S    
C32   C36   1.418657 A    
C13   C29   1.397420 A    
C19   C36   1.418164 A    
C19   C23   1.408393 A    
O14   H13   1.013906 S    
C28   H8    1.083249 S    
O5    C3    1.282881 A    
O18   H15   1.013918 S    
C20   C24   1.408415 A    
O6    C4    1.282895 A    
C12   C44   1.495689 S    
C10   C14   1.402783 A    
C32   C38   1.413461 A    
C3    C29   1.471036 S    
O1    Cu1   1.933499 S    
C2    C42   1.405017 S    
O6    Cu2   1.950966 S    
C8    O12   1.349590 S    
C16   C30   1.397365 A    
C14   C30   1.397378 A    
O4    C1    1.273052 A    
Cu1   N4    1.977875 S    
C28   C37   1.390775 A    
C20   C22   1.408407 A    
N3    N4    1.195911 T    
C10   C46   1.495694 S    
C31   C37   1.413466 A    
C21   C25   1.398331 A    
C41   C42   1.188153 T    
O2    Cu2   1.933498 S    
O7    C4    1.282913 A    
N2    C18   1.436642 S    
C9    C17   1.421854 A    
O8    C3    1.282908 A    
O16   H14   1.013873 S    
C37   H9    1.077946 S    
C24   C28   1.398310 A    
C8    C24   1.403056 A    
C15   C29   1.397427 A    
C31   C34   1.418417 A    
C6    C22   1.403051 A    
C25   C40   1.390806 A    
C11   C43   1.495767 S    
C26   C39   1.390770 A    
C25   H5    1.083220 S    
C27   C38   1.390786 A    
C26   H6    1.083230 S    
