data_str_m2_o13_o15_f0_pcu.sym.31
_audit_creation_date              2012-10-26T18:50:01-0400
_audit_creation_method            fapswitch 2.2
_symmetry_space_group_name_H-M    P1
_symmetry_Int_Tables_number       1
_space_group_crystal_system       triclinic
_cell_length_a                    10.867998
_cell_length_b                    13.066047
_cell_length_c                    11.608628
_cell_angle_alpha                 98.084373
_cell_angle_beta                  92.00963
_cell_angle_gamma                 90.87371
_cell_volume                      1630.72051157

loop_
_atom_site_label
_atom_site_type_symbol
_atom_type_description
_atom_site_fract_x
_atom_site_fract_y
_atom_site_fract_z
_atom_type_partial_charge
C1    C     C_R   0.484294 0.300432 0.481215 0.544782
C2    C     C_R   0.440722 0.862895 0.430210 -0.008973
C3    C     C_R   0.459868 0.029693 0.556426 0.053131
C4    C     C_R   0.443250 0.972292 0.443831 0.046343
C5    C     C_R   0.363547 0.423678 0.030496 -0.191423
C6    C     C_R   0.638526 0.573681 0.969200 -0.190498
C7    C     C_R   0.379097 0.428324 0.151151 0.033784
C8    C     C_R   0.620884 0.571739 0.848969 0.044122
C9    C     C_R   0.564482 0.526061 0.151522 0.026224
C10   C     C_R   0.438472 0.469907 0.847856 0.026412
C11   C     C_R   0.552906 0.523398 0.030145 0.006095
C12   C     C_R   0.494076 0.700564 0.519270 0.545368
C13   C     C_R   0.450738 0.471706 0.969064 0.002786
C14   C     C_R   0.262003 0.493783 0.502938 0.533518
C15   C     C_R   0.738090 0.505717 0.497040 0.552078
C16   C     C_R   0.119833 0.568496 0.718563 -0.087521
C17   C     C_R   0.879230 0.426106 0.283249 -0.091951
C18   C     C_R   0.059415 0.632236 0.805190 0.010808
C19   C     C_R   0.937488 0.359112 0.198201 0.006462
C20   C     C_R   0.945589 0.672073 0.777697 -0.118000
C21   C     C_R   0.053045 0.321883 0.224790 -0.121515
C22   C     C_R   0.887182 0.638818 0.670121 -0.113717
C23   C     C_R   0.479497 0.813238 0.527070 0.003975
C24   C     C_R   0.113292 0.358603 0.330699 -0.113666
C25   C     C_R   0.941029 0.564136 0.587923 0.006232
C26   C     C_R   0.059371 0.433772 0.412406 0.004642
C27   C     C_R   0.065076 0.539251 0.605413 -0.003385
C28   C     C_R   0.935010 0.457946 0.395292 -0.008211
C29   C     C_R   0.872984 0.514681 0.489327 -0.036619
C30   C     C_R   0.127340 0.483752 0.510771 -0.036404
C31   C     C_3   0.115454 0.656376 0.927158 -0.260264
C32   C     C_3   0.043667 0.600211 0.012039 -0.299909
C33   C     C_3   0.100825 0.620886 0.135293 -0.449476
C34   C     C_R   0.457495 0.189118 0.472911 0.000492
C35   C     C_3   0.877503 0.331247 0.078218 -0.265106
C36   C     C_3   0.757622 0.268203 0.081681 -0.290640
C37   C     C_3   0.694847 0.244665 0.960889 -0.450112
C38   C     C_3   0.386602 0.803609 0.316457 -0.233904
C39   C     C_3   0.483315 0.787241 0.222235 -0.285544
C40   C     C_3   0.422445 0.757513 0.101460 -0.457444
C41   C     C_3   0.393716 0.191478 0.685606 -0.252478
C42   C     C_3   0.272506 0.140181 0.715594 -0.308903
C43   C     C_3   0.217225 0.199548 0.823569 -0.470388
C44   C     C_R   0.429094 0.026341 0.347650 -0.155585
C45   C     C_R   0.491619 0.978689 0.651122 -0.153299
C46   C     C_R   0.444844 0.132290 0.361589 -0.161489
C47   C     C_R   0.504952 0.872700 0.635774 -0.160357
C48   C     C_R   0.443691 0.137577 0.571625 -0.003233
Cu1   Cu    Cu3+1 0.509250 0.507730 0.615930 0.916825
Cu2   Cu    Cu3+1 0.490750 0.492270 0.384070 0.901599
H1    H     H_    0.098675 0.267273 0.162201 0.092202
H2    H     H_    0.445429 0.169718 0.284017 0.130494
H3    H     H_    0.414032 0.988490 0.259478 0.114189
H4    H     H_    0.510618 0.020825 0.737178 0.108381
H5    H     H_    0.361876 0.428758 0.799549 0.093976
H6    H     H_    0.641512 0.566785 0.199873 0.096998
H7    H     H_    0.685890 0.611927 0.802723 0.126016
H8    H     H_    0.312045 0.390733 0.197821 0.128055
H9    H     H_    0.193728 0.587216 0.137881 0.164298
H10   H     H_    0.107873 0.705307 0.165849 0.144624
H11   H     H_    0.042433 0.584387 0.195373 0.157926
H12   H     H_    0.899741 0.725679 0.841191 0.093736
H13   H     H_    0.946969 0.626573 0.014226 0.152151
H14   H     H_    0.042790 0.515493 0.982182 0.161211
H15   H     H_    0.213090 0.632154 0.929210 0.138817
H16   H     H_    0.114880 0.741310 0.955210 0.137350
H17   H     H_    0.672210 0.317602 0.926592 0.173088
H18   H     H_    0.755851 0.198252 0.899850 0.149902
H19   H     H_    0.608022 0.199922 0.966201 0.133912
H20   H     H_    0.778227 0.194229 0.114687 0.163866
H21   H     H_    0.692513 0.311666 0.141092 0.179542
H22   H     H_    0.857587 0.403832 0.041829 0.137488
H23   H     H_    0.283148 0.384535 0.986372 0.083216
H24   H     H_    0.941376 0.286005 0.018848 0.135335
H25   H     H_    0.371817 0.682705 0.096805 0.167212
H26   H     H_    0.357423 0.817905 0.081353 0.138465
H27   H     H_    0.493772 0.750064 0.034905 0.148599
H28   H     H_    0.541026 0.857868 0.221383 0.149762
H29   H     H_    0.547266 0.726449 0.241348 0.182273
H30   H     H_    0.341510 0.729463 0.328504 0.175008
H31   H     H_    0.307530 0.846951 0.285821 0.119020
H32   H     H_    0.282852 0.202319 0.899524 0.147234
H33   H     H_    0.195021 0.279403 0.808444 0.141685
H34   H     H_    0.717013 0.615425 0.014212 0.073535
H35   H     H_    0.130899 0.160038 0.843348 0.141888
H36   H     H_    0.204827 0.137784 0.641092 0.167785
H37   H     H_    0.287269 0.059726 0.732341 0.170476
H38   H     H_    0.463893 0.192949 0.757747 0.136664
H39   H     H_    0.369018 0.271845 0.678803 0.173361
H40   H     H_    0.204418 0.536589 0.745779 0.135996
H41   H     H_    0.794846 0.457622 0.255185 0.139459
H42   H     H_    0.798695 0.671189 0.651926 0.118526
H43   H     H_    0.202688 0.327634 0.348479 0.117900
H44   H     H_    0.533931 0.837022 0.710772 0.129861
N1    N     N_R   0.523180 0.519350 0.790130 -0.230680
N2    N     N_R   0.476820 0.480650 0.209870 -0.234136
O1    O     O_R   0.506570 0.354460 0.582000 -0.506183
O2    O     O_R   0.493430 0.645540 0.418000 -0.512169
O3    O     O_R   0.490940 0.341410 0.386200 -0.510466
O4    O     O_R   0.509060 0.658590 0.613800 -0.510854
O5    O     O_R   0.327470 0.506520 0.597900 -0.526304
O6    O     O_R   0.672530 0.493480 0.402100 -0.519678
O7    O     O_R   0.311840 0.493460 0.402100 -0.511322
O8    O     O_R   0.688160 0.506540 0.597900 -0.495350

loop_
_geom_bond_atom_site_label_1
_geom_bond_atom_site_label_2
_ccdc_geom_bond_type
C31   H16   S    
C41   H39   S    
C35   H24   S    
C16   H40   S    
C37   H19   S    
C43   H33   S    
C41   C42   S    
C35   C36   S    
C17   H41   S    
C1    O3    A    
Cu1   O8    S    
C7    N2    A    
C12   C23   S    
Cu2   O3    S    
C28   C29   A    
C19   C21   A    
C24   C26   A    
Cu1   O5    S    
C38   C39   S    
C37   H18   S    
C46   H2    S    
C3    C48   A    
C44   H3    S    
C47   H44   S    
C36   H20   S    
C22   C25   A    
C42   H36   S    
C15   O8    A    
C7    H8    S    
C5    C13   A    
C36   H21   S    
C16   C27   A    
Cu2   O7    S    
C33   H9    S    
C27   C30   A    
C20   H12   S    
C8    N1    A    
C14   C30   S    
C44   C46   A    
C1    C34   S    
C15   C29   S    
C45   C47   A    
C25   C29   A    
Cu2   O2    S    
C6    H34   S    
C43   H35   S    
C39   H28   S    
C23   C47   A    
C32   H14   S    
C1    O1    A    
C6    C11   A    
C5    C7    A    
C14   O5    A    
C6    C8    A    
C4    C44   A    
C3    C45   A    
C40   H26   S    
C39   H29   S    
C2    C4    A    
C8    H7    S    
C2    C38   S    
C31   C32   S    
C9    H6    S    
Cu1   N1    S    
C10   H5    S    
C9    C11   A    
C9    N2    A    
C34   C46   A    
C33   H11   S    
C20   C22   A    
C45   H4    S    
Cu2   O6    S    
C33   H10   S    
C38   H31   S    
C34   C48   A    
C42   C43   S    
C3    C4    A    
C21   H1    S    
C31   H15   S    
C41   H38   S    
C36   C37   S    
C17   C28   A    
C12   O2    A    
C32   H13   S    
C10   C13   A    
C35   H22   S    
C26   C30   A    
C42   H37   S    
C25   C27   A    
C26   C28   A    
C40   H25   S    
C32   C33   S    
C19   C35   S    
C24   H43   S    
Cu1   O4    S    
C11   C13   A    
Cu2   N2    S    
C14   O7    A    
C38   H30   S    
C10   N1    A    
C37   H17   S    
C17   C19   A    
C41   C48   S    
C18   C20   A    
C15   O6    A    
C5    H23   S    
C12   O4    A    
Cu1   O1    S    
C39   C40   S    
C16   C18   A    
Cu1   Cu2   S    
C21   C24   A    
C2    C23   A    
C43   H32   S    
C22   H42   S    
C40   H27   S    
C18   C31   S    
