data_str_m4_o15_o24_f0_acs.sym.72
_audit_creation_date              2012-12-11T14:28:30-0500
_audit_creation_method            fapswitch 2.2
_symmetry_space_group_name_H-M    P1
_symmetry_Int_Tables_number       1
_space_group_crystal_system       monoclinic
_cell_length_a                    10.942209
_cell_length_b                    19.281627
_cell_length_c                    18.757243
_cell_angle_alpha                 90.0
_cell_angle_beta                  90.0
_cell_angle_gamma                 90.187387
_cell_volume                      3957.44934829

loop_
_atom_site_label
_atom_site_type_symbol
_atom_type_description
_atom_site_fract_x
_atom_site_fract_y
_atom_site_fract_z
_atom_type_partial_charge
C1    C     C_R   0.317873 0.965570 0.645425 0.529095
C2    C     C_R   0.317873 0.965570 0.854575 0.529095
C3    C     C_R   0.316203 0.061062 0.361960 0.537713
C4    C     C_R   0.316204 0.061062 0.138040 0.537713
C5    C     C_R   0.817873 0.465570 0.645425 0.529095
C6    C     C_R   0.817873 0.465570 0.854575 0.529095
C7    C     C_R   0.816203 0.561062 0.361960 0.537713
C8    C     C_R   0.816203 0.561062 0.138040 0.537713
C9    C     C_3   0.215148 0.761849 0.449154 0.231420
C10   C     C_3   0.215148 0.761849 0.050846 0.231420
C11   C     C_3   0.200761 0.285000 0.538327 0.269709
C12   C     C_3   0.200761 0.285000 0.961673 0.269709
C13   C     C_3   0.715148 0.261849 0.449154 0.231420
C14   C     C_3   0.715148 0.261849 0.050846 0.231420
C15   C     C_3   0.700761 0.785000 0.538327 0.269709
C16   C     C_3   0.700761 0.785000 0.961673 0.269709
C17   C     C_3   0.084036 0.747849 0.426907 0.029705
C18   C     C_3   0.084036 0.747849 0.073093 0.029706
C19   C     C_3   0.085844 0.256307 0.574176 0.023449
C20   C     C_3   0.085844 0.256307 0.925824 0.023447
C21   C     C_3   0.584036 0.247849 0.426907 0.029705
C22   C     C_3   0.584036 0.247849 0.073093 0.029705
C23   C     C_3   0.585844 0.756307 0.574176 0.023447
C24   C     C_3   0.585844 0.756307 0.925824 0.023447
C25   C     C_R   0.319315 0.038737 0.435443 -0.036049
C26   C     C_R   0.319315 0.038737 0.064556 -0.036049
C27   C     C_R   0.316238 0.996668 0.576083 -0.020765
C28   C     C_R   0.316238 0.996668 0.923917 -0.020765
C29   C     C_R   0.819315 0.538737 0.435443 -0.036049
C30   C     C_R   0.819315 0.538737 0.064556 -0.036049
C31   C     C_R   0.816238 0.496668 0.576083 -0.020765
C32   C     C_R   0.816238 0.496668 0.923917 -0.020765
C33   C     C_R   0.546007 0.012953 0.438285 -0.061467
C34   C     C_R   0.546007 0.012954 0.061715 -0.061467
C35   C     C_R   0.535449 0.027489 0.584874 -0.088070
C36   C     C_R   0.535449 0.027489 0.915126 -0.088070
C37   C     C_R   0.046007 0.512953 0.438285 -0.061467
C38   C     C_R   0.046007 0.512953 0.061715 -0.061467
C39   C     C_R   0.035449 0.527489 0.584874 -0.088070
C40   C     C_R   0.035449 0.527489 0.915126 -0.088070
C41   C     C_R   0.652141 0.009799 0.478773 -0.054715
C42   C     C_R   0.652141 0.009799 0.021227 -0.054715
C43   C     C_R   0.647695 0.020445 0.551783 -0.111351
C44   C     C_R   0.647695 0.020445 0.948217 -0.111351
C45   C     C_R   0.152140 0.509799 0.478773 -0.054716
C46   C     C_R   0.152141 0.509799 0.021227 -0.054715
C47   C     C_R   0.147695 0.520445 0.551783 -0.111351
C48   C     C_R   0.147695 0.520445 0.948217 -0.111351
C49   C     C_R   0.426613 0.018422 0.545302 -0.016037
C50   C     C_R   0.426613 0.018422 0.954698 -0.016037
C51   C     C_R   0.430731 0.023311 0.471231 -0.022796
C52   C     C_R   0.430731 0.023311 0.028769 -0.022796
C53   C     C_R   0.926613 0.518422 0.545302 -0.016037
C54   C     C_R   0.926613 0.518422 0.954698 -0.016037
C55   C     C_R   0.930731 0.523311 0.471231 -0.022796
C56   C     C_R   0.930731 0.523311 0.028769 -0.022796
C57   C     C_R   0.204198 0.997665 0.536009 0.024471
C58   C     C_R   0.204198 0.997665 0.963991 0.024471
C59   C     C_R   0.205602 0.032929 0.472133 0.018793
C60   C     C_R   0.205602 0.032929 0.027867 0.018793
C61   C     C_R   0.704198 0.497665 0.536009 0.024471
C62   C     C_R   0.704198 0.497665 0.963991 0.024471
C63   C     C_R   0.705602 0.532929 0.472133 0.018793
C64   C     C_R   0.705602 0.532929 0.027867 0.018793
C65   C     C_R   0.089697 0.966049 0.555961 -0.037271
C66   C     C_R   0.089697 0.966049 0.944039 -0.037271
C67   C     C_R   0.091477 0.056558 0.445363 -0.050199
C68   C     C_R   0.091477 0.056558 0.054637 -0.050199
C69   C     C_R   0.589697 0.466049 0.555961 -0.037271
C70   C     C_R   0.589697 0.466049 0.944039 -0.037271
C71   C     C_R   0.591477 0.556558 0.445363 -0.050199
C72   C     C_R   0.591477 0.556558 0.054637 -0.050199
C73   C     C_R   0.980033 0.986414 0.526114 -0.046944
C74   C     C_R   0.980033 0.986413 0.973886 -0.046944
C75   C     C_R   0.981102 0.034933 0.472721 -0.071618
C76   C     C_R   0.981102 0.034933 0.027279 -0.071618
C77   C     C_R   0.480033 0.486413 0.526114 -0.046943
C78   C     C_R   0.480033 0.486413 0.973886 -0.046944
C79   C     C_R   0.481102 0.534933 0.472721 -0.071618
C80   C     C_R   0.481102 0.534933 0.027279 -0.071618
C81   C     C_R   0.186800 0.772031 0.636718 0.553263
C82   C     C_R   0.186800 0.772032 0.863282 0.553262
C83   C     C_R   0.181083 0.229420 0.364117 0.554701
C84   C     C_R   0.181082 0.229420 0.135883 0.554700
C85   C     C_R   0.686800 0.272031 0.636718 0.553263
C86   C     C_R   0.686800 0.272031 0.863282 0.553262
C87   C     C_R   0.681082 0.729420 0.364117 0.554700
C88   C     C_R   0.681082 0.729420 0.135883 0.554701
C89   C     C_R   0.544669 0.769878 0.645990 0.563170
C90   C     C_R   0.544669 0.769878 0.854010 0.563169
C91   C     C_R   0.541103 0.229658 0.355725 0.551104
C92   C     C_R   0.541103 0.229658 0.144274 0.551104
C93   C     C_R   0.044669 0.269878 0.645990 0.563170
C94   C     C_R   0.044669 0.269878 0.854010 0.563169
C95   C     C_R   0.041104 0.729658 0.355725 0.551104
C96   C     C_R   0.041104 0.729658 0.144274 0.551104
C97   C     C_3   0.040738 0.805327 0.476292 0.233963
C98   C     C_3   0.040738 0.805327 0.023708 0.233963
C99   C     C_3   0.107455 0.186560 0.540253 0.191552
C100  C     C_3   0.107455 0.186560 0.959747 0.191552
C101  C     C_3   0.540738 0.305327 0.476292 0.233963
C102  C     C_3   0.540738 0.305327 0.023708 0.233963
C103  C     C_3   0.607455 0.686560 0.540253 0.191552
C104  C     C_3   0.607455 0.686560 0.959747 0.191551
C105  C     C_3   0.173800 0.821354 0.498848 -0.146229
C106  C     C_3   0.173801 0.821354 0.001152 -0.146229
C107  C     C_3   0.225887 0.213444 0.504283 -0.149819
C108  C     C_3   0.225887 0.213444 0.995717 -0.149819
C109  C     C_3   0.673801 0.321354 0.498848 -0.146228
C110  C     C_3   0.673801 0.321354 0.001152 -0.146228
C111  C     C_3   0.725887 0.713444 0.504282 -0.149820
C112  C     C_3   0.725887 0.713444 0.995717 -0.149819
C113  C     C_3   0.158666 0.767080 0.559703 -0.035999
C114  C     C_3   0.158666 0.767080 0.940297 -0.035999
C115  C     C_3   0.145755 0.236149 0.439895 -0.029496
C116  C     C_3   0.145755 0.236149 0.060105 -0.029496
C117  C     C_3   0.658666 0.267080 0.559703 -0.035999
C118  C     C_3   0.658666 0.267080 0.940297 -0.035999
C119  C     C_3   0.645755 0.736148 0.439895 -0.029496
C120  C     C_3   0.645755 0.736148 0.060105 -0.029496
C121  C     C_3   0.025125 0.752684 0.537484 -0.094280
C122  C     C_3   0.025125 0.752684 0.962516 -0.094280
C123  C     C_3   0.028343 0.207714 0.475566 -0.065320
C124  C     C_3   0.028343 0.207714 0.024434 -0.065320
C125  C     C_3   0.525124 0.252684 0.537484 -0.094280
C126  C     C_3   0.525124 0.252684 0.962516 -0.094280
C127  C     C_3   0.528343 0.707714 0.475566 -0.065320
C128  C     C_3   0.528343 0.707714 0.024434 -0.065319
C129  C     C_3   0.070353 0.694236 0.487627 -0.181713
C130  C     C_3   0.070353 0.694236 0.012373 -0.181713
C131  C     C_3   0.007366 0.279585 0.510448 -0.117425
C132  C     C_3   0.007366 0.279585 0.989552 -0.117425
C133  C     C_3   0.570354 0.194236 0.487627 -0.181713
C134  C     C_3   0.570353 0.194236 0.012373 -0.181713
C135  C     C_3   0.507366 0.779585 0.510448 -0.117425
C136  C     C_3   0.507366 0.779585 0.989552 -0.117425
C137  C     C_3   0.202440 0.709330 0.509613 0.238942
C138  C     C_3   0.202440 0.709330 0.990387 0.238942
C139  C     C_3   0.123846 0.306701 0.474862 0.272265
C140  C     C_3   0.123846 0.306701 0.025138 0.272267
C141  C     C_3   0.702440 0.209330 0.509613 0.238942
C142  C     C_3   0.702440 0.209330 0.990387 0.238941
C143  C     C_3   0.623846 0.806701 0.474862 0.272267
C144  C     C_3   0.623846 0.806701 0.025138 0.272267
Cr1   Cr    Cr6+3 0.488160 0.884660 0.750000 1.002918
Cr2   Cr    Cr6+3 0.488160 0.115340 0.250000 0.994467
Cr3   Cr    Cr6+3 0.988160 0.384660 0.750000 1.002918
Cr4   Cr    Cr6+3 0.988160 0.615340 0.250000 0.994467
Cr5   Cr    Cr6+3 0.173480 0.883120 0.750000 1.022908
Cr6   Cr    Cr6+3 0.173480 0.116880 0.250000 0.990074
Cr7   Cr    Cr6+3 0.673480 0.383120 0.750000 1.022908
Cr8   Cr    Cr6+3 0.673480 0.616880 0.250000 0.990074
Cr9   Cr    Cr6+3 0.333410 0.727260 0.750000 1.044269
Cr10  Cr    Cr6+3 0.333410 0.272740 0.250000 1.070649
Cr11  Cr    Cr6+3 0.833410 0.227260 0.750000 1.044269
Cr12  Cr    Cr6+3 0.833410 0.772740 0.250000 1.070649
H1    H     H_    0.895531 0.963156 0.543682 0.144639
H2    H     H_    0.895531 0.963156 0.956318 0.144639
H3    H     H_    0.898292 0.055425 0.450314 0.124440
H4    H     H_    0.898292 0.055425 0.049686 0.124441
H5    H     H_    0.395531 0.463156 0.543682 0.144638
H6    H     H_    0.395531 0.463156 0.956318 0.144639
H7    H     H_    0.398292 0.555425 0.450314 0.124441
H8    H     H_    0.398292 0.555425 0.049686 0.124440
H9    H     H_    0.025738 0.643621 0.482505 0.132301
H10   H     H_    0.025738 0.643621 0.017495 0.132301
H11   H     H_    0.922604 0.310028 0.516492 0.144656
H12   H     H_    0.922604 0.310028 0.983508 0.144656
H13   H     H_    0.525738 0.143621 0.482505 0.132301
H14   H     H_    0.525738 0.143621 0.017495 0.132301
H15   H     H_    0.422604 0.810028 0.516492 0.144656
H16   H     H_    0.422604 0.810028 0.983508 0.144656
H17   H     H_    0.736215 0.996246 0.452894 0.149202
H18   H     H_    0.736215 0.996246 0.047106 0.149202
H19   H     H_    0.729991 0.020652 0.583525 0.105253
H20   H     H_    0.729991 0.020652 0.916475 0.105253
H21   H     H_    0.236215 0.496246 0.452894 0.149202
H22   H     H_    0.236215 0.496246 0.047106 0.149202
H23   H     H_    0.229991 0.520652 0.583525 0.105253
H24   H     H_    0.229991 0.520652 0.916475 0.105253
O1    O     O_R   0.575450 0.828820 0.667950 -0.519034
O2    O     O_R   0.575450 0.828820 0.832050 -0.519034
O3    O     O_R   0.575450 0.171180 0.332050 -0.537048
O4    O     O_R   0.575450 0.171180 0.167950 -0.537048
O5    O     O_R   0.075450 0.328820 0.667950 -0.519032
O6    O     O_R   0.075450 0.328820 0.832050 -0.519035
O7    O     O_R   0.075450 0.671180 0.332050 -0.537048
O8    O     O_R   0.075450 0.671180 0.167950 -0.537048
O9    O     O_R   0.416860 0.942890 0.674680 -0.512790
O10   O     O_R   0.416860 0.942890 0.825320 -0.512790
O11   O     O_R   0.416860 0.057110 0.325320 -0.505086
O12   O     O_R   0.416860 0.057110 0.174680 -0.505086
O13   O     O_R   0.916860 0.442890 0.674680 -0.512790
O14   O     O_R   0.916860 0.442890 0.825320 -0.512790
O15   O     O_R   0.916860 0.557110 0.325320 -0.505086
O16   O     O_R   0.916860 0.557110 0.174680 -0.505086
O17   O     O_R   0.213790 0.953680 0.668330 -0.540457
O18   O     O_R   0.213790 0.953680 0.831670 -0.540457
O19   O     O_R   0.213790 0.046320 0.331670 -0.519256
O20   O     O_R   0.213790 0.046320 0.168330 -0.519256
O21   O     O_R   0.713790 0.453680 0.668330 -0.540457
O22   O     O_R   0.713790 0.453680 0.831670 -0.540457
O23   O     O_R   0.713790 0.546320 0.331670 -0.519256
O24   O     O_R   0.713790 0.546320 0.168330 -0.519256
O25   O     O_R   0.121360 0.817890 0.672660 -0.499260
O26   O     O_R   0.121360 0.817890 0.827340 -0.499260
O27   O     O_R   0.121360 0.182110 0.327340 -0.542991
O28   O     O_R   0.121360 0.182110 0.172660 -0.542991
O29   O     O_R   0.621360 0.317890 0.672660 -0.499260
O30   O     O_R   0.621360 0.317890 0.827340 -0.499260
O31   O     O_R   0.621360 0.682110 0.327340 -0.542991
O32   O     O_R   0.621360 0.682110 0.172660 -0.542991
O33   O     O_R   0.206850 0.711370 0.665820 -0.522745
O34   O     O_R   0.206850 0.711370 0.834180 -0.522745
O35   O     O_R   0.206850 0.288630 0.334180 -0.445698
O36   O     O_R   0.206850 0.288630 0.165820 -0.445697
O37   O     O_R   0.706850 0.211370 0.665820 -0.522745
O38   O     O_R   0.706850 0.211370 0.834180 -0.522745
O39   O     O_R   0.706850 0.788630 0.334180 -0.445698
O40   O     O_R   0.706850 0.788630 0.165820 -0.445697
O41   O     O_R   0.457710 0.733190 0.672630 -0.485508
O42   O     O_R   0.457710 0.733190 0.827370 -0.485508
O43   O     O_R   0.457710 0.266810 0.327370 -0.496803
O44   O     O_R   0.457710 0.266810 0.172630 -0.496803
O45   O     O_R   0.957710 0.233190 0.672630 -0.485509
O46   O     O_R   0.957710 0.233190 0.827370 -0.485508
O47   O     O_R   0.957710 0.766810 0.327370 -0.496803
O48   O     O_R   0.957710 0.766810 0.172630 -0.496803
O49   O     O_3   0.331690 0.831680 0.750000 -0.315262
O50   O     O_3   0.331690 0.168320 0.250000 -0.337588
O51   O     O_3   0.831690 0.331680 0.750000 -0.315263
O52   O     O_3   0.831690 0.668320 0.250000 -0.337588
H25   H     H_    0.226872 0.869965 0.499399 0.112442
H26   H     H_    0.226872 0.869965 0.000601 0.112442
H27   H     H_    0.311705 0.183511 0.500544 0.088454
H28   H     H_    0.311705 0.183512 0.999456 0.088454
H29   H     H_    0.726872 0.369965 0.499399 0.112442
H30   H     H_    0.726872 0.369965 0.000601 0.112442
H31   H     H_    0.811705 0.683512 0.500544 0.088454
H32   H     H_    0.811705 0.683512 0.999456 0.088454
O53   O     O_3   0.952585 0.853794 0.456457 -0.636320
H33   H     H_    0.989591 0.880500 0.416742 0.330960
O54   O     O_3   0.952585 0.853794 0.043543 -0.636319
H34   H     H_    0.989591 0.880500 0.083258 0.330960
O55   O     O_3   0.094754 0.126707 0.581417 -0.666282
H35   H     H_    0.163324 0.127911 0.615959 0.320540
O56   O     O_3   0.094754 0.126707 0.918583 -0.666281
H36   H     H_    0.163324 0.127911 0.884041 0.320540
O57   O     O_3   0.452585 0.353794 0.456457 -0.636320
H37   H     H_    0.489590 0.380500 0.416742 0.330960
O58   O     O_3   0.452585 0.353795 0.043543 -0.636320
H38   H     H_    0.489591 0.380500 0.083258 0.330961
O59   O     O_3   0.594754 0.626707 0.581417 -0.666281
H39   H     H_    0.663324 0.627911 0.615959 0.320540
O60   O     O_3   0.594754 0.626707 0.918583 -0.666281
H40   H     H_    0.663324 0.627911 0.884041 0.320540
H41   H     H_    0.951209 0.746207 0.577143 0.190610
H42   H     H_    0.951208 0.746207 0.922856 0.190610
H43   H     H_    0.959664 0.177105 0.446176 0.191511
H44   H     H_    0.959664 0.177105 0.053824 0.191511
H45   H     H_    0.451209 0.246207 0.577143 0.190610
H46   H     H_    0.451208 0.246207 0.922856 0.190609
H47   H     H_    0.459664 0.677106 0.446176 0.191511
H48   H     H_    0.459664 0.677105 0.053824 0.191511
O61   O     O_3   0.289641 0.658759 0.524564 -0.711508
H49   H     H_    0.267021 0.638414 0.570924 0.356836
O62   O     O_3   0.289641 0.658759 0.975435 -0.711508
H50   H     H_    0.267021 0.638414 0.929076 0.356836
O63   O     O_3   0.133355 0.369914 0.439635 -0.669494
H51   H     H_    0.062162 0.371344 0.406959 0.343435
O64   O     O_3   0.133355 0.369914 0.060365 -0.669493
H52   H     H_    0.062162 0.371344 0.093041 0.343434
O65   O     O_3   0.789641 0.158759 0.524564 -0.711508
H53   H     H_    0.767021 0.138414 0.570924 0.356836
O66   O     O_3   0.789641 0.158759 0.975435 -0.711509
H54   H     H_    0.767021 0.138414 0.929076 0.356836
O67   O     O_3   0.633355 0.869914 0.439635 -0.669493
H55   H     H_    0.562162 0.871344 0.406959 0.343434
O68   O     O_3   0.633355 0.869914 0.060365 -0.669493
H56   H     H_    0.562162 0.871344 0.093041 0.343434
O69   O     O_3   0.310600 0.767767 0.399952 -0.706703
H57   H     H_    0.307306 0.724958 0.370756 0.339458
O70   O     O_3   0.310600 0.767767 0.100048 -0.706703
H58   H     H_    0.307306 0.724958 0.129244 0.339458
O71   O     O_3   0.285475 0.328058 0.572497 -0.665228
H59   H     H_    0.244444 0.373448 0.578236 0.349016
O72   O     O_3   0.285475 0.328058 0.927503 -0.665227
H60   H     H_    0.244442 0.373448 0.921762 0.349015
O73   O     O_3   0.810600 0.267767 0.399952 -0.706703
H61   H     H_    0.807306 0.224958 0.370756 0.339458
O74   O     O_3   0.810600 0.267767 0.100048 -0.706703
H62   H     H_    0.807306 0.224958 0.129244 0.339458
O75   O     O_3   0.785475 0.828058 0.572497 -0.665228
H63   H     H_    0.744443 0.873448 0.578238 0.349015
O76   O     O_3   0.785475 0.828058 0.927503 -0.665228
H64   H     H_    0.744443 0.873448 0.921762 0.349015
H65   H     H_    0.558207 0.000677 0.382906 0.168019
H66   H     H_    0.558207 0.000677 0.117094 0.168019
H67   H     H_    0.534888 0.036890 0.641693 0.137589
H68   H     H_    0.534888 0.036890 0.858307 0.137589
H69   H     H_    0.058207 0.500677 0.382906 0.168019
H70   H     H_    0.058207 0.500677 0.117094 0.168019
H71   H     H_    0.034888 0.536891 0.641693 0.137589
H72   H     H_    0.034888 0.536891 0.858307 0.137589
H73   H     H_    0.083392 0.093763 0.404205 0.152087
H74   H     H_    0.083392 0.093763 0.095795 0.152087
H75   H     H_    0.079950 0.922288 0.591002 0.178791
H76   H     H_    0.079950 0.922288 0.908998 0.178790
H77   H     H_    0.583392 0.593763 0.404205 0.152087
H78   H     H_    0.583392 0.593763 0.095795 0.152087
H79   H     H_    0.579950 0.422288 0.591002 0.178790
H80   H     H_    0.579950 0.422288 0.908998 0.178790

loop_
_geom_bond_atom_site_label_1
_geom_bond_atom_site_label_2
_ccdc_geom_bond_type
C6    C32   S    
Cr11  O46   S    
C7    C29   S    
C119  C143  S    
O74   H62   S    
C120  C144  S    
C75   H3    S    
C110  C118  S    
Cr9   O33   S    
C139  O63   S    
Cr1   O9    S    
Cr2   O3    S    
C16   C144  S    
C30   C64   A    
C12   O72   S    
C57   C59   A    
C58   C60   A    
O64   H52   S    
C143  O67   S    
C62   C70   A    
C61   C63   A    
C4    O12   A    
C7    O23   A    
C65   H75   S    
C43   H19   S    
C23   C103  S    
C49   C51   A    
C34   C42   A    
C50   C52   A    
C23   C89   S    
C71   H77   S    
C70   H80   S    
C97   C105  S    
Cr12  O48   S    
O55   H35   S    
C73   C75   A    
C42   C44   A    
C20   C132  S    
C21   C133  S    
C45   C47   A    
C46   C48   A    
C38   H70   S    
C115  C123  S    
C16   O76   S    
C109  C117  S    
C92   O44   A    
C27   C57   A    
C121  C129  S    
C112  C120  S    
C19   C99   S    
C29   C55   A    
C123  H43   S    
C30   C56   A    
C24   C90   S    
C108  H28   S    
C100  C124  S    
C89   O1    A    
C4    C26   S    
C104  C128  S    
C12   C20   S    
C13   C21   S    
Cr12  O40   S    
C85   C117  S    
Cr8   O31   S    
C63   C71   A    
C92   O4    A    
C113  C137  S    
C36   C44   A    
C33   C51   A    
C37   C45   A    
C130  C138  S    
Cr6   O19   S    
C6    O14   A    
C36   C50   A    
C39   C47   A    
C40   C48   A    
C20   C94   S    
C133  C141  S    
C2    O10   A    
C85   O29   A    
Cr5   O26   S    
Cr6   O50   S    
C28   C58   A    
Cr4   O8    S    
C98   C106  S    
C33   C41   A    
Cr9   O42   S    
C100  O56   S    
C10   C18   S    
C1    O9    A    
C95   O47   A    
C32   C62   A    
C93   O45   A    
C129  C137  S    
C126  C134  S    
C88   O32   A    
C10   C138  S    
C142  O66   S    
C14   C142  S    
Cr1   O10   S    
C69   C77   A    
C141  O65   S    
C71   C79   A    
O57   H37   S    
C74   C76   A    
C96   O48   A    
C68   H74   S    
C26   C52   A    
C5    O21   A    
O59   H39   S    
C78   C80   A    
C138  O62   S    
C9    C105  S    
C66   C74   A    
Cr1   O1    S    
C124  C132  S    
Cr11  O38   S    
C111  C119  S    
O53   H33   S    
C86   O38   A    
C83   O27   A    
Cr12  O52   S    
C97   C121  S    
C59   C67   A    
Cr7   O51   S    
C112  H32   S    
C35   C49   A    
C62   C64   A    
Cr8   O23   S    
Cr11  O37   S    
C103  C127  S    
C81   O33   A    
C24   C136  S    
C135  C143  S    
C131  H11   S    
C84   C116  S    
O67   H55   S    
Cr9   O49   S    
C66   H76   S    
C133  H13   S    
Cr3   O6    S    
C100  C108  S    
C9    O69   S    
C102  O58   S    
C83   C115  S    
C11   O71   S    
Cr10  O36   S    
C42   H18   S    
C104  C112  S    
C87   C119  S    
O75   H63   S    
C84   O28   A    
Cr4   O15   S    
C34   H66   S    
O73   H61   S    
C60   C68   A    
C99   O55   S    
C35   H67   S    
C15   C143  S    
C40   C54   A    
Cr2   O11   S    
C10   C106  S    
C67   C75   A    
C82   O26   A    
C67   H73   S    
C14   C110  S    
Cr1   O49   S    
Cr11  O45   S    
C106  H26   S    
C87   O31   A    
C101  O57   S    
C94   O6    A    
C102  C126  S    
O62   H50   S    
C110  H30   S    
C68   C76   A    
C140  O64   S    
Cr2   O4    S    
Cr5   O49   S    
C14   C22   S    
C33   H65   S    
C72   C80   A    
Cr4   O52   S    
C144  O68   S    
C114  C138  S    
C38   C46   A    
C131  C139  S    
C37   C55   A    
C4    O20   A    
C113  C121  S    
C134  H14   S    
C125  H45   S    
C14   O74   S    
C22   C92   S    
C25   C59   A    
C17   C97   S    
C27   C49   A    
C121  H41   S    
Cr8   O52   S    
C119  C127  S    
C29   C63   A    
Cr7   O30   S    
C91   O3    A    
C41   C43   A    
C31   C61   A    
O66   H54   S    
C48   H24   S    
C95   O7    A    
O58   H38   S    
C11   C19   S    
C104  O60   S    
C46   H22   S    
C99   C123  S    
C127  C135  S    
C128  C136  S    
C36   H68   S    
C101  C109  S    
O54   H34   S    
Cr3   O14   S    
C103  C111  S    
C32   C54   A    
Cr10  O43   S    
C11   C139  S    
C80   H8    S    
C41   H17   S    
C9    C137  S    
C15   O75   S    
C136  H16   S    
O68   H56   S    
C12   C140  S    
C17   C95   S    
C135  H15   S    
C88   C120  S    
Cr7   O29   S    
C19   C93   S    
Cr5   O18   S    
C77   C79   A    
Cr8   O32   S    
O63   H51   S    
C69   H79   S    
Cr6   O20   S    
Cr9   O34   S    
C77   H5    S    
C1    O17   A    
C74   H2    S    
C44   H20   S    
C3    C25   S    
Cr5   O25   S    
O76   H64   S    
C88   O40   A    
C10   O70   S    
C117  C141  S    
Cr9   O41   S    
O71   H59   S    
C134  C142  S    
C130  H10   S    
O72   H60   S    
C20   C100  S    
C8    O24   A    
C86   C118  S    
C98   O54   S    
Cr12  O47   S    
C22   C134  S    
Cr7   O21   S    
C103  O59   S    
C102  C110  S    
Cr7   O22   S    
C91   O43   A    
C16   C112  S    
C5    O13   A    
C21   C91   S    
C105  C113  S    
C116  C124  S    
C123  C131  S    
C13   C141  S    
C86   O30   A    
C57   C65   A    
C83   O35   A    
C120  C128  S    
C90   O42   A    
C132  C140  S    
C99   C107  S    
C34   C52   A    
C23   C135  S    
C8    C30   S    
C108  C116  S    
C136  C144  S    
C89   O41   A    
C122  H42   S    
C39   C53   A    
C127  H47   S    
C8    O16   A    
Cr12  O39   S    
Cr3   O51   S    
C128  H48   S    
C94   O46   A    
C97   O53   S    
C124  H44   S    
C81   C113  S    
Cr8   O24   S    
C93   O5    A    
C13   O73   S    
C73   H1    S    
C70   C78   A    
C18   C96   S    
C96   O8    A    
C72   H78   S    
Cr3   O5    S    
Cr4   O7    S    
C106  C114  S    
Cr6   O27   S    
C6    O22   A    
C37   H69   S    
C65   C73   A    
C126  H46   S    
C39   H71   S    
C40   H72   S    
C85   O37   A    
C47   H23   S    
C82   O34   A    
C137  O61   S    
Cr4   O16   S    
C90   O2    A    
C13   C109  S    
C87   O39   A    
O61   H49   S    
C45   H21   S    
C21   C101  S    
C15   C23   S    
C12   C108  S    
C16   C24   S    
Cr10  O50   S    
Cr2   O12   S    
C28   C50   A    
C58   C66   A    
C53   C55   A    
C19   C131  S    
C54   C56   A    
C17   C129  S    
C15   C111  S    
C82   C114  S    
O69   H57   S    
Cr1   O2    S    
C111  H31   S    
C24   C104  S    
C25   C51   A    
C3    O11   A    
C101  C125  S    
C125  C133  S    
O65   H53   S    
C38   C56   A    
C31   C53   A    
C3    O19   A    
C79   H7    S    
C107  C115  S    
C98   C122  S    
C9    C17   S    
C78   H6    S    
C11   C107  S    
O60   H40   S    
O70   H58   S    
C35   C43   A    
C81   O25   A    
Cr2   O50   S    
C61   C69   A    
C107  H27   S    
C76   H4    S    
Cr6   O28   S    
C2    O18   A    
C105  H25   S    
C132  H12   S    
C115  C139  S    
Cr10  O35   S    
C118  C142  S    
O56   H36   S    
C109  H29   S    
C18   C98   S    
C22   C102  S    
C26   C60   A    
Cr11  O51   S    
Cr3   O13   S    
C64   C72   A    
Cr10  O44   S    
C18   C130  S    
C114  C122  S    
C129  H9    S    
C1    C27   S    
C2    C28   S    
C118  C126  S    
C5    C31   S    
C117  C125  S    
C7    O15   A    
C122  C130  S    
C84   O36   A    
Cr5   O17   S    
C116  C140  S    
