data_str_m9_o7_o18_f0_sra.sym.94
_audit_creation_date              2012-12-11T17:36:25-0500
_audit_creation_method            fapswitch 2.2
_symmetry_space_group_name_H-M    P1
_symmetry_Int_Tables_number       1
_space_group_crystal_system       triclinic
_cell_length_a                    25.955103
_cell_length_b                    6.896451
_cell_length_c                    21.686632
_cell_angle_alpha                 89.928227
_cell_angle_beta                  95.952324
_cell_angle_gamma                 89.939315
_cell_volume                      3860.93108409

loop_
_atom_site_label
_atom_site_type_symbol
_atom_type_description
_atom_site_fract_x
_atom_site_fract_y
_atom_site_fract_z
_atom_type_partial_charge
O1    O     O_R   0.208650 0.594520 0.175450 -0.534883
O2    O     O_R   0.791350 0.405480 0.824550 -0.534720
O3    O     O_R   0.291350 0.094520 0.324550 -0.533715
O4    O     O_R   0.708650 0.905480 0.675450 -0.535589
O5    O     O_R   0.192980 0.260780 0.300160 -0.503906
O6    O     O_R   0.807020 0.739220 0.699840 -0.505755
O7    O     O_R   0.307020 0.760780 0.199840 -0.506986
O8    O     O_R   0.692980 0.239220 0.800160 -0.506657
C1    C     C_R   0.178483 0.432446 0.318019 0.771610
C2    C     C_R   0.821507 0.567547 0.681967 0.768934
C3    C     C_R   0.321541 0.932453 0.182008 0.766803
C4    C     C_R   0.678456 0.067545 0.817988 0.768685
O9    O     O_R   0.202550 0.264660 0.174420 -0.537147
O10   O     O_R   0.797450 0.735340 0.825580 -0.536816
O11   O     O_R   0.297450 0.764660 0.325580 -0.538301
O12   O     O_R   0.702550 0.235340 0.674420 -0.536698
O13   O     O_R   0.300990 0.096480 0.197920 -0.548254
O14   O     O_R   0.699010 0.903520 0.802080 -0.547574
O15   O     O_R   0.199010 0.596480 0.302080 -0.546964
O16   O     O_R   0.800990 0.403520 0.697920 -0.547722
C5    C     C_R   0.191218 0.433958 0.151158 0.781455
C6    C     C_R   0.808782 0.566042 0.848842 0.782435
C7    C     C_R   0.308917 0.933524 0.348783 0.789960
C8    C     C_R   0.691069 0.066430 0.651239 0.780410
O17   O     O_3   0.282290 0.427760 0.257860 -0.368525
O18   O     O_3   0.717710 0.572240 0.742140 -0.367725
O19   O     O_3   0.217710 0.927760 0.242140 -0.365639
O20   O     O_3   0.782290 0.072240 0.757860 -0.366259
V1    V     V_3+5 0.244010 0.152080 0.248540 1.566909
V2    V     V_3+5 0.755990 0.847920 0.751460 1.562302
V3    V     V_3+5 0.255990 0.652080 0.251460 1.564250
V4    V     V_3+5 0.744010 0.347920 0.748540 1.563717
C9    C     C_R   0.656406 0.057202 0.592666 -0.303277
C10   C     C_R   0.342906 0.941802 0.407948 -0.246725
C11   C     C_R   0.843151 0.554686 0.907561 -0.300716
C12   C     C_R   0.156849 0.445315 0.092439 -0.300583
C13   C     C_R   0.647688 0.064029 0.480030 0.407411
C14   C     C_R   0.350907 0.917845 0.520844 0.405764
C15   C     C_R   0.850511 0.521837 0.019700 0.409379
C16   C     C_R   0.149488 0.478167 0.980300 0.409248
C17   C     C_R   0.678770 0.060504 0.536590 0.320093
C18   C     C_R   0.319812 0.934614 0.463592 0.214737
C19   C     C_R   0.820389 0.552750 0.963379 0.320417
C20   C     C_R   0.179610 0.447254 0.036621 0.320485
C21   C     C_R   0.601582 0.044086 0.592143 0.275687
C22   C     C_R   0.397745 0.952234 0.409266 0.267058
C23   C     C_R   0.897928 0.538335 0.908405 0.275689
C24   C     C_R   0.102071 0.461665 0.091595 0.275712
C25   C     C_R   0.569713 0.027368 0.534315 -0.019979
C26   C     C_R   0.429094 0.967101 0.467366 -0.058422
C27   C     C_R   0.929573 0.522909 0.966422 -0.027967
C28   C     C_R   0.070426 0.477093 0.033578 -0.027972
C29   C     C_R   0.592826 0.064644 0.478838 -0.157970
C30   C     C_R   0.405714 0.925989 0.522468 -0.076533
C31   C     C_R   0.904640 0.488544 0.020795 -0.157325
C32   C     C_R   0.095359 0.511459 0.979205 -0.157214
C33   C     C_R   0.515131 0.984184 0.529564 0.055142
C34   C     C_R   0.483567 0.012361 0.472439 0.051707
C35   C     C_R   0.985299 0.530392 0.972059 0.053469
C36   C     C_R   0.014700 0.469610 0.027942 0.053429
C37   C     C_R   0.506835 0.096717 0.423193 -0.166052
C38   C     C_R   0.491705 0.903666 0.579205 -0.217164
C39   C     C_R   0.987538 0.391898 0.075018 -0.178150
C40   C     C_R   0.012461 0.608104 0.924983 -0.178259
C41   C     C_R   0.560723 0.114981 0.424551 0.369378
C42   C     C_R   0.437827 0.885490 0.577826 0.438242
C43   C     C_R   0.933595 0.408368 0.073501 0.368417
C44   C     C_R   0.066404 0.591635 0.926499 0.368051
H1    H     H_    0.483458 0.155861 0.383581 0.174968
H2    H     H_    0.514889 0.848141 0.619483 0.181214
H3    H     H_    0.007544 0.310906 0.112792 0.177599
H4    H     H_    0.992455 0.689096 0.887209 0.177508
C45   C     C_R   0.439757 0.806404 0.095881 0.266225
C46   C     C_R   0.560217 0.193580 0.904072 0.266937
C47   C     C_R   0.060253 0.306643 0.404109 0.264548
C48   C     C_R   0.939730 0.693161 0.595855 0.265220
C49   C     C_R   0.399881 0.788706 0.136136 0.307932
C50   C     C_R   0.600100 0.211275 0.863827 0.308519
C51   C     C_R   0.100133 0.288986 0.363860 0.308908
C52   C     C_R   0.899870 0.710848 0.636128 0.306655
C53   C     C_R   0.364220 0.942871 0.140416 -0.154098
C54   C     C_R   0.635768 0.057123 0.859566 -0.154661
C55   C     C_R   0.135829 0.442823 0.359646 -0.151187
C56   C     C_R   0.864137 0.557125 0.640313 -0.152369
C57   C     C_R   0.368841 0.109948 0.104145 -0.302157
C58   C     C_R   0.631143 0.890052 0.895837 -0.301767
C59   C     C_R   0.131273 0.609466 0.396022 -0.306731
C60   C     C_R   0.868631 0.390551 0.603881 -0.302420
H5    H     H_    0.341749 0.228317 0.106938 0.200793
H6    H     H_    0.658239 0.771690 0.893056 0.200750
H7    H     H_    0.158449 0.727448 0.393352 0.203264
H8    H     H_    0.841399 0.272697 0.606494 0.198927
C61   C     C_R   0.407380 0.125907 0.063214 0.405932
C62   C     C_R   0.592594 0.874090 0.936756 0.405647
C63   C     C_R   0.092695 0.625437 0.436907 0.401288
C64   C     C_R   0.907216 0.374499 0.563007 0.405418
C65   C     C_R   0.443015 0.974261 0.059243 -0.065976
C66   C     C_R   0.556955 0.025733 0.940715 -0.066173
C67   C     C_R   0.057005 0.474159 0.440785 -0.064520
C68   C     C_R   0.942941 0.525678 0.559154 -0.064897
C69   C     C_1   0.483237 0.992500 0.017389 0.240143
C70   C     C_1   0.516730 0.007502 0.982564 0.240077
C71   C     C_1   0.016738 0.492399 0.482580 0.237640
C72   C     C_1   0.983203 0.507388 0.517354 0.238396
O21   O     O_3   0.582213 0.197816 0.375019 -0.604214
H9    H     H_    0.554721 0.222826 0.340656 0.317143
O22   O     O_3   0.416379 0.816707 0.629419 -0.568978
H10   H     H_    0.443848 0.799183 0.664321 0.317908
O23   O     O_3   0.908242 0.330589 0.120853 -0.604226
H11   H     H_    0.933954 0.282162 0.154364 0.317745
O24   O     O_3   0.091757 0.669417 0.879148 -0.604914
H12   H     H_    0.066045 0.717844 0.845637 0.316977
O25   O     O_3   0.421861 0.929168 0.355650 -0.636810
H13   H     H_    0.396315 0.919175 0.318717 0.280467
O26   O     O_3   0.578024 0.068023 0.646100 -0.634979
H14   H     H_    0.603933 0.080368 0.682608 0.283623
O27   O     O_3   0.079278 0.485716 0.146076 -0.637080
H15   H     H_    0.104339 0.460677 0.182714 0.280666
O28   O     O_3   0.920721 0.514281 0.853925 -0.637241
H16   H     H_    0.895661 0.539320 0.817286 0.280776
Cl1   Cl    Cl    0.251226 0.942806 0.460552 -0.655273
Cl2   Cl    Cl    0.746896 0.063684 0.536223 -0.575412
Cl3   Cl    Cl    0.247249 0.416268 0.036411 -0.575203
Cl4   Cl    Cl    0.752751 0.583741 0.963588 -0.575727
O29   O     O_3   0.672342 0.060715 0.426667 -0.546004
H17   H     H_    0.651986 0.975918 0.396365 0.349762
O30   O     O_3   0.328965 0.900226 0.576112 -0.558642
H18   H     H_    0.292054 0.864212 0.568362 0.368194
O31   O     O_3   0.825848 0.529302 0.073014 -0.545078
H19   H     H_    0.849405 0.594935 0.105338 0.348150
O32   O     O_3   0.174151 0.470705 0.926986 -0.545293
H20   H     H_    0.150594 0.405071 0.894662 0.347597
Cl5   Cl    Cl    0.486977 0.622339 0.091865 -0.532204
Cl6   Cl    Cl    0.512993 0.377638 0.908072 -0.528629
Cl7   Cl    Cl    0.013016 0.122954 0.408069 -0.533600
Cl8   Cl    Cl    0.986980 0.876800 0.591877 -0.537800
O33   O     O_3   0.395430 0.626615 0.172863 -0.626176
H21   H     H_    0.419099 0.523199 0.161726 0.339114
O34   O     O_3   0.604552 0.373348 0.827093 -0.625547
H22   H     H_    0.580871 0.476751 0.838211 0.339602
O35   O     O_3   0.104557 0.127253 0.327081 -0.625740
H23   H     H_    0.080899 0.023897 0.338213 0.340522
O36   O     O_3   0.895495 0.872505 0.672956 -0.626614
H24   H     H_    0.919200 0.975771 0.661873 0.340138
O37   O     O_3   0.410830 0.288364 0.026512 -0.570058
H25   H     H_    0.383289 0.381577 0.034913 0.344780
O38   O     O_3   0.589139 0.711637 0.973457 -0.570530
H26   H     H_    0.616682 0.618424 0.965064 0.344426
O39   O     O_3   0.089257 0.787546 0.473650 -0.573142
H27   H     H_    0.116817 0.880574 0.465288 0.343204
O40   O     O_3   0.910625 0.212413 0.526246 -0.570638
H28   H     H_    0.883054 0.119431 0.534605 0.344564

loop_
_geom_bond_atom_site_label_1
_geom_bond_atom_site_label_2
_ccdc_geom_bond_type
O17   V3    S    
C67   C71   S    
C60   C64   A    
O1    C5    A    
C69   C70   T    
C59   H7    S    
O19   V1    S    
C9    C21   A    
O21   H9    S    
O3    C7    A    
O24   H12   S    
C10   C18   A    
C68   C72   S    
C42   O22   S    
C52   C56   A    
O15   V3    S    
C50   O34   S    
O37   H25   S    
C48   Cl8   S    
C25   C33   A    
C33   C38   A    
C46   C66   A    
C5    C12   S    
C3    C53   S    
O7    C3    A    
C6    C11   S    
C35   C40   A    
C26   C30   A    
C36   C39   A    
C40   C44   A    
O9    V1    S    
C49   O33   S    
C14   C18   A    
O4    C8    A    
C63   C67   A    
C62   C66   A    
O36   H24   S    
C64   C68   A    
O1    V3    S    
O13   V1    S    
C38   H2    S    
O2    V4    S    
O3    V1    S    
C21   O26   S    
C58   C62   A    
O38   H26   S    
C57   C61   A    
C43   O23   S    
C15   C31   A    
C60   H8    S    
C2    O16   A    
C16   C32   A    
C59   C63   A    
O2    C6    A    
O40   H28   S    
C61   O37   S    
C10   C22   A    
C49   C53   A    
C11   C19   A    
O23   H11   S    
C16   C20   A    
C13   O29   S    
C13   C29   A    
C7    C10   S    
C34   C37   A    
O11   C7    A    
C11   C23   A    
C35   C36   A    
O12   C8    A    
O10   V2    S    
C41   O21   S    
C1    O15   A    
C14   O30   S    
O5    V1    S    
O17   V1    S    
O34   H22   S    
C39   C43   A    
O7    V3    S    
C38   C42   A    
O19   V3    S    
C26   C34   A    
C56   C60   A    
C48   C68   A    
O20   V4    S    
C58   H6    S    
C57   H5    S    
O18   V4    S    
C15   C19   A    
C15   O31   S    
C27   C31   A    
C32   C44   A    
C64   O40   S    
C44   O24   S    
O8    V4    S    
C17   Cl2   S    
C45   C65   A    
O5    C1    A    
C50   C54   A    
C31   C43   A    
C14   C30   A    
C21   C25   A    
O8    C4    A    
C52   O36   S    
C65   C69   S    
C47   C67   A    
O9    C5    A    
C1    C55   S    
C63   O39   S    
O6    V2    S    
C16   O32   S    
C45   Cl5   S    
O18   V2    S    
O29   H17   S    
C12   C20   A    
C27   C35   A    
O22   H10   S    
O30   H18   S    
C4    C54   S    
C61   C65   A    
C29   C41   A    
C23   O28   S    
O25   H13   S    
O16   V4    S    
C37   H1    S    
C62   O38   S    
C3    O13   A    
C22   O25   S    
C48   C52   A    
C39   H3    S    
C55   C59   A    
O6    C2    A    
C23   C27   A    
O28   H16   S    
O11   V3    S    
C24   O27   S    
C30   C42   A    
O12   V4    S    
O33   H21   S    
C22   C26   A    
C20   Cl3   S    
O27   H15   S    
C8    C9    S    
C9    C17   A    
O10   C6    A    
O20   V2    S    
O31   H19   S    
C66   C70   S    
O39   H27   S    
C54   C58   A    
C33   C34   A    
C51   O35   S    
C25   C29   A    
C46   Cl6   S    
C2    C56   S    
C12   C24   A    
C47   Cl7   S    
C40   H4    S    
C13   C17   A    
O32   H20   S    
O4    V2    S    
O14   V2    S    
C51   C55   A    
C37   C41   A    
C24   C28   A    
C28   C36   A    
C46   C50   A    
C4    O14   A    
C71   C72   T    
C45   C49   A    
O26   H14   S    
O35   H23   S    
C47   C51   A    
C19   Cl4   S    
C53   C57   A    
C28   C32   A    
C18   Cl1   S    
