data_str_m2_o14_o18_f0_pcu.sym.179
_audit_creation_date              2012-12-10T17:19:55-0500
_audit_creation_method            fapswitch 2.2
_symmetry_space_group_name_H-M    P1
_symmetry_Int_Tables_number       1
_space_group_crystal_system       triclinic
_cell_length_a                    9.602386
_cell_length_b                    10.806196
_cell_length_c                    15.528497
_cell_angle_alpha                 86.495968
_cell_angle_beta                  73.850266
_cell_angle_gamma                 90.527276
_cell_volume                      1544.26233035

loop_
_atom_site_label
_atom_site_type_symbol
_atom_type_description
_atom_site_fract_x
_atom_site_fract_y
_atom_site_fract_z
_atom_type_partial_charge
C1    C     C_R   0.996586 0.262190 0.505840 0.785642
C2    C     C_R   0.666160 0.541561 0.901327 0.081187
C3    C     C_R   0.763190 0.591992 0.944813 0.174763
C4    C     C_R   0.515483 0.528066 0.947222 0.078785
C5    C     C_R   0.466798 0.552256 0.039683 0.088357
C6    C     C_R   0.566653 0.605441 0.079843 -0.229688
C7    C     C_R   0.711362 0.626078 0.032659 -0.231371
C8    C     C_R   0.411626 0.493859 0.903282 -0.262443
C9    C     C_R   0.266640 0.474406 0.949867 -0.198657
C10   C     C_R   0.219208 0.485383 0.042513 0.127907
C11   C     C_R   0.319503 0.523916 0.088474 0.024007
C12   C     C_R   0.917836 0.506038 0.671407 0.776854
C13   C     C_R   0.073168 0.456711 0.089862 0.386552
C14   C     C_R   0.028080 0.464182 0.183380 -0.308007
C15   C     C_R   0.270624 0.527531 0.182405 -0.265866
C16   C     C_R   0.071609 0.108836 0.658734 0.144830
C17   C     C_R   0.158256 0.042413 0.703760 -0.129895
C18   C     C_R   0.185841 0.918817 0.689181 -0.188235
C19   C     C_R   0.127886 0.860046 0.629511 -0.182632
C20   C     C_R   0.057007 0.928147 0.573977 0.080892
C21   C     C_R   0.039482 0.057675 0.583288 0.056481
C22   C     C_R   0.986433 0.127376 0.518483 -0.108896
C23   C     C_R   0.999318 0.737054 0.503772 0.769558
C24   C     C_R   0.928587 0.067203 0.458666 -0.188960
C25   C     C_R   0.930736 0.940012 0.457201 -0.209866
C26   C     C_R   0.997947 0.870287 0.511766 -0.080109
C27   C     C_R   0.700585 0.664940 0.378413 -0.161796
C28   C     C_R   0.657532 0.744972 0.316853 0.161374
C29   C     C_R   0.512478 0.744693 0.318257 -0.285155
C30   C     C_R   0.412391 0.665817 0.379114 -0.185880
C31   C     C_R   0.452985 0.581406 0.440426 0.217008
C32   C     C_R   0.602443 0.581153 0.440228 0.164534
C33   C     C_R   0.547522 0.422642 0.556858 -0.054568
C34   C     C_R   0.082085 0.499793 0.328009 0.809582
C35   C     C_R   0.399681 0.422614 0.556785 -0.063421
C36   C     C_R   0.870546 0.525460 0.767665 -0.043361
C37   C     C_R   0.126758 0.498135 0.229661 -0.085581
C38   C     C_R   0.911408 0.608616 0.899700 -0.128236
C39   C     C_R   0.964819 0.575900 0.811385 -0.206394
C40   C     C_R   0.723885 0.505099 0.813538 -0.253421
Cu1   Cu    Cu3+1 0.140660 0.499990 0.500010 0.920798
Cu2   Cu    Cu3+1 0.859340 0.500010 0.499990 0.928368
H1    H     H_    0.783741 0.668161 0.065389 0.156444
H2    H     H_    0.884539 0.119435 0.410872 0.154521
H3    H     H_    0.193471 0.083091 0.756480 0.136748
H4    H     H_    0.244220 0.866072 0.728804 0.144763
H5    H     H_    0.140495 0.761246 0.628596 0.173088
H6    H     H_    0.885254 0.895787 0.410175 0.145342
H7    H     H_    0.581044 0.359199 0.603463 0.131348
H8    H     H_    0.811953 0.670869 0.375093 0.208395
H9    H     H_    0.343785 0.548969 0.221095 0.163658
H10   H     H_    0.475324 0.807404 0.272642 0.148806
H11   H     H_    0.304386 0.675493 0.375161 0.207464
H12   H     H_    0.323007 0.359045 0.603244 0.126548
H13   H     H_    0.916548 0.440862 0.220186 0.158753
H14   H     H_    0.192023 0.447990 0.912699 0.195416
H15   H     H_    0.985707 0.648217 0.932518 0.143368
H16   H     H_    0.078506 0.593070 0.776702 0.142675
H17   H     H_    0.657207 0.459054 0.779179 0.148917
H18   H     H_    0.535624 0.636076 0.147040 0.155086
H19   H     H_    0.437988 0.484418 0.831929 0.143937
N1    N     N_R   0.648320 0.501210 0.499140 -0.192060
N2    N     N_R   0.352470 0.501290 0.499110 -0.194101
O1    O     O_R   0.118810 0.319640 0.500010 -0.565452
O2    O     O_R   0.881240 0.319660 0.500000 -0.577873
O3    O     O_R   0.055570 0.499980 0.629840 -0.602049
O4    O     O_R   0.818000 0.500010 0.629830 -0.580163
O5    O     O_R   0.118760 0.680340 0.500000 -0.609976
O6    O     O_R   0.881190 0.680360 0.499990 -0.590360
O7    O     O_R   0.182000 0.499990 0.370170 -0.592882
O8    O     O_R   0.944430 0.500020 0.370160 -0.597578
O9    O     O_3   0.977582 0.418636 0.044008 -0.757980
H20   H     H_    0.880301 0.402785 0.086984 0.327236
C41   C     C_3   0.995927 0.219526 0.704286 -0.414247
C42   C     C_3   0.904739 0.184084 0.800679 -0.822195
H21   H     H_    0.974522 0.157688 0.844684 0.253515
H22   H     H_    0.840507 0.264248 0.829007 0.253588
H23   H     H_    0.828488 0.105732 0.801535 0.256361
H24   H     H_    0.078396 0.291295 0.705642 0.211740
H25   H     H_    0.918494 0.258534 0.670011 0.196570
C43   C     C_3   0.763547 0.836038 0.252530 -0.405799
C44   C     C_3   0.906135 0.777436 0.204379 -0.854519
H26   H     H_    0.976422 0.764200 0.249978 0.236651
H27   H     H_    0.885100 0.686570 0.180457 0.258300
H28   H     H_    0.965660 0.839418 0.145757 0.247698
H29   H     H_    0.714273 0.876170 0.200549 0.206949
H30   H     H_    0.786930 0.914232 0.289890 0.198314

loop_
_geom_bond_atom_site_label_1
_geom_bond_atom_site_label_2
_ccdc_geom_bond_type
C8    C9    A    
C16   C21   A    
C34   C37   S    
Cu1   Cu2   S    
C23   O6    A    
C19   C20   A    
C4    C8    A    
C43   C44   S    
C16   C41   S    
C28   C29   A    
C17   H3    S    
C5    C11   A    
C3    C7    A    
C30   C31   A    
C19   H5    S    
C33   H7    S    
C18   C19   A    
C23   C26   S    
C15   C37   A    
C11   C15   A    
C3    C38   A    
C33   N1    A    
Cu2   O2    S    
C1    O2    A    
C7    H1    S    
C12   C36   S    
C9    C10   A    
Cu2   N1    S    
C43   H29   S    
C27   H8    S    
C8    H19   S    
C14   H13   S    
C28   C43   S    
C1    C22   S    
C40   H17   S    
C41   H25   S    
C21   C22   A    
C35   H12   S    
C18   H4    S    
C12   O4    A    
Cu1   O5    S    
C38   C39   A    
C30   H11   S    
C41   C42   S    
C31   N2    A    
C36   C40   A    
C24   C25   A    
C16   C17   A    
C25   C26   A    
C39   H16   S    
C12   O3    A    
Cu2   O6    S    
C23   O5    A    
C2    C4    A    
C42   H21   S    
C29   C30   A    
C6    H18   S    
C38   H15   S    
C31   C32   A    
C17   C18   A    
C9    H14   S    
C43   H30   S    
C42   H22   S    
C25   H6    S    
Cu1   O3    S    
C15   H9    S    
C41   H24   S    
Cu2   O4    S    
C24   H2    S    
C22   C24   A    
Cu1   N2    S    
C1    O1    A    
C34   O7    A    
C27   C32   A    
C36   C39   A    
O9    H20   S    
C10   C13   A    
C6    C7    A    
C13   O9    S    
C44   H28   S    
C44   H27   S    
C2    C3    A    
C32   N1    A    
C14   C37   A    
C5    C6    A    
C20   C26   A    
Cu2   O8    S    
C33   C35   A    
C42   H23   S    
C10   C11   A    
C2    C40   A    
C4    C5    A    
C20   C21   A    
C44   H26   S    
C27   C28   A    
C35   N2    A    
Cu1   O1    S    
C13   C14   A    
C34   O8    A    
Cu1   O7    S    
C29   H10   S    
