data_str_m2_o41_o41_f0_fof.sym.80
_audit_creation_date              2012-10-26T17:13:10-0400
_audit_creation_method            fapswitch 2.2
_symmetry_space_group_name_H-M    P1
_symmetry_Int_Tables_number       1
_space_group_crystal_system       triclinic
_cell_length_a                    16.868435
_cell_length_b                    16.745266
_cell_length_c                    16.860492
_cell_angle_alpha                 67.665078
_cell_angle_beta                  68.162717
_cell_angle_gamma                 68.007073
_cell_volume                      3935.50222747

loop_
_atom_site_label
_atom_site_type_symbol
_atom_type_description
_atom_site_fract_x
_atom_site_fract_y
_atom_site_fract_z
_atom_type_partial_charge
C1    C     C_R   0.301747 0.023201 0.430453 0.015636
C2    C     C_R   0.674748 0.059120 0.543362 0.025034
C3    C     C_R   0.000776 0.430762 0.312627 0.011039
C4    C     C_R   0.996720 0.567646 0.688960 0.019006
C5    C     C_R   0.441473 0.322880 0.967692 0.012342
C6    C     C_R   0.547273 0.677758 0.047766 0.026391
C7    C     C_R   0.544579 0.058140 0.674186 0.014875
C8    C     C_R   0.430677 0.023703 0.301047 0.014596
C9    C     C_R   0.686071 0.567478 0.001545 0.012690
C10   C     C_R   0.304260 0.434914 0.012128 0.017371
C11   C     C_R   0.041232 0.677979 0.548680 0.021568
C12   C     C_R   0.952475 0.322124 0.452796 0.023152
C13   C     C_R   0.436669 0.042560 0.435940 -0.038917
C14   C     C_R   0.534395 0.055902 0.533482 -0.041532
C15   C     C_R   0.988684 0.450185 0.454067 -0.041015
C16   C     C_R   0.004294 0.549810 0.548294 -0.040211
C17   C     C_R   0.446305 0.454448 0.996061 -0.040462
C18   C     C_R   0.543687 0.551590 0.010890 -0.040747
C19   C     C_R   0.029296 0.828036 0.564195 0.820489
C20   C     C_R   0.968335 0.171859 0.436597 0.802632
C21   C     C_R   0.829616 0.568148 0.019636 0.809849
C22   C     C_R   0.166014 0.429061 0.991461 0.829573
C23   C     C_R   0.564076 0.030628 0.827673 0.816122
C24   C     C_R   0.431705 0.983511 0.168992 0.806948
C25   C     C_R   0.432434 0.170282 0.979195 0.797179
C26   C     C_R   0.563524 0.827956 0.031435 0.817760
C27   C     C_R   0.979693 0.431833 0.170428 0.800602
C28   C     C_R   0.020352 0.567830 0.829579 0.816487
C29   C     C_R   0.169010 0.983623 0.431654 0.817167
C30   C     C_R   0.827831 0.031033 0.563654 0.796540
C31   C     C_R   0.390303 0.027714 0.389751 0.065304
C32   C     C_R   0.584974 0.057061 0.584063 0.066216
C33   C     C_R   0.979879 0.401373 0.406539 0.065681
C34   C     C_R   0.014659 0.598167 0.595319 0.067037
C35   C     C_R   0.397351 0.404068 0.991715 0.070649
C36   C     C_R   0.592411 0.598517 0.020831 0.068175
C37   C     C_R   0.261576 0.991123 0.390764 -0.142286
C38   C     C_R   0.727270 0.054217 0.595746 -0.156354
C39   C     C_R   0.975070 0.391793 0.266900 -0.148570
C40   C     C_R   0.025375 0.606261 0.733019 -0.146402
C41   C     C_R   0.390216 0.264808 0.980748 -0.137749
C42   C     C_R   0.597013 0.727926 0.050525 -0.164553
C43   C     C_R   0.596904 0.053100 0.726885 -0.142308
C44   C     C_R   0.390895 0.991180 0.261328 -0.141191
C45   C     C_R   0.732538 0.606750 0.026443 -0.131844
C46   C     C_R   0.256457 0.386314 0.002880 -0.160606
C47   C     C_R   0.046195 0.728166 0.597509 -0.140149
C48   C     C_R   0.949905 0.271398 0.403118 -0.155771
C49   C     C_R   0.451074 0.072682 0.705696 -0.229827
C50   C     C_R   0.509354 0.053249 0.256413 -0.229473
C51   C     C_R   0.065325 0.703127 0.454810 -0.229159
C52   C     C_R   0.926551 0.297365 0.546943 -0.238758
C53   C     C_R   0.728524 0.495616 0.961996 -0.238152
C54   C     C_R   0.261711 0.511641 0.044247 -0.225522
C55   C     C_R   0.257656 0.051876 0.509359 -0.226963
C56   C     C_R   0.706190 0.074257 0.449581 -0.229297
C57   C     C_R   0.535379 0.300557 0.937306 -0.247790
C58   C     C_R   0.453646 0.703783 0.072831 -0.224208
C59   C     C_R   0.041877 0.501578 0.268794 -0.232113
C60   C     C_R   0.954735 0.497011 0.733623 -0.227768
C61   C     C_R   0.311056 0.965567 0.311033 -0.007482
C62   C     C_R   0.682519 0.068273 0.681553 0.037761
C63   C     C_R   0.941310 0.315623 0.315762 0.022446
C64   C     C_R   0.060035 0.681800 0.682577 0.013665
C65   C     C_R   0.295720 0.295213 0.005798 0.003380
C66   C     C_R   0.683579 0.682609 0.060568 0.021182
C67   C     C_R   0.657125 0.070894 0.400389 0.102352
C68   C     C_R   0.304726 0.058962 0.558237 0.092446
C69   C     C_R   0.948183 0.446728 0.687458 0.100729
C70   C     C_R   0.044866 0.553347 0.315085 0.103647
C71   C     C_R   0.405655 0.657971 0.062598 0.105545
C72   C     C_R   0.583851 0.348440 0.944247 0.107160
C73   C     C_R   0.558253 0.060793 0.303275 0.093908
C74   C     C_R   0.401964 0.068989 0.656840 0.102173
C75   C     C_R   0.309575 0.562282 0.046608 0.100717
C76   C     C_R   0.680549 0.445869 0.957653 0.104754
C77   C     C_R   0.933814 0.346478 0.594033 0.105408
C78   C     C_R   0.056578 0.654764 0.408181 0.108849
C79   C     C_R   0.690923 0.082483 0.308191 -0.204674
C80   C     C_R   0.261733 0.075167 0.641917 -0.197818
C81   C     C_R   0.918451 0.369319 0.733324 -0.192747
C82   C     C_R   0.071380 0.632266 0.269132 -0.196412
C83   C     C_R   0.312999 0.688214 0.082156 -0.200533
C84   C     C_R   0.676648 0.318451 0.924756 -0.203074
C85   C     C_R   0.641589 0.078110 0.259890 -0.196327
C86   C     C_R   0.310104 0.079528 0.691116 -0.198540
C87   C     C_R   0.265632 0.641565 0.072409 -0.197436
C88   C     C_R   0.724337 0.366488 0.932084 -0.196299
C89   C     C_R   0.910424 0.320007 0.687287 -0.203210
C90   C     C_R   0.077433 0.682513 0.315080 -0.207595
C91   C     C_R   0.523141 0.051789 0.394629 0.030248
C92   C     C_R   0.444527 0.056867 0.571665 0.029287
C93   C     C_R   0.965626 0.422926 0.547417 0.027908
C94   C     C_R   0.026144 0.577607 0.455023 0.027360
C95   C     C_R   0.402299 0.533051 0.023949 0.027034
C96   C     C_R   0.587752 0.474305 0.981105 0.028610
C97   C     C_R   0.572199 0.057892 0.443285 0.028514
C98   C     C_R   0.395788 0.050806 0.522715 0.029993
C99   C     C_R   0.450693 0.581322 0.031676 0.026471
C100  C     C_R   0.539205 0.425626 0.974000 0.028198
C101  C     C_R   0.973278 0.472864 0.594346 0.027956
C102  C     C_R   0.019249 0.527321 0.408171 0.027841
Cu1   Cu    Cu3+1 0.995180 0.995180 0.424630 0.889888
Cu2   Cu    Cu3+1 0.004820 0.004820 0.575370 0.905769
Cu3   Cu    Cu3+1 0.995180 0.424630 0.995180 0.877376
Cu4   Cu    Cu3+1 0.004820 0.575370 0.004820 0.901918
Cu5   Cu    Cu3+1 0.424630 0.995180 0.995180 0.881490
Cu6   Cu    Cu3+1 0.575370 0.004820 0.004820 0.903030
H1    H     H_    0.275764 0.090535 0.756196 0.132797
H2    H     H_    0.669392 0.086490 0.188962 0.136876
H3    H     H_    0.096669 0.743765 0.277602 0.144334
H4    H     H_    0.887379 0.260416 0.724592 0.131907
H5    H     H_    0.795064 0.339455 0.921902 0.123634
H6    H     H_    0.194886 0.668514 0.082966 0.124425
H7    H     H_    0.191049 0.082767 0.670051 0.136239
H8    H     H_    0.755747 0.094253 0.273552 0.139729
H9    H     H_    0.712249 0.256304 0.906849 0.129420
H10   H     H_    0.277312 0.748548 0.103657 0.136836
H11   H     H_    0.083681 0.656891 0.197890 0.124359
H12   H     H_    0.904811 0.345122 0.804663 0.123943
O1    O     O_R   0.124540 0.978640 0.385460 -0.581855
O2    O     O_R   0.875460 0.021360 0.614540 -0.589318
O3    O     O_R   0.978640 0.385460 0.124540 -0.593854
O4    O     O_R   0.021360 0.614540 0.875460 -0.588373
O5    O     O_R   0.385460 0.124540 0.978640 -0.607266
O6    O     O_R   0.614540 0.875460 0.021360 -0.581940
O7    O     O_R   0.614540 0.021360 0.875460 -0.579839
O8    O     O_R   0.385460 0.978640 0.124540 -0.611713
O9    O     O_R   0.875460 0.614540 0.021360 -0.575765
O10   O     O_R   0.124540 0.385460 0.978640 -0.577367
O11   O     O_R   0.021360 0.875460 0.614540 -0.571450
O12   O     O_R   0.978640 0.124540 0.385460 -0.599028
O13   O     O_R   0.013780 0.867370 0.487190 -0.592691
O14   O     O_R   0.986220 0.132630 0.512810 -0.600336
O15   O     O_R   0.867370 0.487190 0.013780 -0.615980
O16   O     O_R   0.132630 0.512810 0.986220 -0.603202
O17   O     O_R   0.487190 0.013780 0.867370 -0.587134
O18   O     O_R   0.512810 0.986220 0.132630 -0.602861
O19   O     O_R   0.512810 0.132630 0.986220 -0.605210
O20   O     O_R   0.487190 0.867370 0.013780 -0.580325
O21   O     O_R   0.986220 0.512810 0.132630 -0.601798
O22   O     O_R   0.013780 0.487190 0.867370 -0.593082
O23   O     O_R   0.132630 0.986220 0.512810 -0.601763
O24   O     O_R   0.867370 0.013780 0.487190 -0.588459
C103  C     C_3   0.287382 0.897229 0.288604 -0.316878
C104  C     C_3   0.225245 0.938160 0.225585 -0.234081
C105  C     C_3   0.163006 0.881656 0.248005 -0.929757
H13   H     H_    0.201907 0.810520 0.253722 0.239011
H14   H     H_    0.110829 0.887190 0.310621 0.291969
H15   H     H_    0.129701 0.905357 0.194204 0.225514
H16   H     H_    0.186821 0.008486 0.225284 0.223938
H17   H     H_    0.263025 0.938809 0.156130 0.226884
H18   H     H_    0.349037 0.850651 0.259414 0.156914
H19   H     H_    0.257932 0.851751 0.351929 0.181142
C106  C     C_3   0.714294 0.123460 0.711772 -0.358353
C107  C     C_3   0.643551 0.212336 0.721125 -0.376178
C108  C     C_3   0.683794 0.280580 0.720419 -0.863679
H20   H     H_    0.723846 0.249925 0.769116 0.245794
H21   H     H_    0.727241 0.303806 0.653198 0.253625
H22   H     H_    0.630198 0.339589 0.737723 0.258083
H23   H     H_    0.612376 0.242065 0.664943 0.226641
H24   H     H_    0.590641 0.199863 0.783949 0.214481
H25   H     H_    0.734323 0.084583 0.774321 0.214536
H26   H     H_    0.773324 0.143150 0.661414 0.207246
C109  C     C_3   0.870602 0.301439 0.289772 -0.339537
C110  C     C_3   0.905338 0.231957 0.236961 -0.273587
C111  C     C_3   0.854228 0.257688 0.168701 -0.881173
H27   H     H_    0.782522 0.264281 0.202402 0.250476
H28   H     H_    0.862288 0.321953 0.118247 0.293354
H29   H     H_    0.879839 0.204734 0.134054 0.226664
H30   H     H_    0.977069 0.223028 0.203360 0.234717
H31   H     H_    0.896096 0.166089 0.282813 0.218279
H32   H     H_    0.818638 0.280254 0.350865 0.155613
H33   H     H_    0.834753 0.367338 0.252251 0.193336
C112  C     C_3   0.120570 0.706766 0.712985 -0.344470
C113  C     C_3   0.206095 0.721634 0.639705 -0.375383
C114  C     C_3   0.265771 0.743338 0.673589 -0.818860
H34   H     H_    0.230577 0.805592 0.695103 0.257988
H35   H     H_    0.285702 0.687138 0.730422 0.252487
H36   H     H_    0.326541 0.753894 0.619378 0.244205
H37   H     H_    0.243103 0.659965 0.617331 0.218131
H38   H     H_    0.191032 0.777895 0.581098 0.217889
H39   H     H_    0.083526 0.766764 0.737902 0.221964
H40   H     H_    0.144552 0.651419 0.767876 0.213802
C115  C     C_3   0.236022 0.230111 0.057798 -0.303399
C116  C     C_3   0.203648 0.201254 0.999956 -0.251449
C117  C     C_3   0.110303 0.188884 0.044575 -0.897109
H41   H     H_    0.107620 0.139583 0.111304 0.232684
H42   H     H_    0.060713 0.253280 0.051266 0.299355
H43   H     H_    0.092554 0.163148 0.003475 0.223347
H44   H     H_    0.206400 0.249628 0.932795 0.227225
H45   H     H_    0.245214 0.135126 0.989784 0.223485
H46   H     H_    0.269553 0.169617 0.103153 0.173405
H47   H     H_    0.177544 0.261396 0.105573 0.181968
C118  C     C_3   0.716527 0.709251 0.117652 -0.340490
C119  C     C_3   0.733413 0.632445 0.201505 -0.356837
C120  C     C_3   0.776108 0.656353 0.251896 -0.811344
H48   H     H_    0.841557 0.667725 0.209305 0.263670
H49   H     H_    0.732533 0.717727 0.272569 0.247273
H50   H     H_    0.786579 0.600205 0.312291 0.243327
H51   H     H_    0.669195 0.619099 0.246094 0.209218
H52   H     H_    0.777382 0.569256 0.185184 0.219080
H53   H     H_    0.775609 0.734631 0.077527 0.224190
H54   H     H_    0.665716 0.765241 0.143247 0.196398
H55   H     H_    0.413292 0.093299 0.765333 0.168255
H56   H     H_    0.533825 0.074121 0.185264 0.184960
H57   H     H_    0.096621 0.756646 0.416983 0.159681
H58   H     H_    0.896629 0.242438 0.584644 0.157831
H59   H     H_    0.798618 0.477490 0.931527 0.165445
H60   H     H_    0.191353 0.530427 0.073885 0.158644
H61   H     H_    0.186784 0.072554 0.534051 0.186088
H62   H     H_    0.766094 0.094796 0.411819 0.164313
H63   H     H_    0.572974 0.246734 0.907061 0.180207
H64   H     H_    0.416816 0.757442 0.104139 0.158469
H65   H     H_    0.074098 0.517300 0.198808 0.160581
H66   H     H_    0.924347 0.480384 0.804096 0.163608

loop_
_geom_bond_atom_site_label_1
_geom_bond_atom_site_label_2
_ccdc_geom_bond_type
C47   C64   A    
C68   C80   A    
Cu4   O9    S    
C83   C87   A    
C110  H31   S    
C109  C110  S    
C8    C50   A    
C18   C96   A    
C6    C58   A    
C11   C47   A    
C105  H13   S    
C79   C85   A    
C115  H47   S    
C12   C48   A    
Cu1   O24   S    
C103  C104  S    
C75   C95   A    
C111  H28   S    
C78   C90   A    
C113  H38   S    
C66   C118  S    
C81   H12   S    
C77   C89   A    
C108  H20   S    
Cu2   O14   S    
Cu4   O21   S    
C82   H11   S    
C83   H10   S    
C23   O7    A    
C107  C108  S    
C105  H14   S    
Cu5   O8    S    
C56   H62   S    
Cu2   O2    S    
C26   O20   A    
C12   C33   A    
C51   H57   S    
C58   C71   A    
C118  H53   S    
C3    C33   A    
C95   C99   A    
C109  H32   S    
C29   O23   A    
C53   H59   S    
C96   C100  A    
C1    C31   A    
C30   O24   A    
C62   C106  S    
Cu3   O3    S    
C2    C32   A    
C26   O6    A    
C74   C92   A    
C116  H44   S    
C120  H49   S    
C25   O5    A    
C87   H6    S    
C80   C86   A    
C16   C34   A    
C24   O8    A    
C30   O2    A    
C27   C39   S    
C84   H9    S    
C114  H35   S    
Cu2   O11   S    
C29   O1    A    
C10   C46   A    
C9    C36   A    
Cu5   Cu6   S    
C119  H51   S    
C14   C92   A    
C10   C35   A    
C17   C95   A    
C7    C43   A    
C4    C34   A    
Cu1   O12   S    
C76   C88   A    
C21   C45   S    
C1    C37   A    
Cu3   O15   S    
C103  H18   S    
Cu4   O16   S    
C73   C91   A    
C107  H24   S    
C110  H30   S    
C57   C72   A    
C79   H8    S    
C13   C91   A    
C90   H3    S    
C20   O12   A    
C10   C54   A    
C12   C52   A    
C23   O17   A    
C55   C68   A    
C111  H29   S    
C71   C83   A    
C19   O11   A    
C113  H37   S    
C7    C32   A    
C65   C115  S    
C43   C62   A    
C106  C107  S    
C21   O15   A    
C92   C98   A    
C117  H43   S    
C60   H66   S    
C4    C40   A    
C105  H15   S    
C67   C79   A    
C7    C49   A    
C46   C65   A    
C85   H2    S    
C50   C73   A    
C25   C41   S    
C111  H27   S    
C27   O3    A    
C48   C63   A    
C41   C65   A    
C118  H54   S    
C106  H25   S    
C109  H33   S    
C71   C99   A    
C55   H61   S    
C74   C86   A    
C104  H16   S    
C22   O16   A    
C45   C66   A    
Cu5   O17   S    
C120  H50   S    
C8    C44   A    
C2    C38   A    
C112  C113  S    
C89   H4    S    
C80   H7    S    
C63   C109  S    
C118  C119  S    
C114  H36   S    
C21   O9    A    
C4    C60   A    
C70   C102  A    
Cu2   O23   S    
C20   C48   S    
C91   C97   A    
C64   C112  S    
C73   C85   A    
C72   C84   A    
C69   C81   A    
C104  H17   S    
C103  H19   S    
C58   H64   S    
C75   C87   A    
C113  C114  S    
C22   C46   S    
C49   H55   S    
C107  H23   S    
C108  H22   S    
Cu5   O5    S    
C14   C32   A    
C110  C111  S    
C44   C61   A    
C53   C76   A    
C28   O22   A    
C18   C99   A    
C93   C101  A    
C52   C77   A    
Cu1   O1    S    
C50   H56   S    
Cu3   O22   S    
C26   C42   S    
C14   C97   A    
C112  H39   S    
C104  C105  S    
C72   C100  A    
C20   O14   A    
C5    C41   A    
Cu5   O20   S    
C25   O19   A    
C52   H58   S    
C8    C31   A    
C13   C31   A    
C11   C34   A    
C86   H1    S    
C84   C88   A    
C57   H63   S    
C119  C120  S    
C40   C64   A    
C17   C100  A    
C15   C93   A    
Cu6   O19   S    
C37   C61   A    
C28   O4    A    
Cu3   O10   S    
C69   C101  A    
C106  H26   S    
C19   O13   A    
C56   C67   A    
C39   C63   A    
Cu3   Cu4   S    
C16   C94   A    
C82   C90   A    
C5    C57   A    
C24   O18   A    
Cu1   O13   S    
C51   C78   A    
C81   C89   A    
C117  H41   S    
C2    C56   A    
C76   C96   A    
Cu6   O18   S    
C77   C93   A    
C115  C116  S    
C13   C98   A    
C18   C36   A    
C60   C69   A    
C78   C94   A    
C24   C44   S    
C9    C45   A    
C5    C35   A    
C61   C103  S    
C27   O21   A    
C6    C36   A    
C1    C55   A    
C59   H65   S    
Cu6   O7    S    
C116  H45   S    
C120  H48   S    
C70   C82   A    
C15   C102  A    
C68   C98   A    
C117  H42   S    
C11   C51   A    
C67   C97   A    
C59   C70   A    
C3    C39   A    
C54   C75   A    
C16   C101  A    
C54   H60   S    
C9    C53   A    
C94   C102  A    
C108  H21   S    
C114  H34   S    
C6    C42   A    
C19   C47   S    
C29   C37   S    
Cu1   Cu2   S    
C42   C66   A    
Cu4   O4    S    
C28   C40   S    
C49   C74   A    
C115  H46   S    
C17   C35   A    
C30   C38   S    
Cu6   O6    S    
C116  C117  S    
C23   C43   S    
C119  H52   S    
C15   C33   A    
C22   O10   A    
C88   H5    S    
C112  H40   S    
C38   C62   A    
C3    C59   A    
