data_str_m2_o14_o16_f0_pcu.sym.163
_audit_creation_date              2012-12-10T17:18:55-0500
_audit_creation_method            fapswitch 2.2
_symmetry_space_group_name_H-M    P1
_symmetry_Int_Tables_number       1
_space_group_crystal_system       triclinic
_cell_length_a                    9.578503
_cell_length_b                    10.834521
_cell_length_c                    13.509374
_cell_angle_alpha                 93.283567
_cell_angle_beta                  72.947218
_cell_angle_gamma                 89.746315
_cell_volume                      1337.8129685

loop_
_atom_site_label
_atom_site_type_symbol
_atom_type_description
_atom_site_fract_x
_atom_site_fract_y
_atom_site_fract_z
_atom_type_partial_charge
C1    C     C_R   0.496484 0.738607 0.510131 0.821572
C2    C     C_R   0.466788 0.575377 0.964248 0.082025
C3    C     C_R   0.475625 0.506208 0.870427 -0.035569
C4    C     C_R   0.559130 0.539060 0.023584 -0.043490
C5    C     C_R   0.688653 0.470375 0.972257 -0.146078
C6    C     C_R   0.697394 0.401118 0.879247 0.407254
C7    C     C_R   0.583651 0.412287 0.834619 -0.254892
C8    C     C_R   0.520326 0.556258 0.133387 0.243091
C9    C     C_R   0.771348 0.503941 0.124446 0.199450
C10   C     C_R   0.380611 0.535503 0.811869 -0.057461
C11   C     C_R   0.227970 0.880293 0.631413 -0.137377
C12   C     C_R   0.422172 0.503155 0.699772 0.769574
C13   C     C_R   0.098420 0.946420 0.678459 -0.164541
C14   C     C_R   0.094952 0.074248 0.676712 -0.143493
C15   C     C_R   0.220557 0.136778 0.627693 -0.130946
C16   C     C_R   0.353357 0.071510 0.578056 0.062625
C17   C     C_R   0.356351 0.940405 0.577871 0.065523
C18   C     C_R   0.491190 0.874666 0.533484 -0.248981
C19   C     C_R   0.622550 0.940373 0.523660 0.231176
C20   C     C_R   0.616438 0.069500 0.538847 0.242531
C21   C     C_R   0.486909 0.133334 0.541025 -0.262311
C22   C     C_R   0.913487 0.334968 0.361149 -0.188518
C23   C     C_R   0.494568 0.264497 0.514458 0.816363
C24   C     C_R   0.012596 0.251301 0.294238 0.394769
C25   C     C_R   0.155292 0.246112 0.299234 -0.340065
C26   C     C_R   0.199731 0.328141 0.366253 -0.194363
C27   C     C_R   0.102514 0.416323 0.433611 0.194287
C28   C     C_R   0.953605 0.418407 0.431983 0.103578
C29   C     C_R   0.897719 0.574374 0.567426 -0.050320
C30   C     C_R   0.045782 0.575009 0.566847 -0.050481
C31   C     C_R   0.578024 0.510406 0.300322 0.835003
C32   C     C_R   0.802499 0.469799 0.018852 0.446532
C33   C     C_R   0.623977 0.525175 0.185695 -0.292296
C34   C     C_R   0.270054 0.625591 0.851683 -0.204594
C35   C     C_R   0.268574 0.700216 0.939113 -0.258986
C36   C     C_R   0.373355 0.682082 0.991406 0.448467
Cu1   Cu    Cu3+1 0.359340 0.500010 0.500010 0.919114
Cu2   Cu    Cu3+1 0.640660 0.499990 0.499990 0.918680
H1    H     H_    0.228699 0.783749 0.645730 0.136875
H2    H     H_    0.001721 0.898654 0.719887 0.135218
H3    H     H_    0.995384 0.125515 0.716507 0.173525
H4    H     H_    0.213456 0.236297 0.637531 0.174475
H5    H     H_    0.818944 0.633796 0.623844 0.124227
H6    H     H_    0.805932 0.329932 0.354615 0.229752
H7    H     H_    0.234333 0.181217 0.248443 0.159734
H8    H     H_    0.313275 0.322089 0.357768 0.229396
H9    H     H_    0.077005 0.635085 0.622707 0.113599
H10   H     H_    0.196096 0.649116 0.808078 0.149626
H11   H     H_    0.191795 0.777717 0.961800 0.141181
H12   H     H_    0.583323 0.350028 0.769303 0.137113
N1    N     N_R   0.852480 0.498790 0.499000 -0.191106
N2    N     N_R   0.148360 0.498710 0.498970 -0.191403
O1    O     O_R   0.381190 0.680360 0.500010 -0.588640
O2    O     O_R   0.618760 0.680340 0.500000 -0.569616
O3    O     O_R   0.323240 0.499990 0.650990 -0.593826
O4    O     O_R   0.560820 0.499960 0.650980 -0.587944
O5    O     O_R   0.381240 0.319660 0.500000 -0.606240
O6    O     O_R   0.618810 0.319640 0.499990 -0.582136
O7    O     O_R   0.439180 0.500040 0.349020 -0.585060
O8    O     O_R   0.676760 0.500010 0.349010 -0.600050
N3    N     N_2   0.891330 0.533304 0.162519 -0.373753
H13   H     H_    0.902845 0.483460 0.221804 0.277372
C37   C     C_3   0.914152 0.664531 0.174004 -0.671889
H14   H     H_    0.008567 0.680841 0.204457 0.220450
H15   H     H_    0.815509 0.710887 0.228480 0.223037
H16   H     H_    0.937588 0.705700 0.097529 0.239645
N4    N     N_2   0.722694 0.130578 0.578726 -0.423770
H17   H     H_    0.690393 0.208335 0.627940 0.246991
C38   C     C_3   0.875848 0.119044 0.522015 -0.588150
H18   H     H_    0.932285 0.204982 0.534535 0.205884
H19   H     H_    0.890618 0.099968 0.438234 0.255855
H20   H     H_    0.926570 0.042829 0.551308 0.243832
O9    O     O_3   0.964930 0.173757 0.226763 -0.727480
H21   H     H_    0.047599 0.119364 0.185567 0.327460
O10   O     O_3   0.809591 0.315202 0.838585 -0.726534
H22   H     H_    0.800042 0.276930 0.772522 0.309101
O11   O     O_3   0.946163 0.442904 0.963205 -0.664491
H23   H     H_    0.961399 0.465821 0.890877 0.343029
N5    N     N_2   0.375460 0.596738 0.190117 -0.374995
H24   H     H_    0.360756 0.651948 0.257255 0.279641
C39   C     C_3   0.258608 0.514368 0.185520 -0.589907
H25   H     H_    0.166352 0.528975 0.257184 0.208147
H26   H     H_    0.297883 0.416691 0.174273 0.226962
H27   H     H_    0.215845 0.534340 0.120394 0.246071
O12   O     O_3   0.392292 0.771028 0.063602 -0.726032
H28   H     H_    0.318715 0.838717 0.072744 0.315754
N6    N     N_2   0.757626 0.878410 0.514414 -0.406508
H29   H     H_    0.762405 0.823115 0.572839 0.254863
C40   C     C_3   0.854598 0.847973 0.411189 -0.652462
H30   H     H_    0.863074 0.746302 0.395120 0.247999
H31   H     H_    0.965755 0.880837 0.406391 0.219949
H32   H     H_    0.816364 0.891632 0.350993 0.228374

loop_
_geom_bond_atom_site_label_1
_geom_bond_atom_site_label_2
_ccdc_geom_bond_type
C23   O6    A    
N6    H29   S    
C37   H15   S    
C16   C21   A    
O9    H21   S    
C20   N4    S    
C35   C36   A    
C4    C8    A    
C39   H25   S    
C6    O10   S    
O11   H23   S    
C1    C18   S    
Cu1   Cu2   S    
C9    N3    S    
C34   C35   A    
C3    C7    A    
C5    C6    A    
C28   N1    A    
C24   O9    S    
C15   C16   A    
C38   H19   S    
C18   C19   A    
C31   O7    A    
N3    C37   S    
C1    O1    A    
C13   H2    S    
C9    C32   A    
C32   O11   S    
Cu2   O6    S    
C22   H6    S    
C19   C20   A    
C16   C17   A    
C35   H11   S    
C8    N5    S    
C31   C33   S    
C40   H31   S    
C5    C32   A    
Cu1   O1    S    
C37   H16   S    
C22   C28   A    
C13   C14   A    
C29   H5    S    
C9    C33   A    
C38   H18   S    
C39   H26   S    
N4    H17   S    
C30   H9    S    
C24   C25   A    
C7    H12   S    
N5    C39   S    
Cu1   N2    S    
Cu2   N1    S    
C25   C26   A    
O12   H28   S    
N5    H24   S    
N4    C38   S    
C31   O8    A    
C38   H20   S    
C2    C4    A    
O10   H22   S    
C29   C30   A    
Cu2   O2    S    
C17   C18   A    
C26   C27   A    
C10   C34   A    
Cu1   O7    S    
C40   H32   S    
C11   H1    S    
C12   O4    A    
C10   C12   S    
C14   H3    S    
Cu2   O8    S    
C21   C23   S    
C22   C24   A    
C34   H10   S    
C25   H7    S    
C39   H27   S    
C27   N2    A    
C29   N1    A    
C2    C36   A    
C23   O5    A    
C30   N2    A    
C11   C17   A    
C15   H4    S    
C4    C5    A    
C6    C7    A    
C36   O12   S    
C19   N6    S    
N6    C40   S    
C2    C3    A    
C3    C10   A    
C11   C13   A    
C8    C33   A    
N3    H13   S    
C12   O3    A    
C26   H8    S    
C37   H14   S    
Cu1   O3    S    
Cu2   O4    S    
C20   C21   A    
C27   C28   A    
C14   C15   A    
C40   H30   S    
C1    O2    A    
Cu1   O5    S    
