data_str_m2_o10_o17_f0_pcu.sym.174
_audit_creation_date              2012-12-10T16:44:42-0500
_audit_creation_method            fapswitch 2.2
_symmetry_space_group_name_H-M    P1
_symmetry_Int_Tables_number       1
_space_group_crystal_system       triclinic
_cell_length_a                    14.948539
_cell_length_b                    8.667628
_cell_length_c                    7.511281
_cell_angle_alpha                 102.959658
_cell_angle_beta                  94.537797
_cell_angle_gamma                 93.310524
_cell_volume                      942.602837518

loop_
_atom_site_label
_atom_site_type_symbol
_atom_type_description
_atom_site_fract_x
_atom_site_fract_y
_atom_site_fract_z
_atom_type_partial_charge
C1    C     C_R   0.496212 0.199890 0.453404 0.861341
C2    C     C_R   0.502460 0.800071 0.546772 0.844510
C3    C     C_R   0.029725 0.222186 0.329212 0.281340
C4    C     C_R   0.970276 0.779612 0.668901 0.284404
C5    C     C_2   0.492611 0.031606 0.427950 -0.364611
C6    C     C_2   0.503744 0.968331 0.572897 -0.358714
C7    C     C_R   0.329263 0.499737 0.501760 0.774078
C8    C     C_R   0.670756 0.500927 0.498273 0.779677
C9    C     C_R   0.820693 0.639150 0.583070 -0.198688
C10   C     C_R   0.179246 0.362607 0.415149 -0.229755
C11   C     C_R   0.766989 0.502326 0.494403 -0.044286
C12   C     C_R   0.233029 0.498880 0.505264 -0.060373
C13   C     C_R   0.804759 0.366081 0.405629 -0.175591
C14   C     C_R   0.195312 0.635098 0.594382 -0.185274
C15   C     C_R   0.897915 0.364018 0.408791 0.070528
C16   C     C_R   0.102121 0.637458 0.590372 0.073318
C17   C     C_R   0.953089 0.501930 0.497911 0.018714
C18   C     C_R   0.046919 0.499707 0.500790 0.022776
C19   C     C_R   0.914343 0.641805 0.583991 0.056238
C20   C     C_R   0.085635 0.359953 0.414303 0.064586
C21   C     C_R   0.936477 0.225617 0.326233 -0.161704
C22   C     C_R   0.063544 0.775960 0.672569 -0.165268
Cu1   Cu    Cu3+1 0.510010 0.517380 0.684380 1.022793
Cu2   Cu    Cu3+1 0.489990 0.482620 0.315620 1.021033
H1    H     H_    0.788384 0.742337 0.649919 0.166749
H2    H     H_    0.211512 0.259609 0.347638 0.166009
H3    H     H_    0.761510 0.260980 0.338382 0.130550
H4    H     H_    0.238599 0.740003 0.662408 0.131345
H5    H     H_    0.894025 0.119305 0.260163 0.191111
H6    H     H_    0.105996 0.882207 0.738810 0.187554
H7    H     H_    0.481064 0.959461 0.288735 0.174932
H8    H     H_    0.514586 0.040433 0.712442 0.199657
N1    N     N_2   0.474890 0.456420 0.038520 0.127921
N2    N     N_2   0.525110 0.543580 0.961480 0.129492
O1    O     O_R   0.506510 0.286130 0.619770 -0.520076
O2    O     O_R   0.493490 0.713870 0.380230 -0.553648
O3    O     O_R   0.489600 0.256770 0.308360 -0.610907
O4    O     O_R   0.510400 0.743230 0.691640 -0.644614
O5    O     O_R   0.378710 0.514640 0.655720 -0.560758
O6    O     O_R   0.621290 0.485360 0.344280 -0.522564
O7    O     O_R   0.361800 0.485290 0.344300 -0.631923
O8    O     O_R   0.638200 0.514710 0.655700 -0.594147
Br1   Br    Br    0.076381 0.024487 0.219255 -0.532580
Br2   Br    Br    0.923655 0.977565 0.778041 -0.523474
O9    O     O_3   0.428370 0.334444 0.916501 -0.478502
C23   C     C_3   0.345299 0.301423 0.980149 0.182694
H9    H     H_    0.308455 0.410748 0.013602 0.160607
H10   H     H_    0.354559 0.246444 0.099234 0.170776
C24   C     C_3   0.287889 0.181644 0.829040 -0.834211
H11   H     H_    0.321886 0.069699 0.792600 0.239669
H12   H     H_    0.221497 0.155066 0.876812 0.234152
H13   H     H_    0.277045 0.230290 0.705046 0.256038
O10   O     O_3   0.595074 0.623289 0.076248 -0.465131
C25   C     C_3   0.616486 0.768187 0.029937 0.192239
H14   H     H_    0.555942 0.836513 0.025298 0.133184
H15   H     H_    0.647201 0.749277 0.898323 0.176285
C26   C     C_3   0.686105 0.866731 0.176401 -0.835122
H16   H     H_    0.748548 0.803703 0.181974 0.268179
H17   H     H_    0.702665 0.983098 0.143417 0.208414
H18   H     H_    0.659537 0.887468 0.312951 0.249023

loop_
_geom_bond_atom_site_label_1
_geom_bond_atom_site_label_2
_ccdc_geom_bond_type
C5    H7    S    
C6    H8    S    
Cu1   Cu2   S    
C22   H6    S    
Cu1   O4    S    
N1    O9    S    
C2    O4    A    
C15   C21   A    
Cu1   O1    S    
Cu2   N1    S    
C1    O3    A    
N1    N2    D    
C9    C11   A    
C24   H13   S    
C14   H4    S    
C10   H2    S    
C24   H12   S    
C7    O7    A    
Cu2   O3    S    
C12   C14   A    
C9    H1    S    
C3    C20   A    
C2    C6    S    
O10   C25   S    
Cu2   O7    S    
C11   C13   A    
C23   C24   S    
C3    Br1   S    
C26   H16   S    
Cu2   O2    S    
Cu1   O8    S    
C10   C12   A    
N2    O10   S    
C8    C11   S    
Cu1   O5    S    
Cu2   O6    S    
C8    O8    A    
C17   C18   A    
C14   C16   A    
C13   C15   A    
C5    C6    D    
C25   H15   S    
C7    C12   S    
C3    C21   A    
C26   H17   S    
C23   H10   S    
C1    C5    S    
C4    C22   A    
C1    O1    A    
C18   C20   A    
C16   C18   A    
C24   H11   S    
C23   H9    S    
C2    O2    A    
C15   C17   A    
C7    O5    A    
C25   H14   S    
C13   H3    S    
Cu1   N2    S    
C16   C22   A    
C8    O6    A    
C17   C19   A    
O9    C23   S    
C4    C19   A    
C21   H5    S    
C9    C19   A    
C10   C20   A    
C26   H18   S    
C25   C26   S    
C4    Br2   S    
