data_str_m2_o10_o29_f0_pcu.sym.161
_audit_creation_date              2013-03-05T15:42:03-0500
_audit_creation_method            fapswitch 2.2
_symmetry_space_group_name_H-M    P1
_symmetry_Int_Tables_number       1
_space_group_crystal_system       triclinic
_cell_length_a                    27.85036
_cell_length_b                    8.665551
_cell_length_c                    7.44125
_cell_angle_alpha                 101.434006
_cell_angle_beta                  93.789265
_cell_angle_gamma                 91.515682
_cell_volume                      1754.93558142

loop_
_atom_site_label
_atom_site_type_symbol
_atom_site_description
_atom_site_fract_x
_atom_site_fract_y
_atom_site_fract_z
_atom_type_partial_charge
O1    O     O_R   0.503500 0.286120 0.619780 -0.577100
O2    O     O_R   0.496500 0.713880 0.380220 -0.611341
O3    O     O_R   0.494410 0.256780 0.308360 -0.605546
O4    O     O_R   0.505590 0.743220 0.691640 -0.589893
C1    C     C_R   0.496626 0.201069 0.456513 0.842741
C2    C     C_R   0.503692 0.798851 0.542840 0.824032
O5    O     O_R   0.434810 0.514700 0.655690 -0.588786
O6    O     O_R   0.565190 0.485300 0.344310 -0.548325
O7    O     O_R   0.425720 0.485350 0.344280 -0.557342
O8    O     O_R   0.574280 0.514650 0.655720 -0.519233
C3    C     C_R   0.407679 0.496657 0.501830 0.915581
C4    C     C_R   0.592639 0.503945 0.497786 0.868183
Cu1   Cu    Cu3+1 0.505380 0.517380 0.684380 0.994343
Cu2   Cu    Cu3+1 0.494620 0.482620 0.315620 0.975586
C5    C     C_R   0.174463 0.351533 0.476958 0.692561
C6    C     C_R   0.824202 0.662297 0.499847 0.702336
O9    O     O_2   0.196897 0.217740 0.489670 -0.406199
O10   O     O_2   0.800679 0.797185 0.541870 -0.414581
N1    N     N_R   0.201318 0.489304 0.493001 -0.444196
N2    N     N_R   0.798133 0.522069 0.459842 -0.440829
C7    C     C_R   0.179231 0.630823 0.517655 0.614468
C8    C     C_R   0.819520 0.382964 0.400344 0.634121
C9    C     C_R   0.281721 0.591011 0.630609 -0.201723
C10   C     C_R   0.716533 0.471950 0.314610 -0.201992
C11   C     C_R   0.331456 0.603747 0.622452 0.351424
C12   C     C_R   0.666738 0.461055 0.323629 0.400012
C13   C     C_R   0.326874 0.377629 0.369177 0.246128
C14   C     C_R   0.676978 0.568006 0.653812 0.243074
C15   C     C_R   0.276408 0.384120 0.356725 0.400356
C16   C     C_R   0.727217 0.566343 0.644186 0.386661
C17   C     C_R   0.253320 0.486140 0.494342 0.101848
C18   C     C_R   0.746882 0.521188 0.473438 0.117597
C19   C     C_R   0.101014 0.496393 0.487248 -0.111652
C20   C     C_R   0.897681 0.520251 0.444963 -0.106864
C21   C     C_R   0.123655 0.350673 0.453513 -0.118388
C22   C     C_R   0.874962 0.665045 0.496632 -0.120837
C23   C     C_R   0.094698 0.210862 0.405697 0.428019
C24   C     C_R   0.903817 0.805823 0.535769 0.429601
C25   C     C_R   0.129523 0.636174 0.533215 -0.069290
C26   C     C_R   0.869314 0.380462 0.386346 -0.064789
C27   C     C_R   0.354801 0.489206 0.502138 -0.286269
C28   C     C_R   0.645986 0.512138 0.492489 -0.320234
C29   C     C_R   0.970669 0.368789 0.389508 0.003425
C30   C     C_R   0.028213 0.650333 0.532285 0.003710
C31   C     C_R   0.977182 0.655896 0.509621 0.018810
C32   C     C_R   0.021520 0.362218 0.416938 0.022096
C33   C     C_R   0.948721 0.514674 0.449971 0.042823
C34   C     C_R   0.050024 0.503261 0.476824 0.043383
C35   C     C_R   0.940367 0.238058 0.296456 0.334684
C36   C     C_R   0.058938 0.782973 0.617428 0.333657
C37   C     C_R   0.890762 0.242685 0.305836 -0.061353
C38   C     C_R   0.108420 0.777089 0.604008 -0.056160
O11   O     O_2   0.792634 0.247025 0.356389 -0.493113
O12   O     O_2   0.205058 0.766468 0.526322 -0.480383
C39   C     C_R   0.044796 0.218008 0.398089 -0.118380
C40   C     C_R   0.953552 0.799301 0.530856 -0.119338
H1    H     H_    0.731814 0.437125 0.183136 0.220538
H2    H     H_    0.265037 0.672368 0.735779 0.221509
H3    H     H_    0.868663 0.139352 0.240576 0.236376
H4    H     H_    0.130911 0.881287 0.662618 0.239006
H5    H     H_    0.024823 0.107654 0.383241 0.210199
H6    H     H_    0.973041 0.909346 0.537316 0.210948
C41   C     C_2   0.487715 0.036501 0.442588 0.127852
C42   C     C_2   0.514588 0.962213 0.551616 0.162226
N3    N     N_2   0.486510 0.456430 0.038510 -0.228072
N4    N     N_2   0.513490 0.543570 0.961490 -0.212168
H7    H     H_    0.462881 0.379401 0.949782 0.239433
H8    H     H_    0.537148 0.620467 0.050243 0.250688
Cl1   Cl    Cl    0.354532 0.229029 0.216693 -0.577164
Cl2   Cl    Cl    0.654844 0.646819 0.869472 -0.530088
Cl3   Cl    Cl    0.243122 0.273978 0.160066 -0.438941
Cl4   Cl    Cl    0.765856 0.616167 0.847269 -0.491707
Cl5   Cl    Cl    0.117925 0.023329 0.332204 -0.465961
Cl6   Cl    Cl    0.881099 0.996146 0.593671 -0.476285
O13   O     O_3   0.638101 0.400973 0.165367 -0.515102
C43   C     C_3   0.643283 0.236412 0.116087 0.069463
H9    H     H_    0.656335 0.180691 0.232580 0.133753
H10   H     H_    0.669149 0.212467 0.007590 0.185792
C44   C     C_3   0.594605 0.158755 0.041664 -0.680901
H11   H     H_    0.578675 0.218702 0.934632 0.308223
H12   H     H_    0.598543 0.031830 0.983663 0.235671
H13   H     H_    0.570075 0.168993 0.154040 0.219580
O14   O     O_3   0.356429 0.736232 0.721518 -0.601137
C45   C     C_3   0.354801 0.854158 0.614318 0.095081
H14   H     H_    0.316990 0.886911 0.586576 0.209121
H15   H     H_    0.371137 0.813801 0.481094 0.175162
C46   C     C_3   0.383049 0.001298 0.717321 -0.690897
H16   H     H_    0.421285 0.974300 0.743662 0.213151
H17   H     H_    0.381440 0.094530 0.634168 0.237319
H18   H     H_    0.367396 0.045588 0.850104 0.287546
Cl7   Cl    Cl    0.959443 0.079370 0.132071 -0.508632
Cl8   Cl    Cl    0.041075 0.947091 0.777101 -0.513980
O15   O     O_3   0.446098 0.965655 0.345626 -0.600243
C47   C     C_3   0.453508 0.931107 0.156469 0.078994
H19   H     H_    0.491023 0.896025 0.127930 0.126276
H20   H     H_    0.445247 0.034576 0.094090 0.196776
C48   C     C_3   0.419577 0.794828 0.065007 -0.624147
H21   H     H_    0.381865 0.833260 0.065893 0.280664
H22   H     H_    0.429570 0.753129 0.922731 0.252442
H23   H     H_    0.422557 0.695952 0.138597 0.260506
O16   O     O_3   0.557903 0.028677 0.639528 -0.610872
C49   C     C_3   0.595155 0.981745 0.522053 0.036518
H24   H     H_    0.587850 0.016206 0.386725 0.118257
H25   H     H_    0.599210 0.851917 0.499319 0.155960
C50   C     C_3   0.642768 0.061598 0.608091 -0.702590
H26   H     H_    0.654184 0.014923 0.731985 0.261662
H27   H     H_    0.670931 0.036434 0.508556 0.229475
H28   H     H_    0.639141 0.191166 0.646060 0.245594

loop_
_geom_bond_atom_site_label_1
_geom_bond_atom_site_label_2
_geom_bond_distance
_ccdc_geom_bond_type
C9    H2    1.082606 S    
N4    H8    1.029127 S    
C46   H16   1.109468 S    
O16   C49   1.416734 S    
C13   C15   1.405758 A    
C43   C44   1.517293 S    
O7    Cu2   1.944909 S    
N1    C17   1.448683 S    
C48   H21   1.110234 S    
O5    C3    1.309451 A    
C50   H27   1.110482 S    
O15   C47   1.409986 S    
O1    C1    1.289431 A    
C21   C23   1.408639 A    
C10   C12   1.394466 A    
N2    C18   1.437506 S    
C7    O12   1.349915 S    
C1    C41   1.423125 S    
C49   C50   1.520095 S    
C2    C42   1.427711 S    
O4    Cu1   1.946880 S    
C4    C28   1.489046 S    
C38   H4    1.084297 S    
C5    N1    1.372365 A    
C31   C40   1.407644 A    
C10   H1    1.083558 S    
C35   C37   1.389099 A    
C32   C39   1.409572 A    
C36   C38   1.389830 A    
C45   C46   1.520500 S    
C20   C22   1.416115 A    
C13   Cl1   1.768530 S    
C6    N2    1.368836 A    
C25   C38   1.392080 A    
Cu1   Cu2   2.696125 S    
O2    C2    1.285887 A    
C35   Cl7   1.768363 S    
C5    C21   1.413900 A    
C48   H22   1.105215 S    
C8    O11   1.350383 S    
Cu1   N4    2.026015 S    
C31   C33   1.417648 A    
C42   O16   1.387246 S    
C50   H28   1.111156 S    
C32   C34   1.417240 A    
C45   H14   1.114627 S    
O4    C2    1.290911 A    
C11   C27   1.402911 A    
C44   H12   1.110163 S    
C29   C35   1.426961 A    
C47   C48   1.512657 S    
N3    H7    1.029148 S    
C44   H11   1.109305 S    
C9    C17   1.403680 A    
C47   H20   1.110909 S    
O13   C43   1.413984 S    
C10   C18   1.393650 A    
C13   C27   1.413472 A    
O14   C45   1.415462 S    
C7    C25   1.398043 A    
O6    C4    1.311384 A    
C8    C26   1.397951 A    
C12   O13   1.380158 S    
C24   C40   1.390395 A    
C47   H19   1.117891 S    
C19   C25   1.401278 A    
C43   H9    1.118173 S    
C49   H25   1.113939 S    
O7    C3    1.292839 A    
O3    Cu2   1.946880 S    
O8    C4    1.299970 A    
C36   Cl8   1.768455 S    
N2    C8    1.365684 A    
C46   H17   1.110874 S    
C20   C26   1.405747 A    
C37   H3    1.084140 S    
C48   H23   1.106645 S    
C30   C31   1.423321 A    
C12   C28   1.413451 A    
C24   Cl6   1.765066 S    
C30   C36   1.429096 A    
C5    O9    1.348131 S    
C23   Cl5   1.763075 S    
O6    Cu2   1.961906 S    
C14   C28   1.425112 A    
N1    C7    1.371692 A    
C14   Cl2   1.772067 S    
C43   H10   1.110051 S    
O3    C1    1.286802 A    
O8    Cu1   1.944912 S    
C44   H13   1.105964 S    
C16   Cl4   1.769154 S    
C26   C37   1.393769 A    
C50   H26   1.109301 S    
C41   O15   1.384595 S    
C22   C24   1.412495 A    
C15   C17   1.414877 A    
C6    C22   1.415109 A    
C16   C18   1.404864 A    
C39   H5    1.076084 S    
C14   C16   1.406042 A    
C19   C21   1.411553 A    
Cu2   N3    2.026015 S    
C3    C27   1.472550 S    
C40   H6    1.075765 S    
C9    C11   1.392891 A    
C49   H24   1.113554 S    
O2    Cu2   1.964434 S    
C29   C32   1.421720 A    
C41   C42   1.336057 D    
C23   C39   1.390720 A    
O5    Cu1   1.961906 S    
O1    Cu1   1.964434 S    
C6    O10   1.347568 S    
N3    N4    1.289096 D    
C46   H18   1.108632 S    
C11   O14   1.378265 S    
C19   C34   1.420546 A    
C45   H15   1.114741 S    
C20   C33   1.421865 A    
C29   C33   1.423334 A    
C30   C34   1.424473 A    
C15   Cl3   1.769747 S    
