data_str_m9_o2_o17_f0_sra.sym.251
_audit_creation_date              2013-03-05T16:02:02-0500
_audit_creation_method            fapswitch 2.2
_symmetry_space_group_name_H-M    P1
_symmetry_Int_Tables_number       1
_space_group_crystal_system       triclinic
_cell_length_a                    6.984248
_cell_length_b                    17.973639
_cell_length_c                    19.206555
_cell_angle_alpha                 108.303553
_cell_angle_beta                  90.042105
_cell_angle_gamma                 90.695877
_cell_volume                      2288.86457213

loop_
_atom_site_label
_atom_site_type_symbol
_atom_site_description
_atom_site_fract_x
_atom_site_fract_y
_atom_site_fract_z
_atom_type_partial_charge
O1    O     O_R   0.494330 0.415720 0.413720 -0.559883
O2    O     O_R   0.819330 0.430070 0.560210 -0.614168
O3    O     O_R   0.994320 0.584280 0.586280 -0.581904
C1    C     C_R   0.650206 0.414285 0.581127 0.913687
O4    O     O_R   0.823730 0.406300 0.412670 -0.608463
O5    O     O_R   0.998760 0.560340 0.437690 -0.554290
C2    C     C_R   0.654951 0.389537 0.381505 1.055404
O6    O     O_R   0.489890 0.439660 0.562310 -0.608626
O7    O     O_3   0.662340 0.550560 0.508380 -0.244169
V1    V     V_3+5 0.935370 0.490620 0.498450 1.224518
O8    O     O_R   0.328750 0.569930 0.439790 -0.537236
C3    C     C_R   0.159656 0.581356 0.415559 1.110734
O9    O     O_R   0.324340 0.593700 0.587330 -0.628449
C4    C     C_R   0.156782 0.616908 0.614951 0.969532
V2    V     V_3+5 0.435940 0.509380 0.501550 1.247868
O10   O     O_3   0.159100 0.449440 0.491620 -0.298547
H1    H     H_    0.575761 0.837985 0.602364 0.161497
C5    C     C_R   0.959086 0.604764 0.744394 -0.173904
C6    C     C_R   0.859141 0.596865 0.804399 -0.115964
C7    C     C_R   0.845581 0.659976 0.868087 -0.114095
C8    C     C_R   0.931508 0.731519 0.872213 -0.172389
C9    C     C_R   0.029988 0.742298 0.811502 0.123980
C10   C     C_R   0.044294 0.677318 0.745881 0.115113
C11   C     C_R   0.119597 0.815196 0.816348 -0.299896
C12   C     C_R   0.230795 0.821736 0.756591 0.117934
C13   C     C_R   0.253953 0.755687 0.692533 0.087782
C14   C     C_R   0.151131 0.684390 0.685044 -0.301732
C15   C     C_R   0.319636 0.894004 0.759079 -0.158748
C16   C     C_R   0.444612 0.899187 0.704539 -0.162703
C17   C     C_R   0.478037 0.833764 0.644744 -0.008730
C18   C     C_R   0.379703 0.763752 0.637316 -0.042110
H2    H     H_    0.972779 0.552331 0.698029 0.119687
H3    H     H_    0.795145 0.540900 0.801912 0.121973
H4    H     H_    0.770876 0.653127 0.915117 0.122183
H5    H     H_    0.922407 0.777298 0.924261 0.117780
H6    H     H_    0.294129 0.947746 0.802862 0.120795
H7    H     H_    0.514950 0.954422 0.708550 0.126951
H8    H     H_    0.404507 0.717257 0.587094 0.164557
C19   C     C_R   0.123277 0.596328 0.290490 -0.070873
C20   C     C_R   0.144303 0.630764 0.367023 -0.272841
C21   C     C_R   0.135638 0.712630 0.397738 0.289080
C22   C     C_R   0.113157 0.759570 0.351689 0.023017
C23   C     C_R   0.108516 0.725145 0.274608 0.024998
C24   C     C_R   0.111469 0.643036 0.243925 0.136176
C25   C     C_R   0.090647 0.840475 0.381271 -0.148578
C26   C     C_R   0.086867 0.887210 0.336325 -0.043996
C27   C     C_R   0.103434 0.855301 0.259367 -0.030145
C28   C     C_R   0.101238 0.773172 0.228323 0.000563
C29   C     C_R   0.096452 0.739043 0.151523 0.194473
C30   C     C_R   0.094537 0.656905 0.121583 -0.184600
C31   C     C_R   0.102717 0.609425 0.167269 -0.112983
C32   C     C_R   0.126331 0.903654 0.213802 0.628956
C33   C     C_R   0.111647 0.869620 0.135743 -0.340299
C34   C     C_R   0.093677 0.787411 0.106156 -0.348971
H9    H     H_    0.115834 0.533261 0.267017 0.143774
H10   H     H_    0.076136 0.868999 0.439619 0.184951
H11   H     H_    0.070599 0.948745 0.364093 0.198237
H12   H     H_    0.083570 0.760849 0.047160 0.133166
H13   H     H_    0.089642 0.629306 0.062687 0.132177
H14   H     H_    0.105090 0.546386 0.142488 0.128256
C35   C     C_R   0.460842 0.175602 0.859115 -0.126794
C36   C     C_R   0.620422 0.130805 0.865495 -0.147186
C37   C     C_R   0.781307 0.129887 0.821003 -0.263921
C38   C     C_R   0.783595 0.173634 0.771609 0.153168
C39   C     C_R   0.626641 0.221455 0.768776 0.025266
C40   C     C_R   0.465568 0.222900 0.813267 0.122900
C41   C     C_R   0.940092 0.170703 0.725047 -0.212857
C42   C     C_R   0.943326 0.216156 0.677620 -0.204341
C43   C     C_R   0.790688 0.265836 0.676167 0.143002
C44   C     C_R   0.630784 0.268052 0.721499 0.036947
C45   C     C_R   0.475335 0.317065 0.719919 0.146559
C46   C     C_R   0.317684 0.319165 0.765711 -0.222716
C47   C     C_R   0.312542 0.272300 0.811739 -0.157861
C48   C     C_R   0.795508 0.313503 0.630469 -0.260555
C49   C     C_R   0.641283 0.362848 0.628594 -0.138005
C50   C     C_R   0.480816 0.363556 0.673122 -0.250626
H15   H     H_    0.334288 0.175888 0.891809 0.176184
H16   H     H_    0.903273 0.094218 0.823906 0.137727
H17   H     H_    0.061040 0.133744 0.725755 0.139387
H18   H     H_    0.066736 0.213232 0.642742 0.146705
H19   H     H_    0.919392 0.311872 0.596069 0.149013
H20   H     H_    0.361587 0.401396 0.672422 0.136565
H21   H     H_    0.197506 0.356703 0.765591 0.142028
H22   H     H_    0.188597 0.274762 0.846267 0.151558
H23   H     H_    0.588030 0.168511 0.461669 0.157505
C51   C     C_R   0.725507 0.399905 0.231758 0.410621
C52   C     C_R   0.820882 0.396615 0.166834 -0.217288
C53   C     C_R   0.802121 0.329510 0.106343 -0.181035
C54   C     C_R   0.668368 0.272506 0.110338 0.400393
C55   C     C_R   0.650216 0.260580 0.179655 -0.017427
C56   C     C_R   0.670174 0.327969 0.243006 -0.060069
C57   C     C_R   0.624331 0.184243 0.186243 -0.266352
C58   C     C_R   0.621448 0.176516 0.259186 -0.117666
C59   C     C_R   0.607299 0.246299 0.321123 0.099820
C60   C     C_R   0.637835 0.321071 0.313589 -0.236902
C61   C     C_R   0.642300 0.104249 0.275946 0.585694
C62   C     C_R   0.642394 0.104953 0.349567 -0.019556
C63   C     C_R   0.597410 0.170752 0.406063 -0.228517
C64   C     C_R   0.578258 0.240602 0.392288 -0.174569
H24   H     H_    0.878811 0.449376 0.158783 0.157099
H25   H     H_    0.844510 0.333596 0.053423 0.171769
H26   H     H_    0.674978 0.053289 0.364533 0.193046
H27   H     H_    0.552552 0.290851 0.439737 0.121288
O11   O     O_R   0.775200 0.060470 0.937800 -0.611127
O12   O     O_R   0.441110 0.093720 0.087350 -0.512736
O13   O     O_R   0.266330 0.939630 0.062280 -0.556542
C65   C     C_R   0.610684 0.115647 0.116561 1.116493
O14   O     O_R   0.445750 0.069950 0.939820 -0.590325
O15   O     O_R   0.271000 0.915700 0.913700 -0.610906
C66   C     C_R   0.614286 0.083678 0.917010 0.955675
O16   O     O_R   0.770530 0.084400 0.086380 -0.552614
O17   O     O_3   0.602830 0.949510 0.991680 -0.282365
V3    V     V_3+5 0.329710 0.009370 0.001550 1.271935
O18   O     O_R   0.940990 0.906170 0.912570 -0.611056
C67   C     C_R   0.109397 0.883191 0.885289 0.893089
O19   O     O_R   0.936350 0.929940 0.060100 -0.575030
C68   C     C_R   0.104878 0.916952 0.083800 1.125431
V4    V     V_3+5 0.829160 0.990450 0.998310 1.235153
O20   O     O_3   0.105910 0.050480 0.008320 -0.246647
N1    N     N_R   0.153644 0.748262 0.475529 0.204386
O21   O     O_R   0.283961 0.802073 0.501819 -0.446113
O22   O     O_R   0.030483 0.731961 0.519579 -0.441511
S1    S     S_3+6 0.212758 0.000669 0.258120 -0.023205
O23   O     O_2   0.071362 0.048981 0.312099 -0.320837
O24   O     O_2   0.381917 0.989342 0.301071 -0.323554
O25   O     O_3   0.273127 0.050320 0.200399 -0.494014
H28   H     H_    0.245077 0.105923 0.226878 0.362355
S2    S     S_3+6 0.604570 0.487884 0.275446 -0.045795
O26   O     O_2   0.712905 0.536169 0.341918 -0.283771
O27   O     O_2   0.581441 0.535272 0.223969 -0.281615
O28   O     O_3   0.387189 0.465012 0.300471 -0.569554
H29   H     H_    0.334196 0.424465 0.256921 0.358776
S3    S     S_3+6 0.453683 0.280377 0.063761 -0.068525
O29   O     O_2   0.501238 0.301583 0.996014 -0.336524
O30   O     O_2   0.333672 0.207099 0.043274 -0.291005
O31   O     O_3   0.324162 0.353028 0.119600 -0.541969
H30   H     H_    0.233826 0.368478 0.086950 0.364303
S4    S     S_3+6 0.719072 0.015291 0.213380 -0.018227
O32   O     O_2   0.900601 0.036528 0.183550 -0.302864
O33   O     O_2   0.756152 0.956198 0.252280 -0.335265
O34   O     O_3   0.570026 0.972779 0.143804 -0.475272
H31   H     H_    0.599984 0.916210 0.128663 0.360865

loop_
_geom_bond_atom_site_label_1
_geom_bond_atom_site_label_2
_geom_bond_distance
_ccdc_geom_bond_type
C42   H18   1.083627 S    
C64   H27   1.079657 S    
C52   C53   1.391955 A    
C49   C50   1.408035 A    
C58   C59   1.436692 A    
C21   C22   1.410803 A    
C6    C7    1.386801 A    
C1    O6    1.306776 A    
S2    O26   1.497426 D    
O18   C67   1.305889 A    
S1    O23   1.503659 D    
C33   C34   1.410668 A    
C32   C33   1.433418 A    
C12   C15   1.419814 A    
O12   C65   1.312083 A    
C13   C14   1.428397 A    
C16   C17   1.383837 A    
O16   V4    2.025858 S    
C30   H13   1.083486 S    
O12   V3    2.004924 S    
C15   C16   1.388716 A    
C51   C56   1.425183 A    
O5    C3    1.295141 A    
C17   C18   1.393422 A    
C32   S1    1.780698 S    
C33   C68   1.501745 S    
S1    O24   1.492554 D    
C29   C34   1.411224 A    
C63   C64   1.369933 A    
O19   C68   1.311396 A    
C5    C6    1.391845 A    
V4    O20   2.180753 S    
C1    C49   1.489233 S    
H23   C63   1.083333 S    
V3    O20   1.724554 S    
O8    V2    1.995310 S    
C35   C40   1.403130 A    
C19   H9    1.080932 S    
C25   H10   1.081450 S    
C35   H15   1.083742 S    
C42   C43   1.404749 A    
S3    O31   1.680508 S    
C44   C45   1.412685 A    
O1    V2    2.019870 S    
C10   C14   1.424954 A    
C4    C14   1.503561 S    
O7    V1    2.180531 S    
C47   H22   1.083729 S    
C62   H26   1.081389 S    
O15   V3    2.011849 S    
C7    H4    1.082725 S    
C13   C18   1.418433 A    
O9    C4    1.303358 A    
H1    C17   1.082812 S    
C59   C60   1.409882 A    
O17   V3    2.180477 S    
N1    O22   1.300853 A    
C62   C63   1.370501 A    
O11   V4    2.001532 S    
C54   S3    1.775158 S    
C48   C49   1.411152 A    
O13   V3    2.008307 S    
C51   S2    1.765832 S    
C5    C10   1.418894 A    
C38   C41   1.403727 A    
C41   H17   1.083664 S    
C11   C12   1.420585 A    
C6    H3    1.082933 S    
C50   H20   1.084273 S    
C19   C20   1.411168 A    
O4    C2    1.309842 A    
C51   C52   1.399276 A    
O31   H30   0.990706 S    
S1    O25   1.678134 S    
C12   C13   1.427137 A    
C25   C26   1.381113 A    
C40   C47   1.403882 A    
C41   C42   1.401676 A    
C22   C25   1.396025 A    
O14   V3    2.009712 S    
C3    C20   1.480281 S    
C27   C32   1.421723 A    
O2    C1    1.304334 A    
C23   C24   1.407198 A    
C36   C37   1.409296 A    
O17   V4    1.723087 S    
C57   C65   1.510267 S    
C55   C57   1.426282 A    
C27   C28   1.407622 A    
C36   C66   1.491265 S    
C61   C62   1.410068 A    
C34   H12   1.084499 S    
C30   C31   1.404609 A    
C43   C48   1.406122 A    
C53   C54   1.398038 A    
O18   V4    2.019991 S    
O3    C4    1.309474 A    
S4    O33   1.502736 D    
C24   C31   1.405936 A    
C28   C29   1.408653 A    
C39   C40   1.408770 A    
O6    V2    2.000877 S    
O9    V2    2.020157 S    
O13   C68   1.305313 A    
S3    O29   1.502571 D    
C9    C11   1.421443 A    
C5    H2    1.079577 S    
C22   C23   1.414113 A    
C48   H19   1.084131 S    
O28   H29   0.988867 S    
O2    V1    2.009758 S    
S2    O28   1.677823 S    
N1    O21   1.300000 A    
O11   C66   1.308379 A    
C52   H24   1.081553 S    
C23   C28   1.421622 A    
C26   C27   1.412968 A    
C20   C21   1.404921 A    
O1    C2    1.301438 A    
C65   O16   1.307480 A    
C53   H25   1.083014 S    
C46   C47   1.399759 A    
S4    O34   1.670478 S    
S2    O27   1.503693 D    
O5    V1    2.008481 S    
O8    C3    1.310964 A    
O14   C66   1.303832 A    
C19   C24   1.408761 A    
C8    H5    1.079399 S    
C58   C61   1.441935 A    
C2    C60   1.489331 S    
C18   H8    1.075295 S    
C38   C39   1.412647 A    
O7    V2    1.724998 S    
O4    V1    2.005068 S    
C26   H11   1.073895 S    
O3    V1    2.011849 S    
V1    O10   1.724564 S    
O34   H31   0.990786 S    
C61   S4    1.761523 S    
C55   C56   1.427223 A    
C45   C50   1.406624 A    
C59   C64   1.416930 A    
O25   H28   0.990688 S    
V2    O10   2.180673 S    
C57   C58   1.450725 A    
O19   V4    1.995222 S    
C21   N1    1.433555 S    
C35   C36   1.410354 A    
C43   C44   1.409838 A    
C46   H21   1.083733 S    
S4    O32   1.485945 D    
O15   C67   1.302263 A    
C56   C60   1.417589 A    
C37   C38   1.409528 A    
C45   C46   1.403182 A    
C7    C8    1.391815 A    
C15   H6    1.079879 S    
C11   C67   1.495927 S    
C29   C30   1.405938 A    
C16   H7    1.083024 S    
S3    O30   1.496415 D    
C9    C10   1.428625 A    
C31   H14   1.082756 S    
C54   C55   1.418925 A    
C8    C9    1.417784 A    
C39   C44   1.415600 A    
C37   H16   1.084153 S    
