data_str_m12_o9_o24_f0_bcu.sym.21
_audit_creation_date              2012-12-11T17:47:25-0500
_audit_creation_method            fapswitch 2.2
_symmetry_space_group_name_H-M    P1
_symmetry_Int_Tables_number       1
_space_group_crystal_system       triclinic
_cell_length_a                    14.829864
_cell_length_b                    14.896375
_cell_length_c                    15.141606
_cell_angle_alpha                 110.519953
_cell_angle_beta                  108.602951
_cell_angle_gamma                 108.852414
_cell_volume                      2588.13362215

loop_
_atom_site_label
_atom_site_type_symbol
_atom_type_description
_atom_site_fract_x
_atom_site_fract_y
_atom_site_fract_z
_atom_type_partial_charge
Br1   Br    Br    0.001806 0.732089 0.368238 -0.674427
Br2   Br    Br    0.918846 0.272634 0.573919 -0.679324
C1    C     C_R   0.975408 0.249815 0.062640 -0.121156
C2    C     C_R   0.067511 0.141326 0.160202 -0.254761
C3    C     C_R   0.116030 0.044132 0.771745 -0.106695
C4    C     C_R   0.873899 0.973844 0.281557 -0.048282
C5    C     C_R   0.095479 0.051803 0.857207 -0.165155
C6    C     C_R   0.963858 0.020457 0.268918 -0.145993
C7    C     C_R   0.597193 0.306986 0.124419 -0.131613
C8    C     C_R   0.327486 0.690453 0.815048 -0.129237
C9    C     C_R   0.690881 0.385943 0.223868 -0.126661
C10   C     C_R   0.223486 0.619034 0.724712 -0.112113
C11   C     C_R   0.741371 0.354128 0.293633 0.108665
C12   C     C_R   0.089818 0.803345 0.003040 -0.141394
C13   C     C_R   0.160020 0.661394 0.682560 0.110674
C14   C     C_R   0.694027 0.242500 0.263821 -0.156963
C15   C     C_R   0.202737 0.775891 0.730798 -0.167214
C16   C     C_R   0.315185 0.769001 0.221120 -0.141674
C17   C     C_R   0.704909 0.195325 0.797602 -0.158446
C18   C     C_R   0.599548 0.163908 0.164678 -0.114629
C19   C     C_R   0.306494 0.846896 0.821536 -0.111278
C20   C     C_R   0.551794 0.195971 0.094615 -0.109918
C21   C     C_R   0.368782 0.804198 0.863745 -0.107724
C22   C     C_R   0.859281 0.439215 0.490852 -0.194335
C23   C     C_R   0.324429 0.807881 0.322105 0.034629
C24   C     C_R   0.035119 0.585543 0.493203 -0.192965
C25   C     C_R   0.960294 0.511512 0.585066 0.112522
C26   C     C_R   0.936581 0.509496 0.397475 0.106382
C27   C     C_R   0.049170 0.586576 0.587219 -0.000763
C28   C     C_R   0.846393 0.436099 0.394822 0.012173
C29   C     C_R   0.180715 0.119906 0.964556 0.113238
C30   C     C_R   0.952420 0.987038 0.165161 0.094637
C31   C     C_R   0.308149 0.167812 0.899106 -0.148231
C32   C     C_R   0.758897 0.864441 0.087314 -0.143851
C33   C     C_R   0.315798 0.123688 0.343057 -0.096962
C34   C     C_R   0.705387 0.129849 0.708756 0.014010
C35   C     C_R   0.788323 0.877117 0.730000 -0.123744
C36   C     C_R   0.363781 0.061251 0.362963 -0.134584
C37   C     C_R   0.717504 0.916098 0.696842 -0.129186
C38   C     C_R   0.359287 0.030713 0.439870 0.126145
C39   C     C_R   0.681368 0.906150 0.594281 0.120076
C40   C     C_R   0.213884 0.409485 0.907748 -0.137902
C41   C     C_R   0.775859 0.592479 0.025220 -0.110764
C42   C     C_R   0.302563 0.059516 0.493364 -0.135428
C43   C     C_R   0.718865 0.858332 0.526458 -0.151492
C44   C     C_R   0.252927 0.120224 0.471677 -0.113933
C45   C     C_R   0.307338 0.501730 0.942759 0.025506
C46   C     C_R   0.790398 0.820290 0.560331 -0.103289
C47   C     C_R   0.261063 0.153757 0.397809 -0.102366
C48   C     C_R   0.824255 0.828711 0.661561 -0.112046
C49   C     C_R   0.525047 0.064573 0.578975 -0.226565
C50   C     C_R   0.503606 0.861742 0.455636 -0.241278
C51   C     C_R   0.607122 0.039246 0.615311 0.074446
C52   C     C_R   0.422632 0.888914 0.419835 0.069097
C53   C     C_R   0.598032 0.937437 0.554680 0.019772
C54   C     C_R   0.433243 0.990970 0.480637 0.006024
C55   C     C_R   0.222520 0.102214 0.792746 -0.089095
C56   C     C_R   0.675095 0.500284 0.949891 0.005574
C57   C     C_R   0.771547 0.895648 0.190828 -0.101843
C58   C     C_R   0.045254 0.039321 0.149971 0.026414
C59   C     C_R   0.157722 0.117919 0.052080 0.021143
C60   C     C_R   0.287682 0.177236 0.985200 -0.183061
C61   C     C_R   0.848796 0.909953 0.074350 -0.153525
C62   C     C_R   0.092946 0.983438 0.101671 0.078889
C63   C     C_R   0.102325 0.168573 0.092747 0.067318
C64   C     C_R   0.994214 0.592737 0.297508 0.279798
C65   C     C_R   0.953702 0.410231 0.686026 0.314165
C66   C     C_3   0.462109 0.396895 0.872611 -0.158370
C67   C     C_R   0.940111 0.502631 0.302450 -0.019853
C68   C     C_3   0.510385 0.606265 0.987275 -0.180359
C69   C     C_3   0.408365 0.455741 0.827480 -0.142497
C70   C     C_3   0.562806 0.547377 0.031993 -0.136057
C71   C     C_3   0.399551 0.502928 0.929905 0.188443
C72   C     C_3   0.573373 0.500196 0.930384 0.197335
C73   C     C_3   0.451635 0.444424 0.974595 -0.161120
C74   C     C_3   0.522204 0.559334 0.885370 -0.170438
C75   C     C_R   0.304330 0.592649 0.002142 -0.128712
C76   C     C_R   0.685182 0.408040 0.934091 -0.126616
C77   C     C_R   0.910364 0.409620 0.211310 -0.188592
C78   C     C_R   0.972897 0.504411 0.679219 -0.042457
C79   C     C_R   0.032596 0.594370 0.781315 -0.172803
C80   C     C_R   0.222437 0.769277 0.313705 -0.096497
C81   C     C_R   0.794238 0.192162 0.705374 -0.058357
C82   C     C_R   0.072731 0.256889 0.976398 -0.131867
C83   C     C_R   0.001565 0.803965 0.097221 -0.124981
C84   C     C_R   0.055844 0.226624 0.048750 0.050851
C85   C     C_R   0.059214 0.867265 0.065966 0.052304
C86   C     C_R   0.164741 0.035987 0.072043 -0.263655
H1    H     H_    0.939817 0.236126 0.111698 0.099737
H2    H     H_    0.376072 0.657662 0.847319 0.116459
H3    H     H_    0.725309 0.471527 0.245468 0.130535
H4    H     H_    0.192197 0.531043 0.687988 0.128817
H5    H     H_    0.731821 0.215929 0.315916 0.151494
H6    H     H_    0.155009 0.809891 0.699026 0.135898
H7    H     H_    0.564214 0.077927 0.141484 0.106105
H8    H     H_    0.338513 0.934963 0.859089 0.112602
H9    H     H_    0.791635 0.383763 0.492125 0.149709
H10   H     H_    0.105198 0.639252 0.493377 0.149486
H11   H     H_    0.013365 0.005433 0.840688 0.129007
H12   H     H_    0.147906 0.829516 0.976767 0.096524
H13   H     H_    0.041665 0.082730 0.339779 0.119857
H14   H     H_    0.421908 0.399969 0.013497 0.120160
H15   H     H_    0.553655 0.605799 0.848673 0.113081
H16   H     H_    0.354780 0.227454 0.067258 0.125637
H17   H     H_    0.837814 0.885597 0.993710 0.111102
H18   H     H_    0.225867 0.203962 0.383699 0.113426
H19   H     H_    0.878984 0.798437 0.687327 0.112584
H20   H     H_    0.323781 0.151487 0.287506 0.126187
H21   H     H_    0.815034 0.884004 0.808626 0.106804
H22   H     H_    0.409925 0.042432 0.323391 0.110584
H23   H     H_    0.049671 0.992309 0.689345 0.135112
H24   H     H_    0.688526 0.951129 0.749871 0.109027
H25   H     H_    0.300684 0.038795 0.554799 0.113607
H26   H     H_    0.692119 0.849833 0.447118 0.113769
H27   H     H_    0.210995 0.144058 0.514499 0.115377
H28   H     H_    0.818836 0.783396 0.507708 0.140048
H29   H     H_    0.535984 0.145753 0.624543 0.138937
H30   H     H_    0.491673 0.780932 0.407436 0.134940
H31   H     H_    0.210087 0.000739 0.043732 0.131610
H32   H     H_    0.034424 0.185226 0.201035 0.133446
H33   H     H_    0.341951 0.418632 0.744223 0.116726
H34   H     H_    0.883315 0.999174 0.361717 0.137172
H35   H     H_    0.627408 0.584841 0.116342 0.124074
H36   H     H_    0.186941 0.325772 0.849871 0.124055
H37   H     H_    0.794613 0.677380 0.060212 0.124429
H38   H     H_    0.359057 0.677319 0.030731 0.088161
H39   H     H_    0.621177 0.323244 0.885223 0.092519
H40   H     H_    0.858165 0.325201 0.185641 0.132663
H41   H     H_    0.064032 0.679905 0.804310 0.130597
H42   H     H_    0.203319 0.789422 0.378562 0.151868
H43   H     H_    0.823356 0.159591 0.652042 0.159086
H44   H     H_    0.132901 0.258340 0.951701 0.127482
H45   H     H_    0.390485 0.210316 0.914294 0.103581
H46   H     H_    0.984103 0.831750 0.162510 0.143078
H47   H     H_    0.238909 0.095613 0.726651 0.106607
H48   H     H_    0.701934 0.860191 0.200830 0.100478
H49   H     H_    0.379362 0.789444 0.200370 0.099489
H50   H     H_    0.649458 0.170393 0.827252 0.102071
H51   H     H_    0.443016 0.311001 0.824100 0.100443
H52   H     H_    0.528137 0.691858 0.034457 0.099379
H53   H     H_    0.679475 0.805415 0.016994 0.112931
H54   H     H_    0.479828 0.134564 0.017231 0.104736
H55   H     H_    0.449149 0.859220 0.933957 0.098003
H56   H     H_    0.560757 0.332235 0.070396 0.108819
N1    N     N_R   0.947560 0.293820 0.002910 -0.042110
N2    N     N_R   0.789450 0.443190 0.997090 -0.039690
N3    N     N_R   0.945970 0.443180 0.152110 -0.056510
N4    N     N_R   0.054030 0.556820 0.847890 -0.054732
N5    N     N_R   0.151530 0.706170 0.208880 -0.036137
N6    N     N_R   0.848470 0.293830 0.791120 -0.046470
N7    N     N_R   0.004980 0.293810 0.946140 -0.043066
N8    N     N_R   0.995020 0.706190 0.053860 -0.042490
N9    N     N_R   0.052440 0.706180 0.997090 -0.041938
N10   N     N_R   0.208960 0.706170 0.152110 -0.041759
N11   N     N_R   0.791040 0.293830 0.847890 -0.042042
N12   N     N_R   0.154330 0.443160 0.946140 -0.042510
N13   N     N_R   0.845670 0.556840 0.053860 -0.031718
N14   N     N_R   0.002190 0.556820 0.208880 -0.065643
N15   N     N_R   0.997810 0.443180 0.791120 -0.067360
N16   N     N_R   0.210550 0.556810 0.002910 -0.038487
Ni1   Ni    Ni4+2 0.869690 0.369690 0.000000 0.209983
Ni2   Ni    Ni4+2 0.130310 0.630310 0.000000 0.211597
Ni3   Ni    Ni4+2 0.001390 0.369680 0.869810 0.237496
Ni4   Ni    Ni4+2 0.998610 0.630320 0.130190 0.258344

loop_
_geom_bond_atom_site_label_1
_geom_bond_atom_site_label_2
_ccdc_geom_bond_type
C48   H19   S    
C77   H40   S    
C32   H53   S    
C68   H52   S    
C25   C27   A    
C17   N11   A    
C29   C59   S    
C51   C53   A    
C26   C67   S    
C22   C25   A    
C41   H37   S    
C40   H36   S    
C63   C84   S    
C37   C39   A    
N2    N13   A    
N11   Ni1   S    
C66   C73   S    
N6    Ni3   S    
C44   C47   A    
C14   H5    S    
C72   C74   S    
C44   H27   S    
C82   C84   A    
C12   C85   A    
C17   C34   A    
C66   C69   S    
C69   C74   S    
C7    C20   A    
C64   C67   A    
C34   C81   A    
C66   C72   S    
C57   H48   S    
C49   C54   A    
C2    C63   A    
C39   C53   S    
C33   H20   S    
C41   C56   A    
C43   H26   S    
N12   Ni3   S    
C42   C44   A    
C31   C60   A    
C38   C54   S    
C33   C47   A    
C73   H14   S    
C34   C51   S    
C61   H17   S    
C6    H13   S    
C62   C85   S    
C35   H21   S    
C16   N10   A    
C50   C53   A    
N14   Ni4   S    
C83   H46   S    
C46   H28   S    
C81   N6    A    
C9    H3    S    
C74   H15   S    
C46   C48   A    
C1    C84   A    
C71   C73   S    
C29   C60   A    
C21   H55   S    
C16   C23   A    
C70   C73   S    
C76   H39   S    
C8    C10   A    
C7    H56   S    
C50   C52   A    
C13   C27   S    
C60   H16   S    
C83   C85   A    
N2    Ni1   S    
C52   C54   A    
C5    C29   A    
C22   H9    S    
C6    C30   A    
C11   C28   S    
N12   N16   A    
C33   C36   A    
C23   C52   S    
C45   C71   S    
C70   C72   S    
Br2   C65   S    
N3    Ni1   S    
C3    C5    A    
C56   C76   A    
C77   N3    A    
C3    H23   S    
C82   H44   S    
C15   C19   A    
C49   C51   A    
N4    N15   A    
N16   Ni2   S    
C16   H49   S    
C40   N12   A    
N5    N10   A    
C81   H43   S    
C59   C86   A    
C59   C63   A    
C79   H41   S    
C10   C13   A    
C14   C18   A    
C79   N4    A    
C2    C58   A    
C68   C71   S    
Br1   C64   S    
N5    Ni4   S    
N1    N7    A    
C86   H31   S    
C7    C9    A    
N13   Ni4   S    
C8    H2    S    
N8    Ni4   S    
C5    H11   S    
C24   H10   S    
C37   H24   S    
C18   H7    S    
C18   C20   A    
C42   H25   S    
C1    N1    A    
N7    Ni3   S    
N6    N11   A    
C19   C21   A    
C12   N9    A    
C68   C74   S    
C32   C57   A    
N15   Ni3   S    
C67   C77   A    
C36   H22   S    
C45   C75   A    
C64   N14   A    
C1    H1    S    
C56   C72   S    
C69   C71   S    
C43   C46   A    
C13   C15   A    
C80   H42   S    
C31   C55   A    
C4    C57   A    
N10   Ni2   S    
C2    H32   S    
C65   C78   A    
C30   C61   A    
C78   C79   A    
C41   N13   A    
C4    C6    A    
C20   H54   S    
C12   H12   S    
C47   H18   S    
C19   H8    S    
C8    C21   A    
C24   C26   A    
C3    C55   A    
N9    Ni2   S    
C58   C62   A    
N4    Ni2   S    
C26   C28   A    
C83   N8    A    
C70   H35   S    
C39   C43   A    
C36   C38   A    
C35   C48   A    
C9    C11   A    
C23   C80   A    
N1    Ni1   S    
C17   H50   S    
C69   H33   S    
C32   C61   A    
C49   H29   S    
C40   C45   A    
C22   C28   A    
C80   N5    A    
C76   N2    A    
C75   N16   A    
C82   N7    A    
C31   H45   S    
C38   C42   A    
C10   H4    S    
N8    N9    A    
C25   C78   S    
C24   C27   A    
C35   C37   A    
C11   C14   A    
C30   C58   S    
C4    H34   S    
C55   H47   S    
C66   H51   S    
C68   C70   S    
C15   H6    S    
N3    N14   A    
C62   C86   A    
C75   H38   S    
C65   N15   A    
C50   H30   S    
