data_str_m9_o13_o2_f0_sra.sym.80
_audit_creation_date              2012-12-11T14:58:01-0500
_audit_creation_method            fapswitch 2.2
_symmetry_space_group_name_H-M    P1
_symmetry_Int_Tables_number       1
_space_group_crystal_system       triclinic
_cell_length_a                    6.939801
_cell_length_b                    16.74796
_cell_length_c                    17.034457
_cell_angle_alpha                 100.473486
_cell_angle_beta                  90.418182
_cell_angle_gamma                 90.479489
_cell_volume                      1946.73963127

loop_
_atom_site_label
_atom_site_type_symbol
_atom_type_description
_atom_site_fract_x
_atom_site_fract_y
_atom_site_fract_z
_atom_type_partial_charge
O1    O     O_R   0.506180 0.438940 0.579430 -0.547706
O2    O     O_R   0.170520 0.406230 0.413590 -0.523408
O3    O     O_R   0.005180 0.561060 0.420570 -0.511575
C1    C     C_R   0.339006 0.383747 0.384678 0.817524
O4    O     O_R   0.176140 0.429310 0.578370 -0.512451
O5    O     O_R   0.010830 0.584300 0.586530 -0.531088
C2    C     C_R   0.343537 0.414286 0.605815 0.734496
O6    O     O_R   0.500520 0.415700 0.413470 -0.543451
O7    O     O_3   0.340830 0.550820 0.502480 -0.372083
V1    V     V_3+5 0.064040 0.490570 0.499540 1.545307
O8    O     O_R   0.681400 0.593770 0.586410 -0.549568
C3    C     C_R   0.851206 0.616568 0.614728 0.703033
O9    O     O_R   0.675790 0.570690 0.421630 -0.548558
C4    C     C_R   0.842780 0.586224 0.394647 0.754409
V2    V     V_3+5 0.564650 0.509430 0.500460 1.468825
O10   O     O_3   0.837730 0.449180 0.497520 -0.370447
C5    C     C_R   0.926961 0.861042 0.166879 -0.101037
C6    C     C_R   0.839240 0.638454 0.332602 -0.137794
C7    C     C_R   0.652031 0.692216 0.231729 0.586599
C8    C     C_R   0.672781 0.637845 0.284446 -0.240300
C9    C     C_R   0.987905 0.694053 0.325575 -0.192767
C10   C     C_R   0.967335 0.749827 0.273089 0.076346
C11   C     C_R   0.797662 0.749373 0.225973 0.023520
C12   C     C_R   0.777919 0.805459 0.173608 -0.197563
C13   C     C_R   0.093329 0.861297 0.215015 -0.130029
C14   C     C_R   0.113051 0.806710 0.267500 -0.077659
H1    H     H_    0.650439 0.804124 0.136236 0.172449
H2    H     H_    0.210692 0.903512 0.211370 0.119896
H3    H     H_    0.555956 0.595441 0.288320 0.193206
H4    H     H_    0.115891 0.695864 0.362772 0.135886
H5    H     H_    0.616217 0.646310 0.969153 0.148574
C15   C     C_R   0.052956 0.898983 0.728655 -0.147928
C16   C     C_R   0.118182 0.908788 0.653802 -0.124092
C17   C     C_R   0.100022 0.845523 0.588909 -0.121809
C18   C     C_R   0.016704 0.771945 0.598399 -0.134820
C19   C     C_R   0.951050 0.759780 0.673913 0.068948
C20   C     C_R   0.969412 0.824650 0.740405 0.069211
C21   C     C_R   0.864610 0.685117 0.683459 -0.182078
C22   C     C_R   0.796176 0.675340 0.759454 0.056174
C23   C     C_R   0.814552 0.740207 0.825950 0.065468
C24   C     C_R   0.900986 0.814875 0.816403 -0.181092
C25   C     C_R   0.712634 0.601005 0.771198 -0.090289
C26   C     C_R   0.647486 0.591182 0.846056 -0.096799
C27   C     C_R   0.665677 0.654440 0.910957 -0.115684
C28   C     C_R   0.748947 0.728030 0.901466 -0.127094
H6    H     H_    0.067798 0.950571 0.776808 0.108542
H7    H     H_    0.149529 0.853642 0.530718 0.107874
H8    H     H_    0.583743 0.533932 0.853817 0.132503
H9    H     H_    0.762718 0.774754 0.954187 0.108485
C29   C     C_R   0.455387 0.224300 0.406348 -0.136673
C30   C     C_R   0.521197 0.149294 0.419123 -0.114365
C31   C     C_R   0.552220 0.086881 0.354772 -0.123407
C32   C     C_R   0.517489 0.098949 0.277141 -0.154061
C33   C     C_R   0.451412 0.174549 0.262204 0.076284
C34   C     C_R   0.419744 0.238708 0.328154 0.056675
C35   C     C_R   0.414419 0.186312 0.183241 -0.151210
C36   C     C_R   0.346881 0.262674 0.170247 0.014197
C37   C     C_R   0.316471 0.327636 0.236025 -0.052032
C38   C     C_R   0.352103 0.315260 0.315442 -0.188525
C39   C     C_R   0.311336 0.275891 0.091724 -0.136890
C40   C     C_R   0.247788 0.350599 0.077749 -0.225574
C41   C     C_R   0.219446 0.414044 0.141193 -0.145227
C42   C     C_R   0.253498 0.403645 0.219462 0.582410
H10   H     H_    0.547619 0.139508 0.479363 0.110822
H11   H     H_    0.602953 0.028658 0.365033 0.113110
C43   C     C_R   0.424501 0.138779 0.832978 -0.068314
C44   C     C_R   0.340695 0.362660 0.668546 -0.186196
C45   C     C_R   0.161830 0.311472 0.772842 -0.271813
C46   C     C_R   0.180962 0.366073 0.720191 0.612906
C47   C     C_R   0.483853 0.304660 0.672917 -0.311457
C48   C     C_R   0.464377 0.249244 0.725861 0.156309
C49   C     C_R   0.301101 0.252161 0.775749 0.065435
C50   C     C_R   0.280989 0.196506 0.828437 -0.212541
C51   C     C_R   0.585321 0.136226 0.782432 -0.164619
C52   C     C_R   0.604665 0.190395 0.729384 -0.159864
H12   H     H_    0.157928 0.200051 0.867728 0.121116
H13   H     H_    0.698467 0.092458 0.784566 0.123261
H14   H     H_    0.036815 0.315362 0.811077 0.152043
H15   H     H_    0.730751 0.186806 0.691782 0.116675
O11   O     O_R   0.265840 0.084300 0.086750 -0.536176
O12   O     O_R   0.589750 0.070740 0.921690 -0.540513
O13   O     O_R   0.755020 0.915730 0.913400 -0.537354
C53   C     C_R   0.422121 0.086379 0.894880 0.686622
O14   O     O_R   0.595830 0.093740 0.086480 -0.536778
O15   O     O_R   0.761150 0.938890 0.079360 -0.544074
C54   C     C_R   0.427370 0.116705 0.115003 0.692286
O16   O     O_R   0.259710 0.061140 0.920790 -0.542832
O17   O     O_3   0.425260 0.949200 0.997610 -0.365343
V3    V     V_3+5 0.702060 0.009430 0.000450 1.419288
O18   O     O_R   0.090530 0.929220 0.078150 -0.536579
C55   C     C_R   0.923574 0.913607 0.105126 0.697904
O19   O     O_R   0.084440 0.906220 0.913360 -0.536389
C56   C     C_R   0.914553 0.883414 0.885145 0.695646
V4    V     V_3+5 0.201450 0.990520 0.999290 1.429562
O20   O     O_3   0.928380 0.050800 0.002390 -0.367566
H16   H     H_    0.002942 0.725219 0.545680 0.090615
H17   H     H_    0.697734 0.549431 0.723034 0.140254
H18   H     H_    0.171236 0.472170 0.129633 0.166358
H19   H     H_    0.431550 0.270500 0.458546 0.078552
H20   H     H_    0.543138 0.048366 0.229132 0.102741
H21   H     H_    0.333949 0.228894 0.040064 0.112903
H22   H     H_    0.221618 0.359466 0.017192 0.150604
F1    F     F_    0.224799 0.469124 0.277774 -0.706833
F2    F     F_    0.041566 0.422450 0.719759 -0.697472
H23   H     H_    0.606474 0.300822 0.633370 0.158182
F3    F     F_    0.488174 0.689395 0.187183 -0.696259
H24   H     H_    0.243605 0.808470 0.303112 0.119941
H25   H     H_    0.181951 0.966031 0.646037 0.116132

loop_
_geom_bond_atom_site_label_1
_geom_bond_atom_site_label_2
_ccdc_geom_bond_type
C53   O16   A    
C34   C38   A    
C6    C9    A    
C4    C6    S    
O2    C1    A    
C7    C8    A    
C5    C55   S    
C12   H1    S    
C1    O6    A    
O15   C55   A    
C32   C33   A    
C31   C32   A    
C13   H2    S    
C29   H19   S    
O13   V3    S    
C19   C20   A    
O14   C54   A    
O5    C3    A    
C21   C22   A    
V2    O10   S    
C43   C51   A    
O16   V4    S    
C35   C36   A    
C17   C18   A    
O11   C54   A    
C43   C53   S    
C41   H18   S    
O8    V2    S    
C24   C56   S    
C18   C19   A    
C45   C46   A    
C51   H13   S    
C11   C12   A    
C47   C48   A    
O1    V2    S    
C26   H8    S    
O12   V3    S    
O13   C56   A    
O9    C4    A    
C3    C21   S    
V4    O20   S    
C16   H25   S    
O12   C53   A    
O18   V4    S    
C22   C25   A    
O17   V4    S    
C8    H3    S    
C32   H20   S    
C45   H14   S    
C23   C28   A    
C33   C35   A    
C5    C12   A    
C51   C52   A    
C30   C31   A    
C42   F1    S    
H5    C27   S    
C25   H17   S    
C22   C23   A    
O4    C2    A    
O15   V3    S    
C36   C39   A    
C13   C14   A    
C18   H16   S    
C43   C50   A    
C39   C40   A    
C44   C46   A    
V3    O20   S    
C7    C11   A    
C26   C27   A    
C41   C42   A    
C35   C54   S    
C28   H9    S    
C45   C49   A    
O19   V4    S    
C29   C30   A    
C15   C20   A    
O3    C4    A    
C23   C24   A    
O6    V2    S    
O9    V2    S    
C10   C14   A    
C50   H12   S    
O14   V3    S    
O11   V4    S    
C39   H21   S    
O2    V1    S    
C27   C28   A    
O7    V1    S    
C46   F2    S    
C37   C42   A    
C33   C34   A    
O1    C2    A    
C15   H6    S    
C30   H10   S    
C49   C50   A    
C47   H23   S    
C14   H24   S    
O5    V1    S    
O8    C3    A    
C9    H4    S    
C29   C34   A    
C44   C47   A    
C5    C13   A    
C15   C16   A    
C19   C21   A    
C40   H22   S    
C37   C38   A    
C48   C49   A    
O3    V1    S    
V1    O10   S    
C48   C52   A    
O18   C55   A    
C1    C38   S    
O19   C56   A    
C16   C17   A    
C6    C8    A    
C20   C24   A    
C40   C41   A    
C2    C44   S    
C7    F3    S    
O4    V1    S    
O17   V3    S    
C25   C26   A    
C10   C11   A    
C17   H7    S    
C36   C37   A    
C9    C10   A    
C52   H15   S    
C31   H11   S    
O7    V2    S    
