data_str_m9_o7_o18_f0_sra.sym.83
_audit_creation_date              2012-12-11T17:36:23-0500
_audit_creation_method            fapswitch 2.2
_symmetry_space_group_name_H-M    P1
_symmetry_Int_Tables_number       1
_space_group_crystal_system       triclinic
_cell_length_a                    25.77799
_cell_length_b                    6.901719
_cell_length_c                    21.767643
_cell_angle_alpha                 89.992485
_cell_angle_beta                  96.081905
_cell_angle_gamma                 89.993645
_cell_volume                      3850.93662663

loop_
_atom_site_label
_atom_site_type_symbol
_atom_type_description
_atom_site_fract_x
_atom_site_fract_y
_atom_site_fract_z
_atom_type_partial_charge
O1    O     O_R   0.208650 0.594520 0.175450 -0.543792
O2    O     O_R   0.791350 0.405480 0.824550 -0.543796
O3    O     O_R   0.291350 0.094520 0.324550 -0.543786
O4    O     O_R   0.708650 0.905480 0.675450 -0.543803
O5    O     O_R   0.192980 0.260780 0.300160 -0.545561
O6    O     O_R   0.807020 0.739220 0.699840 -0.545577
O7    O     O_R   0.307020 0.760780 0.199840 -0.545479
O8    O     O_R   0.692980 0.239220 0.800160 -0.545481
C1    C     C_R   0.178986 0.432797 0.318685 0.680705
C2    C     C_R   0.821014 0.567204 0.681314 0.680692
C3    C     C_R   0.321015 0.932797 0.181315 0.680354
C4    C     C_R   0.678985 0.067203 0.818685 0.680359
O9    O     O_R   0.202550 0.264660 0.174420 -0.530398
O10   O     O_R   0.797450 0.735340 0.825580 -0.530393
O11   O     O_R   0.297450 0.764660 0.325580 -0.530133
O12   O     O_R   0.702550 0.235340 0.674420 -0.530122
O13   O     O_R   0.300990 0.096480 0.197920 -0.533745
O14   O     O_R   0.699010 0.903520 0.802080 -0.533740
O15   O     O_R   0.199010 0.596480 0.302080 -0.533669
O16   O     O_R   0.800990 0.403520 0.697920 -0.533665
C5    C     C_R   0.191090 0.433507 0.151229 0.757900
C6    C     C_R   0.808909 0.566493 0.848771 0.757891
C7    C     C_R   0.308914 0.933461 0.348771 0.757753
C8    C     C_R   0.691087 0.066539 0.651228 0.757700
O17   O     O_3   0.282290 0.427760 0.257860 -0.367944
O18   O     O_3   0.717710 0.572240 0.742140 -0.367939
O19   O     O_3   0.217710 0.927760 0.242140 -0.368037
O20   O     O_3   0.782290 0.072240 0.757860 -0.368035
V1    V     V_3+5 0.244010 0.152080 0.248540 1.434777
V2    V     V_3+5 0.755990 0.847920 0.751460 1.434741
V3    V     V_3+5 0.255990 0.652080 0.251460 1.435239
V4    V     V_3+5 0.744010 0.347920 0.748540 1.435229
C9    C     C_R   0.657958 0.059325 0.591782 -0.141268
C10   C     C_R   0.342043 0.940673 0.408216 -0.141258
C11   C     C_R   0.842035 0.559032 0.908211 -0.141030
C12   C     C_R   0.157964 0.440967 0.091789 -0.141026
C13   C     C_R   0.648013 0.101366 0.480847 -0.237295
C14   C     C_R   0.351988 0.898645 0.519152 -0.237333
C15   C     C_R   0.851840 0.598009 0.019254 -0.237456
C16   C     C_R   0.148160 0.401992 0.980747 -0.237467
C17   C     C_R   0.680022 0.095689 0.536777 0.451614
C18   C     C_R   0.319979 0.904325 0.463221 0.451617
C19   C     C_R   0.819874 0.593243 0.963279 0.451357
C20   C     C_R   0.180125 0.406757 0.036722 0.451358
C21   C     C_R   0.604140 0.023219 0.590168 -0.296092
C22   C     C_R   0.395862 0.976765 0.409830 -0.296116
C23   C     C_R   0.895906 0.524098 0.909783 -0.296199
C24   C     C_R   0.104093 0.475900 0.090217 -0.296206
C25   C     C_R   0.570861 0.027102 0.533588 0.095129
C26   C     C_R   0.429141 0.972886 0.466410 0.095133
C27   C     C_R   0.929136 0.526914 0.966404 0.095173
C28   C     C_R   0.070864 0.473085 0.033596 0.095174
C29   C     C_R   0.594144 0.067492 0.478787 0.072946
C30   C     C_R   0.405857 0.932505 0.521212 0.072967
C31   C     C_R   0.905756 0.565166 0.021283 0.073044
C32   C     C_R   0.094244 0.434834 0.978717 0.073051
C33   C     C_R   0.515453 0.995097 0.529446 0.072235
C34   C     C_R   0.484549 0.004889 0.470552 0.072235
C35   C     C_R   0.984579 0.495761 0.970523 0.072224
C36   C     C_R   0.015421 0.504239 0.029477 0.072224
C37   C     C_R   0.510106 0.046122 0.417833 -0.185014
C38   C     C_R   0.489896 0.953867 0.582166 -0.185019
C39   C     C_R   0.989769 0.543379 0.082275 -0.185023
C40   C     C_R   0.010231 0.456621 0.917725 -0.185024
C41   C     C_R   0.563607 0.076178 0.422041 -0.176345
C42   C     C_R   0.436394 0.923817 0.577958 -0.176348
C43   C     C_R   0.936234 0.572643 0.078084 -0.176380
C44   C     C_R   0.063765 0.427358 0.921916 -0.176382
H1    H     H_    0.581313 0.107574 0.380128 0.124393
H2    H     H_    0.418688 0.892428 0.619871 0.124390
H3    H     H_    0.918454 0.602393 0.120059 0.124380
H4    H     H_    0.081546 0.397608 0.879941 0.124377
H5    H     H_    0.410401 0.003365 0.366008 0.115389
H6    H     H_    0.589601 0.996607 0.633990 0.115392
H7    H     H_    0.089489 0.500995 0.134087 0.115271
H8    H     H_    0.910510 0.499003 0.865914 0.115272
H9    H     H_    0.665457 0.134253 0.438872 0.132565
H10   H     H_    0.334543 0.865765 0.561127 0.132536
H11   H     H_    0.834319 0.629260 0.061295 0.132475
H12   H     H_    0.165681 0.370741 0.938705 0.132465
H13   H     H_    0.489846 0.056942 0.372130 0.121935
H14   H     H_    0.510155 0.943049 0.627868 0.121935
H15   H     H_    0.009975 0.553091 0.128030 0.121933
H16   H     H_    0.990024 0.446909 0.871970 0.121932
C45   C     C_R   0.426959 0.793462 0.078849 -0.136095
C46   C     C_R   0.573041 0.206538 0.921151 -0.136091
C47   C     C_R   0.073061 0.293459 0.421179 -0.136031
C48   C     C_R   0.926938 0.706541 0.578820 -0.136019
H17   H     H_    0.445372 0.662939 0.064031 0.105470
H18   H     H_    0.554628 0.337062 0.935969 0.105470
H19   H     H_    0.054662 0.162934 0.436016 0.105405
H20   H     H_    0.945337 0.837066 0.563982 0.105403
C49   C     C_R   0.387691 0.778497 0.118792 -0.186560
C50   C     C_R   0.612310 0.221503 0.881208 -0.186563
C51   C     C_R   0.112330 0.278493 0.381237 -0.186440
C52   C     C_R   0.887669 0.721507 0.618762 -0.186454
H21   H     H_    0.376674 0.636127 0.133765 0.120014
H22   H     H_    0.623326 0.363873 0.866235 0.120013
H23   H     H_    0.123362 0.136121 0.366285 0.119842
H24   H     H_    0.876637 0.863880 0.633714 0.119834
C53   C     C_R   0.363044 0.945643 0.139013 -0.052833
C54   C     C_R   0.636956 0.054357 0.860987 -0.052837
C55   C     C_R   0.136958 0.445642 0.360989 -0.052536
C56   C     C_R   0.863042 0.554358 0.639011 -0.052531
C57   C     C_R   0.378682 0.127583 0.117762 -0.142109
C58   C     C_R   0.621318 0.872417 0.882238 -0.142106
C59   C     C_R   0.121301 0.627585 0.382215 -0.142213
C60   C     C_R   0.878699 0.372415 0.617785 -0.142207
H25   H     H_    0.360626 0.259774 0.131783 0.127873
H26   H     H_    0.639373 0.740226 0.868217 0.127872
H27   H     H_    0.139342 0.759776 0.368174 0.127651
H28   H     H_    0.860658 0.240223 0.631827 0.127642
C61   C     C_R   0.417826 0.142041 0.077949 -0.141591
C62   C     C_R   0.582173 0.857959 0.922051 -0.141590
C63   C     C_R   0.082158 0.642043 0.422029 -0.141859
C64   C     C_R   0.917842 0.357957 0.577971 -0.141861
H29   H     H_    0.428992 0.283782 0.062480 0.103177
H30   H     H_    0.571008 0.716218 0.937520 0.103177
H31   H     H_    0.070978 0.783785 0.437478 0.103117
H32   H     H_    0.929022 0.216215 0.562522 0.103116
C65   C     C_R   0.442300 0.975421 0.058283 0.132736
C66   C     C_R   0.557700 0.024579 0.941717 0.132736
C67   C     C_R   0.057702 0.475421 0.441719 0.132838
C68   C     C_R   0.942298 0.524579 0.558280 0.132839
C69   C     C_1   0.483009 0.992278 0.017162 -0.059948
C70   C     C_1   0.516992 0.007722 0.982838 -0.059949
C71   C     C_1   0.016992 0.492278 0.482839 -0.059996
C72   C     C_1   0.983008 0.507722 0.517161 -0.059997
O21   O     O_3   0.267591 0.859623 0.461902 -0.558525
C73   C     C_3   0.240171 0.030285 0.473431 -0.256601
H33   H     H_    0.245057 0.143307 0.437989 0.137948
H34   H     H_    0.252407 0.087588 0.520535 0.141656
H35   H     H_    0.197969 0.995575 0.470891 0.163365
O22   O     O_3   0.732408 0.140419 0.538090 -0.558518
C74   C     C_3   0.759842 0.969729 0.526634 -0.256621
H36   H     H_    0.747573 0.912093 0.479579 0.141642
H37   H     H_    0.755007 0.856935 0.562162 0.137983
H38   H     H_    0.802036 0.004519 0.529095 0.163374
O23   O     O_3   0.232588 0.363302 0.037991 -0.558695
C75   C     C_3   0.259720 0.534751 0.026619 -0.256255
H39   H     H_    0.254631 0.647238 0.062156 0.138118
H40   H     H_    0.247402 0.592313 0.979563 0.141588
H41   H     H_    0.301982 0.501024 0.029146 0.163440
O24   O     O_3   0.767412 0.636701 0.962012 -0.558693
C76   C     C_3   0.740277 0.465241 0.973363 -0.256261
H42   H     H_    0.752608 0.407573 0.020403 0.141582
H43   H     H_    0.745349 0.352828 0.937798 0.138131
H44   H     H_    0.698018 0.498990 0.970864 0.163444

loop_
_geom_bond_atom_site_label_1
_geom_bond_atom_site_label_2
_ccdc_geom_bond_type
O17   V3    S    
C74   H38   S    
C48   C52   A    
O1    C5    A    
C47   H19   S    
O19   V1    S    
C9    C21   A    
O3    C7    A    
C10   C18   A    
C75   H41   S    
C48   C68   A    
C11   C23   A    
C76   H42   S    
C25   C33   A    
C74   H36   S    
C5    C12   S    
O7    C3    A    
C6    C11   S    
O5    C1    A    
C26   C30   A    
C58   C62   A    
C36   C39   A    
C40   C44   A    
C57   C61   A    
C75   H40   S    
C23   H8    S    
C14   C18   A    
C58   H26   S    
O4    C8    A    
C51   H23   S    
C44   H4    S    
C50   H22   S    
O1    V3    S    
O13   V1    S    
C31   C43   A    
O2    V4    S    
O3    V1    S    
C40   H16   S    
C46   C50   A    
C65   C69   S    
C45   C49   A    
C1    O15   A    
C15   C31   A    
C48   H20   S    
C2    O16   A    
C16   C32   A    
C47   C51   A    
O2    C6    A    
C16   H12   S    
C45   C65   A    
C10   C22   A    
C11   C19   A    
C16   C20   A    
C43   H3    S    
C1    C55   S    
C68   C72   S    
C13   C29   A    
C34   C37   A    
O11   C7    A    
C38   H14   S    
O15   V3    S    
C35   C36   A    
O12   C8    A    
C53   C57   A    
C24   H7    S    
C19   O24   S    
O10   V2    S    
C17   O22   S    
C76   H43   S    
C51   C55   A    
O5    V1    S    
O17   V1    S    
C39   C43   A    
C63   C67   A    
C38   C42   A    
O19   V3    S    
C26   C34   A    
O20   V4    S    
O7    V3    S    
C75   H39   S    
C46   H18   S    
C49   C53   A    
C45   H17   S    
O18   V4    S    
C15   C19   A    
C14   H10   S    
C33   C38   A    
C32   C44   A    
C13   H9    S    
C64   H32   S    
C39   H15   S    
C21   H6    S    
O8    V4    S    
C66   C70   S    
C73   H34   S    
C4    C54   S    
C37   C41   A    
C67   C71   S    
C14   C30   A    
C21   C25   A    
O8    C4    A    
C7    C10   S    
C35   C40   A    
O9    C5    A    
C3    C53   S    
C59   C63   A    
C62   H30   S    
C61   H29   S    
O6    V2    S    
O18   V2    S    
C20   O23   S    
C63   H31   S    
C52   C56   A    
C69   C70   T    
C12   C20   A    
C73   H35   S    
C27   C35   A    
C71   C72   T    
C49   H21   S    
C56   C60   A    
C76   H44   S    
C29   C41   A    
O21   C73   S    
O16   V4    S    
O9    V1    S    
C74   H37   S    
C57   H25   S    
C3    O13   A    
C64   C68   A    
C59   H27   S    
O24   C76   S    
O6    C2    A    
C23   C27   A    
O23   C75   S    
O11   V3    S    
O22   C74   S    
C30   C42   A    
O12   V4    S    
C22   C26   A    
C8    C9    S    
C9    C17   A    
O10   C6    A    
C2    C56   S    
C73   H33   S    
C37   H13   S    
C47   C67   A    
C60   C64   A    
C33   C34   A    
C42   H2    S    
C41   H1    S    
C52   H24   S    
O20   V2    S    
C12   C24   A    
C18   O21   S    
C27   C31   A    
C13   C17   A    
C46   C66   A    
C25   C29   A    
O14   V2    S    
C62   C66   A    
C60   H28   S    
C24   C28   A    
C61   C65   A    
C50   C54   A    
C28   C36   A    
C54   C58   A    
C4    O14   A    
C55   C59   A    
C22   H5    S    
O4    V2    S    
C28   C32   A    
C15   H11   S    
