data_str_m3_o12_o16_f0_pcu.sym.192
_audit_creation_date              2012-12-10T17:17:26-0500
_audit_creation_method            fapswitch 2.2
_symmetry_space_group_name_H-M    P1
_symmetry_Int_Tables_number       1
_space_group_crystal_system       triclinic
_cell_length_a                    10.20276
_cell_length_b                    10.719809
_cell_length_c                    12.393813
_cell_angle_alpha                 89.650819
_cell_angle_beta                  109.390983
_cell_angle_gamma                 96.012884
_cell_volume                      1271.00977001

loop_
_atom_site_label
_atom_site_type_symbol
_atom_type_description
_atom_site_fract_x
_atom_site_fract_y
_atom_site_fract_z
_atom_type_partial_charge
C1    C     C_R   0.053596 0.732848 0.495559 0.923507
C2    C     C_R   0.455678 0.567911 0.959391 0.083687
C3    C     C_R   0.334116 0.499080 0.885493 0.072415
C4    C     C_R   0.573502 0.503129 0.014289 0.042115
C5    C     C_R   0.578988 0.380956 0.971871 0.042353
C6    C     C_R   0.455605 0.314233 0.901531 -0.183708
C7    C     C_R   0.333465 0.370637 0.862899 -0.198642
C8    C     C_R   0.678831 0.548772 0.116659 0.137899
C9    C     C_R   0.809869 0.373555 0.107669 -0.292576
C10   C     C_R   0.218266 0.561396 0.827080 -0.153911
C11   C     C_2   0.092662 0.866039 0.507156 -0.381298
C12   C     C_R   0.135142 0.515630 0.712748 0.862134
C13   C     C_2   0.036524 0.933159 0.567648 -0.190637
C14   C     C_2   0.942578 0.134694 0.545069 -0.047284
C15   C     C_2   0.056082 0.068918 0.567681 0.192389
C16   C     C_2   0.434263 0.506310 0.512683 -0.175273
C17   C     C_2   0.569887 0.482569 0.495091 0.224224
C18   C     C_R   0.954506 0.267374 0.516718 0.916233
C19   C     C_R   0.866576 0.491871 0.286772 0.897918
C20   C     C_R   0.704411 0.323491 0.010095 -0.019969
C21   C     C_R   0.790575 0.477379 0.165653 -0.145142
C22   C     C_R   0.216053 0.688507 0.851122 -0.199792
C23   C     C_R   0.336940 0.759384 0.921155 0.262291
C24   C     C_R   0.458144 0.699806 0.968691 -0.252050
H1    H     H_    0.901326 0.324389 0.145012 0.204291
H2    H     H_    0.966875 0.888302 0.609747 0.170341
H3    H     H_    0.163930 0.908835 0.465624 0.152246
H4    H     H_    0.438164 0.575313 0.577679 0.159015
H5    H     H_    0.681253 0.626918 0.596328 0.127173
H6    H     H_    0.309510 0.386513 0.389193 0.165829
H7    H     H_    0.451197 0.215722 0.882233 0.170158
H8    H     H_    0.127809 0.736152 0.801562 0.151013
H9    H     H_    0.554711 0.758723 0.008750 0.167782
H10   H     H_    0.239241 0.314566 0.810670 0.147303
N1    N     N_2   0.313640 0.446500 0.454900 -0.189324
N2    N     N_2   0.686360 0.553430 0.545150 -0.208010
O1    O     O_R   0.936910 0.692950 0.509080 -0.620614
O2    O     O_R   0.138320 0.658600 0.480130 -0.607302
O3    O     O_R   0.002900 0.525670 0.675280 -0.613342
O4    O     O_R   0.204310 0.491320 0.646330 -0.587526
O5    O     O_R   0.861680 0.341400 0.519870 -0.563330
O6    O     O_R   0.063090 0.307050 0.490920 -0.611885
O7    O     O_R   0.795690 0.508680 0.353670 -0.579824
O8    O     O_R   0.997100 0.474330 0.324720 -0.616626
Zn1   Zn    Zn3+2 0.865520 0.522940 0.519330 0.946628
Zn2   Zn    Zn3+2 0.134480 0.477060 0.480670 0.942985
N3    N     N_2   0.810721 0.077408 0.546849 -0.339077
H11   H     H_    0.776516 0.992921 0.501891 0.231561
C25   C     C_3   0.797628 0.074304 0.659620 -0.759831
H12   H     H_    0.688886 0.038402 0.652537 0.255210
H13   H     H_    0.821608 0.170161 0.699657 0.276547
H14   H     H_    0.870096 0.011885 0.715618 0.223408
N4    N     N_2   0.571903 0.379979 0.423656 -0.238485
H15   H     H_    0.508372 0.385610 0.339908 0.197827
C26   C     C_3   0.553936 0.257702 0.470111 -0.693844
H16   H     H_    0.579724 0.185759 0.418636 0.239970
H17   H     H_    0.444622 0.233141 0.467515 0.196327
H18   H     H_    0.623854 0.256090 0.560194 0.278244
C27   C     C_2   0.727398 0.209975 0.953042 0.882746
O9    O     O_2   0.670965 0.191268 0.849939 -0.676973
O10   O     O_R   0.818204 0.126704 0.016682 -0.823597
H19   H     H_    0.826681 0.054215 0.968092 0.337784
N5    N     N_2   0.666522 0.657480 0.177803 -0.318596
H20   H     H_    0.758524 0.709385 0.225257 0.217543
C28   C     C_3   0.556796 0.649499 0.228814 -0.717390
H21   H     H_    0.603307 0.656527 0.323410 0.244023
H22   H     H_    0.486449 0.560415 0.203854 0.230630
H23   H     H_    0.493636 0.729311 0.200956 0.230639
N6    N     N_2   0.342935 0.892628 0.931484 -0.312769
H24   H     H_    0.441127 0.938166 0.972960 0.227852
C29   C     C_3   0.235298 0.940039 0.966865 -0.803470
H25   H     H_    0.253166 0.044131 0.974235 0.237762
H26   H     H_    0.238433 0.902878 0.051492 0.245984
H27   H     H_    0.130323 0.914167 0.902762 0.241419
N7    N     N_2   0.192737 0.128367 0.579320 -0.279315
H28   H     H_    0.213516 0.132042 0.503308 0.229189
C30   C     C_3   0.306969 0.088734 0.673225 -0.744575
H29   H     H_    0.401178 0.156503 0.686035 0.266154
H30   H     H_    0.332079 0.994808 0.654229 0.241937
H31   H     H_    0.279380 0.085038 0.752702 0.251306

loop_
_geom_bond_atom_site_label_1
_geom_bond_atom_site_label_2
_ccdc_geom_bond_type
C16   H4    S    
C15   N7    S    
C26   H16   S    
N5    C28   S    
C14   C18   S    
C1    C11   S    
C4    C8    A    
C9    H1    S    
N3    C25   S    
C5    C20   A    
N4    H15   S    
C10   C22   A    
O4    Zn2   S    
H5    N2    S    
C22   H8    S    
H6    N1    S    
C19   C21   S    
C3    C7    A    
C18   O6    A    
C16   N1    D    
C5    C6    A    
O6    Zn2   S    
N6    C29   S    
C23   N6    S    
C19   O7    A    
C16   C17   S    
C28   H22   S    
C23   C24   A    
C17   N2    D    
C1    O1    A    
O3    Zn1   S    
C28   H23   S    
C30   H30   S    
C6    H7    S    
C27   O9    D    
O10   H19   S    
O8    Zn2   S    
N4    C26   S    
C27   O10   S    
C18   O5    A    
C29   H26   S    
C25   H13   S    
C30   H29   S    
C12   O4    A    
C2    C4    A    
N7    H28   S    
O7    Zn1   S    
C9    C20   A    
N3    H11   S    
C11   H3    S    
C25   H14   S    
C8    C21   A    
N2    Zn1   S    
C20   C27   S    
N7    C30   S    
C14   N3    S    
C10   C12   S    
C1    O2    A    
C28   H21   S    
C26   H17   S    
C2    C24   A    
C7    H10   S    
C13   H2    S    
O1    Zn1   S    
C17   N4    S    
C19   O8    A    
C30   H31   S    
C14   C15   D    
C4    C5    A    
C29   H27   S    
C6    C7    A    
C24   H9    S    
C12   O3    A    
C13   C15   S    
C2    C3    A    
C29   H25   S    
C3    C10   A    
C11   C13   D    
C9    C21   A    
N6    H24   S    
O2    Zn2   S    
C8    N5    S    
N5    H20   S    
C25   H12   S    
C26   H18   S    
O5    Zn1   S    
C22   C23   A    
N1    Zn2   S    
