data_str_m9_o3_o18_f0_sra.sym.74
_audit_creation_date              2012-12-11T16:44:23-0500
_audit_creation_method            fapswitch 2.2
_symmetry_space_group_name_H-M    P1
_symmetry_Int_Tables_number       1
_space_group_crystal_system       triclinic
_cell_length_a                    27.123102
_cell_length_b                    7.20529
_cell_length_c                    22.754706
_cell_angle_alpha                 90.001925
_cell_angle_beta                  101.371104
_cell_angle_gamma                 89.993755
_cell_volume                      4359.65764889

loop_
_atom_site_label
_atom_site_type_symbol
_atom_type_description
_atom_site_fract_x
_atom_site_fract_y
_atom_site_fract_z
_atom_type_partial_charge
O1    O     O_R   0.707300 0.594030 0.176840 -0.535042
O2    O     O_R   0.292700 0.405970 0.823160 -0.535043
O3    O     O_R   0.792700 0.094030 0.323160 -0.535076
O4    O     O_R   0.207300 0.905970 0.676840 -0.535077
O5    O     O_R   0.697330 0.262360 0.295660 -0.533710
O6    O     O_R   0.302670 0.737640 0.704340 -0.533710
O7    O     O_R   0.802670 0.762360 0.204340 -0.533694
O8    O     O_R   0.197330 0.237640 0.795660 -0.533695
C1    C     C_R   0.684091 0.432491 0.310566 0.670918
C2    C     C_R   0.315910 0.567509 0.689434 0.670930
C3    C     C_R   0.815910 0.932477 0.189434 0.670854
C4    C     C_R   0.184089 0.067522 0.810565 0.670855
O9    O     O_R   0.701410 0.264250 0.175600 -0.530952
O10   O     O_R   0.298590 0.735750 0.824400 -0.530952
O11   O     O_R   0.798590 0.764250 0.324400 -0.530860
O12   O     O_R   0.201410 0.235750 0.675600 -0.530861
O13   O     O_R   0.796800 0.094950 0.202240 -0.529192
O14   O     O_R   0.203200 0.905050 0.797760 -0.529191
O15   O     O_R   0.703200 0.594950 0.297760 -0.529161
O16   O     O_R   0.296800 0.405050 0.702240 -0.529151
C5    C     C_R   0.689877 0.432590 0.153324 0.663188
C6    C     C_R   0.310123 0.567410 0.846676 0.663188
C7    C     C_R   0.810123 0.932575 0.346679 0.663264
C8    C     C_R   0.189877 0.067425 0.653321 0.663266
O17   O     O_3   0.781290 0.427390 0.258880 -0.367091
O18   O     O_3   0.218710 0.572610 0.741120 -0.367093
O19   O     O_3   0.718710 0.927390 0.241120 -0.367097
O20   O     O_3   0.281290 0.072610 0.758880 -0.367092
V1    V     V_3+5 0.744190 0.152150 0.248350 1.462971
V2    V     V_3+5 0.255810 0.847850 0.751650 1.462980
V3    V     V_3+5 0.755810 0.652150 0.251650 1.463192
V4    V     V_3+5 0.244190 0.347850 0.748350 1.463202
C9    C     C_R   0.156082 0.061623 0.593760 -0.128892
C10   C     C_R   0.843918 0.938377 0.406240 -0.128892
C11   C     C_R   0.343913 0.561474 0.906235 -0.128785
C12   C     C_R   0.656087 0.438526 0.093765 -0.128785
C13   C     C_R   0.140428 0.109766 0.486496 -0.151979
C14   C     C_R   0.859572 0.890235 0.513503 -0.151980
C15   C     C_R   0.359458 0.607433 0.013597 -0.151896
C16   C     C_R   0.640542 0.392570 0.986403 -0.151898
C17   C     C_R   0.174117 0.103466 0.541243 0.346750
C18   C     C_R   0.825883 0.896534 0.458757 0.346747
C19   C     C_R   0.325808 0.601951 0.958808 0.346669
C20   C     C_R   0.674192 0.398051 0.041191 0.346668
C21   C     C_R   0.104650 0.024350 0.589762 -0.239352
C22   C     C_R   0.895350 0.975650 0.410238 -0.239351
C23   C     C_R   0.395380 0.524899 0.910202 -0.239262
C24   C     C_R   0.604620 0.475101 0.089798 -0.239263
C25   C     C_R   0.069620 0.029829 0.533971 0.061956
C26   C     C_R   0.930380 0.970171 0.466029 0.061955
C27   C     C_R   0.430374 0.529666 0.966027 0.061974
C28   C     C_R   0.569626 0.470335 0.033973 0.061973
C29   C     C_R   0.088539 0.075066 0.481714 0.043239
C30   C     C_R   0.911461 0.924935 0.518286 0.043240
C31   C     C_R   0.411375 0.573301 0.018360 0.043187
C32   C     C_R   0.588625 0.426702 0.981640 0.043188
C33   C     C_R   0.016615 0.994129 0.528590 0.024946
C34   C     C_R   0.983385 0.005871 0.471410 0.024945
C35   C     C_R   0.483412 0.494668 0.971379 0.024938
C36   C     C_R   0.516588 0.505334 0.028621 0.024934
C37   C     C_R   0.004107 0.053192 0.421254 -0.160920
C38   C     C_R   0.995893 0.946809 0.578746 -0.160921
C39   C     C_R   0.495776 0.550869 0.078870 -0.160813
C40   C     C_R   0.504224 0.449135 0.921130 -0.160815
C41   C     C_R   0.055426 0.086400 0.425503 0.152270
C42   C     C_R   0.944573 0.913601 0.574497 0.152271
C43   C     C_R   0.444431 0.583533 0.074635 0.152310
C44   C     C_R   0.555569 0.416472 0.925365 0.152314
H1    H     H_    0.906558 0.004404 0.368366 0.110251
H2    H     H_    0.093442 0.995596 0.631634 0.110248
H3    H     H_    0.593372 0.502960 0.131706 0.110154
H4    H     H_    0.406627 0.497038 0.868294 0.110143
H5    H     H_    0.155873 0.143439 0.447472 0.154595
H6    H     H_    0.844127 0.856561 0.552528 0.154595
H7    H     H_    0.343956 0.639964 0.052674 0.154596
H8    H     H_    0.656044 0.360039 0.947326 0.154596
H9    H     H_    0.981028 0.066500 0.377322 0.131144
H10   H     H_    0.018972 0.933501 0.622678 0.131138
H11   H     H_    0.518799 0.563098 0.122872 0.131060
H12   H     H_    0.481201 0.436908 0.877128 0.131041
C45   C     C_R   0.895857 0.075513 0.166421 0.348330
C46   C     C_R   0.104147 0.924469 0.833585 0.348329
C47   C     C_R   0.604144 0.575568 0.333585 0.348231
C48   C     C_R   0.395844 0.424379 0.666397 0.348228
C49   C     C_R   0.930219 0.090657 0.127940 -0.121140
C50   C     C_R   0.069786 0.909326 0.872066 -0.121139
C51   C     C_R   0.569779 0.590709 0.372065 -0.121181
C52   C     C_R   0.430206 0.409238 0.627915 -0.121187
H13   H     H_    0.960497 0.190687 0.138304 0.133142
H14   H     H_    0.039511 0.809284 0.861707 0.133141
H15   H     H_    0.539498 0.690747 0.361705 0.133154
H16   H     H_    0.460479 0.309163 0.638266 0.133152
C53   C     C_R   0.927033 0.974680 0.077801 0.028657
C54   C     C_R   0.072968 0.025320 0.922201 0.028658
C55   C     C_R   0.572968 0.474713 0.422199 0.028685
C56   C     C_R   0.427029 0.525281 0.577794 0.028695
C57   C     C_R   0.889528 0.837775 0.067371 -0.146385
C58   C     C_R   0.110467 0.162243 0.932624 -0.146390
C59   C     C_R   0.610477 0.337798 0.432626 -0.146398
C60   C     C_R   0.389533 0.662247 0.567385 -0.146415
H17   H     H_    0.886858 0.744660 0.029494 0.134716
H18   H     H_    0.113134 0.255373 0.970496 0.134716
H19   H     H_    0.613149 0.244668 0.470499 0.134668
H20   H     H_    0.386870 0.755417 0.529525 0.134668
C61   C     C_R   0.854517 0.822296 0.104869 -0.172200
C62   C     C_R   0.145478 0.177721 0.895125 -0.172198
C63   C     C_R   0.645491 0.322322 0.395130 -0.172092
C64   C     C_R   0.354522 0.677726 0.604884 -0.172079
H21   H     H_    0.825103 0.718770 0.094629 0.144201
H22   H     H_    0.174888 0.281263 0.905361 0.144206
H23   H     H_    0.674907 0.218781 0.405366 0.143993
H24   H     H_    0.325116 0.781310 0.594661 0.144007
C65   C     C_R   0.856322 0.942676 0.153902 -0.134626
C66   C     C_R   0.143678 0.057323 0.846098 -0.134628
C67   C     C_R   0.643682 0.442716 0.346101 -0.134562
C68   C     C_R   0.356318 0.557282 0.653898 -0.134575
C69   C     C_R   0.994581 0.837401 0.031451 -0.196076
C70   C     C_R   0.005420 0.162599 0.968551 -0.196075
C71   C     C_R   0.505422 0.337418 0.468532 -0.196094
C72   C     C_R   0.494574 0.662577 0.531459 -0.196092
H25   H     H_    0.990635 0.711847 0.056352 0.133585
H26   H     H_    0.009366 0.288153 0.943650 0.133582
H27   H     H_    0.509372 0.211880 0.443620 0.133581
H28   H     H_    0.490624 0.788116 0.556370 0.133576
C73   C     C_R   0.030447 0.844256 0.994459 0.177104
C74   C     C_R   0.969554 0.155745 0.005544 0.177103
C75   C     C_R   0.469555 0.344253 0.505524 0.177121
C76   C     C_R   0.530439 0.655744 0.494465 0.177124
C77   C     C_R   0.035833 0.008935 0.962290 0.047417
C78   C     C_R   0.964168 0.991065 0.037713 0.047413
C79   C     C_R   0.464165 0.508911 0.537707 0.047413
C80   C     C_R   0.535830 0.491083 0.462285 0.047407
C81   C     C_3   0.073804 0.135301 0.368798 -0.779988
H29   H     H_    0.042859 0.138389 0.328743 0.218067
H30   H     H_    0.091416 0.275025 0.373345 0.213050
H31   H     H_    0.101592 0.030534 0.360278 0.210517
C82   C     C_3   0.926196 0.864700 0.631202 -0.779993
H32   H     H_    0.957141 0.861612 0.671257 0.218063
H33   H     H_    0.898408 0.969468 0.639722 0.210518
H34   H     H_    0.908584 0.724976 0.626655 0.213051
C83   C     C_3   0.425961 0.630554 0.131436 -0.779944
H35   H     H_    0.456868 0.632905 0.171537 0.217948
H36   H     H_    0.408273 0.770176 0.127253 0.213025
H37   H     H_    0.398213 0.525163 0.139618 0.210529
C84   C     C_3   0.574040 0.369453 0.868564 -0.779956
H38   H     H_    0.543132 0.367102 0.828463 0.217936
H39   H     H_    0.601787 0.474844 0.860382 0.210531
H40   H     H_    0.591727 0.229831 0.872746 0.213026
C85   C     C_3   0.063599 0.677633 0.991794 -0.787155
H41   H     H_    0.055127 0.614740 0.946475 0.202945
H42   H     H_    0.103758 0.719580 0.002692 0.226147
H43   H     H_    0.057698 0.568789 0.024297 0.207636
C86   C     C_3   0.936403 0.322370 0.008211 -0.787144
H44   H     H_    0.896244 0.280427 0.997308 0.226145
H45   H     H_    0.944873 0.385249 0.053532 0.202950
H46   H     H_    0.942307 0.431224 0.975713 0.207632
C87   C     C_3   0.436406 0.177635 0.508171 -0.787177
H47   H     H_    0.444875 0.114711 0.553486 0.202932
H48   H     H_    0.396246 0.219599 0.497270 0.226126
H49   H     H_    0.442314 0.068808 0.475662 0.207646
C88   C     C_3   0.563583 0.822370 0.491810 -0.787181
H50   H     H_    0.603744 0.780422 0.502712 0.226124
H51   H     H_    0.555113 0.885268 0.446491 0.202946
H52   H     H_    0.557674 0.931209 0.524313 0.207645
O21   O     O_3   0.775903 0.859731 0.459209 -0.645081
H53   H     H_    0.754997 0.881000 0.418995 0.279887
O22   O     O_3   0.224097 0.140270 0.540791 -0.645079
H54   H     H_    0.245003 0.119001 0.581005 0.279889
O23   O     O_3   0.724206 0.361954 0.040708 -0.645134
H55   H     H_    0.745054 0.381938 0.081033 0.279870
O24   O     O_3   0.275794 0.638048 0.959292 -0.645133
H56   H     H_    0.254946 0.618062 0.918967 0.279870
O25   O     O_3   0.903228 0.189805 0.216094 -0.644797
H57   H     H_    0.886303 0.135504 0.246813 0.276886
O26   O     O_3   0.096780 0.810160 0.783917 -0.644802
H58   H     H_    0.113699 0.864460 0.753194 0.276897
O27   O     O_3   0.596769 0.689871 0.283916 -0.644750
H59   H     H_    0.613699 0.635579 0.253197 0.276925
O28   O     O_3   0.403207 0.310020 0.716051 -0.644740
H60   H     H_    0.386300 0.364344 0.746786 0.276930

loop_
_geom_bond_atom_site_label_1
_geom_bond_atom_site_label_2
_ccdc_geom_bond_type
O17   V3    S    
C59   H19   S    
O24   H56   S    
C52   C56   A    
O1    C5    A    
O21   H53   S    
C51   H15   S    
O19   V1    S    
C72   C79   A    
C9    C21   A    
O23   H55   S    
O3    C7    A    
C10   C18   A    
C60   H20   S    
C11   C23   A    
C84   H40   S    
C84   H38   S    
C25   C33   A    
C33   C38   A    
C5    C12   S    
C39   H11   S    
O25   H57   S    
O7    C3    A    
C6    C11   S    
C82   H33   S    
C19   O24   S    
C35   C40   A    
C87   H47   S    
C64   H24   S    
C28   C36   A    
C62   C66   A    
C36   C39   A    
C40   C44   A    
C61   C65   A    
C14   C18   A    
C85   H42   S    
C62   H22   S    
O4    C8    A    
C55   C59   A    
C54   C58   A    
C17   O22   S    
O1    V3    S    
O13   V1    S    
O2    V4    S    
C70   H26   S    
O3    V1    S    
C69   H25   S    
C20   O23   S    
C22   H1    S    
C13   H5    S    
C50   C54   A    
C88   H51   S    
C49   C53   A    
C1    O15   A    
C15   C31   A    
C52   H16   S    
C2    O16   A    
C16   C32   A    
C51   C55   A    
O2    C6    A    
C81   H31   S    
C10   C22   A    
C15   H7    S    
C86   H45   S    
C11   C19   A    
C75   C87   S    
C16   C20   A    
O5    V1    S    
C18   O21   S    
C45   C49   A    
C13   C29   A    
C34   C37   A    
O11   C7    A    
O15   V3    S    
C35   C36   A    
O12   C8    A    
C40   H12   S    
O10   V2    S    
C76   C80   A    
C84   H39   S    
C88   H50   S    
C4    C66   S    
C82   H34   S    
C39   C43   A    
C60   C64   A    
C54   C77   S    
O7    V3    S    
C47   O27   S    
O8    V4    S    
C47   C67   A    
C46   C66   A    
C50   H14   S    
C83   H37   S    
C37   H9    S    
O22   H54   S    
C38   C42   A    
O18   V4    S    
C15   C19   A    
C32   C44   A    
O4    V2    S    
C16   H8    S    
C72   H28   S    
C45   O25   S    
C48   O28   S    
O5    C1    A    
C58   H18   S    
C31   C43   A    
O26   H58   S    
C14   C30   A    
C21   C25   A    
O8    C4    A    
C7    C10   S    
C71   C80   A    
C26   C34   A    
O9    C5    A    
C26   C30   A    
C86   H46   S    
C69   C78   A    
C63   C67   A    
C73   C85   S    
C56   C79   S    
O14   V2    S    
O6    V2    S    
C87   H49   S    
C73   C77   A    
C55   C80   S    
C48   C68   A    
C85   H43   S    
C27   C35   A    
C24   H3    S    
C45   C65   A    
C53   C78   S    
C43   C83   S    
C53   C57   A    
C88   H52   S    
C29   C41   A    
O16   V4    S    
O9    V1    S    
C61   H21   S    
C3    O13   A    
C1    C67   S    
C49   H13   S    
C21   H2    S    
C63   H23   S    
C38   H10   S    
C48   C52   A    
C47   C51   A    
O6    C2    A    
C23   C27   A    
C72   C76   A    
O11   V3    S    
C30   C42   A    
C71   H27   S    
O12   V4    S    
C59   C63   A    
C82   H32   S    
C22   C26   A    
C8    C9    S    
C58   C62   A    
C9    C17   A    
O10   C6    A    
C75   C79   A    
C83   H36   S    
C57   C61   A    
C70   C77   A    
C46   C50   A    
C83   H35   S    
C64   C68   A    
C33   C34   A    
C81   H29   S    
C42   C82   S    
C25   C29   A    
C56   C60   A    
O20   V2    S    
C76   C88   S    
C14   H6    S    
C12   C24   A    
C27   C31   A    
C13   C17   A    
C3    C65   S    
C2    C68   S    
C41   C81   S    
C23   H4    S    
C12   C20   A    
O28   H60   S    
C74   C86   S    
C37   C41   A    
C24   C28   A    
C46   O26   S    
C87   H48   S    
O27   H59   S    
C4    O14   A    
C81   H30   S    
C74   C78   A    
C70   C74   A    
C86   H44   S    
C85   H41   S    
C69   C73   A    
C57   H17   S    
C44   C84   S    
C28   C32   A    
C71   C75   A    
