data_str_m2_o10_o18_f0_pcu.sym.166
_audit_creation_date              2012-12-10T16:45:23-0500
_audit_creation_method            fapswitch 2.2
_symmetry_space_group_name_H-M    P1
_symmetry_Int_Tables_number       1
_space_group_crystal_system       triclinic
_cell_length_a                    7.436499
_cell_length_b                    8.694599
_cell_length_c                    15.831586
_cell_angle_alpha                 94.284763
_cell_angle_beta                  75.092545
_cell_angle_gamma                 103.131949
_cell_volume                      963.164727645

loop_
_atom_site_label
_atom_site_type_symbol
_atom_type_description
_atom_site_fract_x
_atom_site_fract_y
_atom_site_fract_z
_atom_type_partial_charge
C1    C     C_R   0.545073 0.800144 0.502592 0.886498
C2    C     C_R   0.454937 0.199856 0.497394 0.886236
C3    C     C_R   0.274804 0.415563 0.080896 -0.225895
C4    C     C_R   0.713485 0.625056 0.924412 -0.227410
C5    C     C_R   0.145391 0.379968 0.029220 -0.222055
C6    C     C_R   0.842042 0.663448 0.976426 -0.221371
C7    C     C_2   0.570480 0.968016 0.503839 -0.372878
C8    C     C_2   0.429545 0.031983 0.496128 -0.373012
C9    C     C_R   0.384134 0.488972 0.666279 0.793296
C10   C     C_R   0.615941 0.511975 0.333800 0.792902
C11   C     C_R   0.314068 0.475585 0.761647 -0.054856
C12   C     C_R   0.686053 0.533421 0.239012 -0.055538
C13   C     C_R   0.068396 0.378252 0.890058 -0.185311
C14   C     C_R   0.922499 0.657195 0.114177 -0.185877
C15   C     C_R   0.123953 0.407943 0.800795 -0.201222
C16   C     C_R   0.870943 0.616381 0.201907 -0.203240
C17   C     C_R   0.445268 0.520993 0.813255 -0.249462
C18   C     C_R   0.556485 0.485386 0.186878 -0.246826
C19   C     C_R   0.392608 0.494776 0.903741 0.083036
C20   C     C_R   0.602233 0.529554 0.098944 0.081819
C21   C     C_R   0.201599 0.418104 0.941260 0.151950
C22   C     C_R   0.789512 0.616217 0.062889 0.149637
C23   C     C_R   0.525362 0.537428 0.957120 0.059687
C24   C     C_R   0.467075 0.492724 0.046552 0.061472
Cu1   Cu    Cu3+1 0.322120 0.483240 0.490330 0.944733
Cu2   Cu    Cu3+1 0.677880 0.516760 0.509670 0.943982
H1    H     H_    0.999509 0.321543 0.058564 0.155063
H2    H     H_    0.984407 0.730918 0.948503 0.152791
H3    H     H_    0.419245 0.415533 0.217697 0.145693
H4    H     H_    0.590032 0.571270 0.780195 0.149877
H5    H     H_    0.973024 0.654549 0.241281 0.158914
H6    H     H_    0.020331 0.372408 0.762016 0.158518
H7    H     H_    0.921634 0.321627 0.918930 0.146093
H8    H     H_    0.065702 0.723387 0.086687 0.146164
N1    N     N_2   0.945180 0.542040 0.524240 -0.218642
N2    N     N_2   0.054820 0.457960 0.475760 -0.218373
O1    O     O_R   0.384450 0.714270 0.493720 -0.581100
O2    O     O_R   0.615550 0.285730 0.506280 -0.581115
O3    O     O_R   0.684880 0.742590 0.510050 -0.585909
O4    O     O_R   0.315120 0.257410 0.489950 -0.585818
O5    O     O_R   0.265540 0.477900 0.617090 -0.590723
O6    O     O_R   0.734460 0.522100 0.382910 -0.591052
O7    O     O_R   0.565970 0.506210 0.633420 -0.584237
O8    O     O_R   0.434030 0.493790 0.366580 -0.582364
H9    H     H_    0.216783 0.382939 0.148239 0.145751
H10   H     H_    0.766228 0.669842 0.859085 0.144429
H11   H     H_    0.706341 0.039327 0.511118 0.178946
H12   H     H_    0.293686 0.960671 0.488847 0.178996
H13   H     H_    0.003991 0.615146 0.568830 0.223828
H14   H     H_    0.996007 0.384850 0.431172 0.223976

loop_
_geom_bond_atom_site_label_1
_geom_bond_atom_site_label_2
_ccdc_geom_bond_type
C14   H8    S    
C19   C23   A    
C23   C24   A    
C8    H12   S    
C13   H7    S    
C6    H2    S    
C10   O6    A    
C2    O2    A    
C9    O5    A    
N1    N2    D    
C10   O8    A    
C1    O1    A    
C3    C5    A    
C14   C22   A    
C13   C21   A    
C7    C8    D    
C18   H3    S    
C4    H10   S    
C16   H5    S    
C17   H4    S    
C9    C11   S    
C3    C24   A    
C10   C12   S    
C1    C7    S    
N1    H13   S    
Cu1   O8    S    
C17   C19   A    
C20   C22   A    
Cu2   O7    S    
C18   C20   A    
C13   C15   A    
Cu1   O4    S    
C14   C16   A    
Cu2   O3    S    
C9    O7    A    
C1    O3    A    
Cu1   N2    S    
Cu1   O5    S    
C6    C22   A    
C2    O4    A    
Cu2   N1    S    
C15   H6    S    
N2    H14   S    
Cu2   O6    S    
C4    C6    A    
C12   C18   A    
C4    C23   A    
C20   C24   A    
Cu2   O2    S    
C2    C8    S    
Cu1   O1    S    
Cu1   Cu2   S    
C5    H1    S    
C11   C15   A    
C3    H9    S    
C11   C17   A    
C12   C16   A    
C19   C21   A    
C5    C21   A    
C7    H11   S    
