data_str_m3_o1_o10_f0_pcu.sym.176
_audit_creation_date              2012-12-10T18:42:30-0500
_audit_creation_method            fapswitch 2.2
_symmetry_space_group_name_H-M    P1
_symmetry_Int_Tables_number       1
_space_group_crystal_system       triclinic
_cell_length_a                    8.729471
_cell_length_b                    10.658525
_cell_length_c                    9.832592
_cell_angle_alpha                 90.418592
_cell_angle_beta                  98.770774
_cell_angle_gamma                 88.909439
_cell_volume                      903.98583451

loop_
_atom_site_label
_atom_site_type_symbol
_atom_type_description
_atom_site_fract_x
_atom_site_fract_y
_atom_site_fract_z
_atom_type_partial_charge
C1    C     C_R   0.506638 0.260165 0.500296 0.976815
C2    C     C_R   0.492906 0.739855 0.499641 0.979406
C3    C     C_R   0.201877 0.498932 0.464533 0.964762
C4    C     C_R   0.798150 0.500140 0.535527 0.946275
C5    C     C_2   0.039145 0.488397 0.446041 -0.242825
C6    C     C_2   0.961025 0.508950 0.554403 -0.256310
C7    C     C_R   0.620121 0.057591 0.443111 0.410456
C8    C     C_R   0.379135 0.942555 0.556378 0.477630
C9    C     C_R   0.610889 0.928817 0.443838 -0.318370
C10   C     C_R   0.388973 0.071303 0.556327 -0.292287
C11   C     C_R   0.492550 0.872344 0.500340 -0.217055
C12   C     C_R   0.507157 0.127727 0.499709 -0.223726
C13   C     C_R   0.586476 0.583962 0.084289 -0.032333
C14   C     C_R   0.413629 0.415966 0.915731 -0.039705
C15   C     C_R   0.586493 0.583889 0.940346 -0.011382
C16   C     C_R   0.413587 0.416056 0.059668 -0.021228
H1    H     H_    0.696990 0.871615 0.402269 0.191873
H2    H     H_    0.302657 0.128669 0.597367 0.207521
H3    H     H_    0.655836 0.650908 0.148762 0.133282
H4    H     H_    0.344343 0.348968 0.851273 0.140436
H5    H     H_    0.655748 0.650832 0.895608 0.139753
H6    H     H_    0.344421 0.349053 0.104420 0.139412
N1    N     N_R   0.499960 0.499970 0.857200 -0.088316
N2    N     N_R   0.500040 0.500030 0.142800 -0.083841
O1    O     O_R   0.499990 0.316750 0.614620 -0.633829
O2    O     O_R   0.500010 0.683250 0.385380 -0.631677
O3    O     O_R   0.499990 0.316780 0.385290 -0.584407
O4    O     O_R   0.500010 0.683220 0.614710 -0.587231
O5    O     O_R   0.271750 0.499990 0.587840 -0.603967
O6    O     O_R   0.728250 0.500010 0.412160 -0.608071
O7    O     O_R   0.271750 0.500010 0.358510 -0.632185
O8    O     O_R   0.728250 0.499990 0.641490 -0.632456
Zn1   Zn    Zn3+2 0.500000 0.499980 0.653120 1.018196
Zn2   Zn    Zn3+2 0.500000 0.500020 0.346880 1.017479
C17   C     C_1   0.970473 0.447551 0.308456 0.353023
N3    N     N_1   0.917632 0.415599 0.198818 -0.125734
C18   C     C_1   0.029721 0.549214 0.692257 0.309629
N4    N     N_1   0.082559 0.580751 0.802055 -0.133771
S1    S     S_3+6 0.776397 0.126536 0.376972 0.048288
O9    O     O_2   0.854911 0.217606 0.480932 -0.299191
O10   O     O_2   0.893025 0.028464 0.347218 -0.263334
O11   O     O_3   0.708740 0.203438 0.230829 -0.520845
H7    H     H_    0.649004 0.140485 0.171119 0.346739
S2    S     S_3+6 0.218777 0.874121 0.616463 0.043259
O12   O     O_2   0.274193 0.797532 0.742626 -0.280268
O13   O     O_2   0.107298 0.974162 0.651829 -0.270168
O14   O     O_3   0.127831 0.781183 0.492013 -0.582401
H8    H     H_    0.017883 0.782060 0.506197 0.372679

loop_
_geom_bond_atom_site_label_1
_geom_bond_atom_site_label_2
_ccdc_geom_bond_type
C14   N1    A    
C3    O7    A    
C18   N4    T    
C14   H4    S    
C2    O4    A    
C16   N2    A    
O14   H8    S    
S2    O14   S    
O6    Zn2   S    
O8    Zn1   S    
C15   N1    A    
O7    Zn2   S    
C2    O2    A    
C1    O1    A    
C9    C11   A    
C3    O5    A    
C4    O8    A    
C1    C12   S    
C10   C12   A    
C10   H2    S    
C8    C11   A    
C2    C11   S    
C5    C17   S    
C4    C6    S    
S2    O13   D    
O4    Zn1   S    
S1    O11   S    
C7    C9    A    
C13   C15   A    
O3    Zn2   S    
C5    C6    D    
C14   C16   A    
C7    C12   A    
C6    C18   S    
O11   H7    S    
C13   H3    S    
O5    Zn1   S    
C15   H5    S    
S2    O12   D    
S1    O10   D    
C9    H1    S    
S1    O9    D    
C1    O3    A    
C7    S1    S    
C16   H6    S    
N1    Zn1   S    
O2    Zn2   S    
C8    C10   A    
C4    O6    A    
C8    S2    S    
C13   N2    A    
O1    Zn1   S    
C3    C5    S    
C17   N3    T    
N2    Zn2   S    
