data_str_m9_o2_o18_f0_sra.sym.86
_audit_creation_date              2013-03-05T16:02:17-0500
_audit_creation_method            fapswitch 2.2
_symmetry_space_group_name_H-M    P1
_symmetry_Int_Tables_number       1
_space_group_crystal_system       triclinic
_cell_length_a                    21.952218
_cell_length_b                    6.914135
_cell_length_c                    14.789623
_cell_angle_alpha                 89.400842
_cell_angle_beta                  105.61269
_cell_angle_gamma                 91.706643
_cell_volume                      2160.98626395

loop_
_atom_site_label
_atom_site_type_symbol
_atom_site_description
_atom_site_fract_x
_atom_site_fract_y
_atom_site_fract_z
_atom_type_partial_charge
O1    O     O_R   0.835850 0.638310 0.002120 -0.564160
O2    O     O_R   0.164150 0.361690 0.997880 -0.551388
O3    O     O_R   0.664150 0.138310 0.997880 -0.603141
O4    O     O_R   0.335850 0.861690 0.002120 -0.605349
O5    O     O_R   0.717530 0.306070 0.861970 -0.594839
O6    O     O_R   0.282470 0.693930 0.138030 -0.571589
O7    O     O_R   0.782470 0.806070 0.138030 -0.552703
O8    O     O_R   0.217530 0.193930 0.861970 -0.539729
C1    C     C_R   0.703979 0.476168 0.824226 0.951846
C2    C     C_R   0.299774 0.523895 0.174610 0.959922
C3    C     C_R   0.799013 0.976533 0.175055 0.973310
C4    C     C_R   0.204496 0.022167 0.824076 0.967148
O9    O     O_R   0.838690 0.308440 0.993250 -0.607093
O10   O     O_R   0.161310 0.691560 0.006750 -0.604190
O11   O     O_R   0.661310 0.808440 0.006750 -0.557063
O12   O     O_R   0.338690 0.191560 0.993250 -0.568120
O13   O     O_R   0.786170 0.140510 0.130090 -0.572420
O14   O     O_R   0.213830 0.859490 0.869910 -0.597711
O15   O     O_R   0.713830 0.640510 0.869910 -0.535582
O16   O     O_R   0.286170 0.359490 0.130090 -0.547391
C5    C     C_R   0.864519 0.481810 0.993463 0.978195
C6    C     C_R   0.134363 0.520229 0.001738 1.000443
C7    C     C_R   0.634377 0.975428 0.002701 1.011824
C8    C     C_R   0.364696 0.025780 0.993043 0.983306
O17   O     O_3   0.732630 0.472520 0.044740 -0.260865
O18   O     O_3   0.267370 0.527480 0.955260 -0.281229
O19   O     O_3   0.767370 0.972520 0.955260 -0.279432
O20   O     O_3   0.232630 0.027480 0.044740 -0.256812
V1    V     V_3+5 0.753220 0.196740 0.991700 1.231654
V2    V     V_3+5 0.246780 0.803260 0.008300 1.238034
V3    V     V_3+5 0.746780 0.696740 0.008300 1.282966
V4    V     V_3+5 0.253220 0.303260 0.991700 1.278004
H1    H     H_    0.603288 0.923059 0.325931 0.156657
H2    H     H_    0.410261 0.198412 0.679246 0.158443
H3    H     H_    0.902138 0.694974 0.681648 0.157008
H4    H     H_    0.105449 0.419083 0.325062 0.154058
C9    C     C_R   0.534121 0.987670 0.827814 0.323875
C10   C     C_R   0.462417 0.981873 0.170207 0.318661
C11   C     C_R   0.963265 0.451876 0.169950 0.312700
C12   C     C_R   0.032967 0.511503 0.827101 0.319315
C13   C     C_R   0.495312 0.061355 0.745397 -0.281031
C14   C     C_R   0.506337 0.929363 0.252795 -0.285934
C15   C     C_R   0.008534 0.404125 0.251851 -0.278649
C16   C     C_R   0.991218 0.577548 0.745276 -0.273499
C17   C     C_R   0.438762 0.141764 0.745174 -0.196493
C18   C     C_R   0.569721 0.935461 0.257514 -0.157956
C19   C     C_R   0.071651 0.428469 0.256708 -0.153151
C20   C     C_R   0.932922 0.642755 0.746838 -0.198945
C21   C     C_R   0.417109 0.140005 0.826032 0.232245
C22   C     C_R   0.589930 0.984875 0.178362 0.252897
C23   C     C_R   0.090481 0.492757 0.178338 0.245231
C24   C     C_R   0.912794 0.631950 0.828933 0.217386
C25   C     C_R   0.455373 0.060515 0.912722 0.056272
C26   C     C_R   0.545875 0.985780 0.087387 0.060333
C27   C     C_R   0.046377 0.491383 0.087302 0.063507
C28   C     C_R   0.953470 0.554084 0.913848 0.059624
C29   C     C_R   0.518541 0.007978 0.914767 -0.046929
C30   C     C_R   0.479932 0.994849 0.083565 -0.059156
C31   C     C_R   0.980361 0.478591 0.083624 -0.060718
C32   C     C_R   0.017747 0.521687 0.914743 -0.049157
C33   C     C_R   0.434052 0.029548 0.995975 -0.237100
C34   C     C_R   0.565245 0.983182 0.002137 -0.233759
C35   C     C_R   0.065414 0.506031 0.001781 -0.231482
C36   C     C_R   0.933463 0.506467 0.996520 -0.237495
H5    H     H_    0.507761 0.048878 0.679640 0.179209
H6    H     H_    0.492560 0.916299 0.317702 0.177839
H7    H     H_    0.995142 0.382206 0.316629 0.176943
H8    H     H_    0.002967 0.571175 0.678770 0.179312
C37   C     C_R   0.177799 0.011837 0.721323 -0.060939
C38   C     C_R   0.829470 0.983202 0.277222 -0.027840
C39   C     C_R   0.330796 0.514930 0.276484 -0.023781
C40   C     C_R   0.677885 0.483501 0.721256 -0.058357
C41   C     C_R   0.191613 0.008286 0.564453 -0.150864
C42   C     C_R   0.821606 0.962906 0.436972 -0.165960
C43   C     C_R   0.322951 0.480353 0.435715 -0.164484
C44   C     C_R   0.692530 0.492529 0.564705 -0.154671
C45   C     C_R   0.217226 0.008948 0.661454 -0.212516
C46   C     C_R   0.795201 0.933061 0.341439 -0.204410
C47   C     C_R   0.296372 0.459187 0.339679 -0.197270
C48   C     C_R   0.717660 0.481903 0.661814 -0.209556
C49   C     C_R   0.112238 0.006344 0.682744 -0.082030
C50   C     C_R   0.894519 0.025943 0.311025 -0.060734
C51   C     C_R   0.396101 0.553317 0.310877 -0.075809
C52   C     C_R   0.612520 0.489277 0.682064 -0.085695
C53   C     C_R   0.084967 0.021542 0.584711 0.050313
C54   C     C_R   0.924803 0.025180 0.408801 0.040018
C55   C     C_R   0.426405 0.543067 0.408499 0.041963
C56   C     C_R   0.586013 0.515553 0.584429 0.052050
C57   C     C_R   0.125538 0.014151 0.524536 0.124662
C58   C     C_R   0.885675 0.020307 0.471350 0.143718
C59   C     C_R   0.387262 0.534114 0.471020 0.144030
C60   C     C_R   0.626708 0.508495 0.524456 0.123620
C61   C     C_R   0.018451 0.038617 0.545448 0.016380
C62   C     C_R   0.992071 0.026602 0.446540 0.006283
C63   C     C_R   0.493640 0.538839 0.446199 0.006858
C64   C     C_R   0.519919 0.541625 0.545259 0.016190
C65   C     C_R   0.033433 0.006266 0.389111 -0.218544
C66   C     C_R   0.977791 0.075597 0.602244 -0.236932
C67   C     C_R   0.479607 0.578040 0.602565 -0.240247
C68   C     C_R   0.534933 0.520724 0.388529 -0.215015
C69   C     C_R   0.099241 0.006961 0.426287 0.240534
C70   C     C_R   0.912162 0.068533 0.566485 0.244364
C71   C     C_R   0.414010 0.575601 0.566850 0.240232
C72   C     C_R   0.600631 0.511559 0.425999 0.236631
H9    H     H_    0.920323 0.057208 0.259755 0.120316
H10   H     H_    0.083255 0.983139 0.730240 0.144867
H11   H     H_    0.582918 0.464513 0.728556 0.146669
H12   H     H_    0.422059 0.589485 0.260327 0.120236
H13   H     H_    0.747735 0.873215 0.318537 0.126454
H14   H     H_    0.267886 0.001948 0.689031 0.124003
H15   H     H_    0.768160 0.468045 0.689936 0.125439
H16   H     H_    0.248739 0.401292 0.315661 0.125055
H17   H     H_    0.224337 0.003055 0.521452 0.141512
H18   H     H_    0.792199 0.930650 0.483557 0.131374
H19   H     H_    0.293417 0.444289 0.481650 0.129417
H20   H     H_    0.725350 0.487566 0.521842 0.142104
H21   H     H_    0.015471 0.987745 0.314293 0.163040
H22   H     H_    0.996168 0.115376 0.675112 0.185729
H23   H     H_    0.498304 0.612632 0.675990 0.190276
H24   H     H_    0.516892 0.510327 0.313323 0.165550
N1    N     N_R   0.582903 0.863104 0.819251 0.209051
O21   O     O_R   0.618193 0.909337 0.763887 -0.424375
O22   O     O_R   0.582321 0.686772 0.850507 -0.461547
N2    N     N_R   0.407907 0.074223 0.181904 0.226363
O23   O     O_R   0.373381 0.990836 0.230870 -0.415398
O24   O     O_R   0.406631 0.260847 0.171801 -0.450645
N3    N     N_R   0.907342 0.532273 0.183119 0.228703
O25   O     O_R   0.873645 0.436866 0.229612 -0.419218
O26   O     O_R   0.904014 0.719223 0.178126 -0.451336
N4    N     N_R   0.083888 0.398126 0.816936 0.213334
O27   O     O_R   0.116754 0.452221 0.759337 -0.424314
O28   O     O_R   0.086546 0.220608 0.847238 -0.461534
C73   C     C_3   0.355769 0.239278 0.815805 -0.933736
H25   H     H_    0.335106 0.296223 0.744066 0.229014
H26   H     H_    0.320492 0.133001 0.826926 0.203004
H27   H     H_    0.363040 0.364402 0.864238 0.273727
C74   C     C_3   0.655812 0.066456 0.197193 -1.013767
H28   H     H_    0.675874 0.104331 0.272176 0.241440
H29   H     H_    0.684881 0.955687 0.178237 0.217990
H30   H     H_    0.656557 0.203834 0.158136 0.272781
C75   C     C_3   0.154241 0.589945 0.198626 -1.000206
H31   H     H_    0.174227 0.618749 0.274474 0.237054
H32   H     H_    0.185708 0.493044 0.175580 0.218489
H33   H     H_    0.151071 0.734068 0.164441 0.273488
C76   C     C_3   0.850856 0.723921 0.823150 -0.915848
H34   H     H_    0.829741 0.791961 0.753970 0.229648
H35   H     H_    0.816560 0.611290 0.831016 0.203007
H36   H     H_    0.857624 0.839668 0.876556 0.273651
C77   C     C_3   0.140381 0.993728 0.359658 -1.001323
H37   H     H_    0.172136 0.123937 0.366841 0.243286
H38   H     H_    0.169399 0.863047 0.376362 0.251094
H39   H     H_    0.112120 0.983948 0.285170 0.266856
C78   C     C_3   0.873334 0.129792 0.631028 -1.022013
H40   H     H_    0.821990 0.136265 0.596882 0.249002
H41   H     H_    0.881329 0.031878 0.692413 0.261010
H42   H     H_    0.888951 0.277756 0.657246 0.264117
C79   C     C_3   0.375808 0.636042 0.632341 -1.021367
H43   H     H_    0.324051 0.632297 0.600911 0.249667
H44   H     H_    0.387159 0.544552 0.696085 0.263223
H45   H     H_    0.389303 0.787486 0.654616 0.264655
C80   C     C_3   0.641713 0.498192 0.359272 -0.997266
H46   H     H_    0.675549 0.623741 0.369699 0.241784
H47   H     H_    0.668318 0.362288 0.372555 0.252032
H48   H     H_    0.613571 0.498156 0.284588 0.266283

loop_
_geom_bond_atom_site_label_1
_geom_bond_atom_site_label_2
_geom_bond_distance
_ccdc_geom_bond_type
O17   V3    1.683532 S    
C51   C55   1.419779 A    
C4    C37   1.475930 S    
C56   C64   1.426259 A    
O1    C5    1.292343 A    
C24   C76   1.499390 S    
C12   C32   1.425870 A    
C27   C31   1.435603 A    
O19   V1    1.710728 S    
O13   V1    2.016608 S    
C37   C45   1.395493 A    
O3    C7    1.296195 A    
C63   C64   1.422873 A    
C1    C40   1.476634 S    
C68   C72   1.401995 A    
O15   V3    2.016554 S    
C76   H36   1.108771 S    
C39   C47   1.395861 A    
C76   H34   1.109348 S    
C3    C38   1.479243 S    
C29   C34   1.429334 A    
O7    C3    1.304532 A    
C74   H29   1.096471 S    
C31   C36   1.431553 A    
C61   C62   1.423291 A    
C47   H16   1.076058 S    
C32   C35   1.429166 A    
O9    V1    2.002057 S    
C10   C14   1.389606 A    
C55   C59   1.421433 A    
C75   H32   1.096029 S    
C26   C30   1.436637 A    
O4    C8    1.306130 A    
C38   C46   1.396532 A    
C42   H18   1.081089 S    
C64   C67   1.409361 A    
O1    V3    2.034384 S    
C52   H11   1.075079 S    
C41   H17   1.081553 S    
C51   H12   1.078471 S    
H4    C19   1.083721 S    
O2    V4    2.034386 S    
C14   C18   1.373678 A    
C50   H9    1.078436 S    
O3    V1    2.010741 S    
C41   C45   1.392848 A    
C58   C70   1.409554 A    
C5    C36   1.506559 S    
C21   C73   1.500136 S    
C54   C62   1.431016 A    
C80   H47   1.108929 S    
C6    C35   1.514007 S    
C10   C30   1.434774 A    
C53   C61   1.426783 A    
C1    O15   1.310409 A    
C7    C34   1.517910 S    
C56   C60   1.420269 A    
C2    O16   1.305547 A    
C27   C35   1.436655 A    
O2    C6    1.302496 A    
C73   H27   1.109149 S    
C28   C36   1.438151 A    
C68   H24   1.077965 S    
C78   H41   1.105349 S    
C12   C16   1.389004 A    
C39   C51   1.404281 A    
C43   C59   1.407092 A    
C2    C39   1.478488 S    
C30   C33   1.433765 A    
O11   C7    1.306279 A    
O12   C8    1.296054 A    
C9    C13   1.387444 A    
C79   H43   1.105394 S    
H1    C18   1.083889 S    
C25   C33   1.442105 A    
O10   V2    2.002055 S    
H3    C20   1.083118 S    
C76   H35   1.094144 S    
C66   H22   1.079521 S    
O5    V1    2.015518 S    
C23   C75   1.490910 S    
O17   V1    2.174611 S    
C9    C29   1.426132 A    
C74   H30   1.108524 S    
C22   C74   1.491731 S    
C11   N3    1.423253 S    
O19   V3    2.136280 S    
O8    V4    2.013063 S    
C37   C49   1.397676 A    
C44   C48   1.395040 A    
O20   V4    2.136281 S    
O7    V3    2.013065 S    
C67   C71   1.393624 A    
C54   C58   1.421273 A    
C77   H39   1.110962 S    
C72   C80   1.510533 S    
C53   C57   1.420623 A    
C63   C68   1.410682 A    
C71   C79   1.510845 S    
C13   H5    1.083579 S    
C26   C34   1.435373 A    
C62   C65   1.410974 A    
C66   C70   1.394252 A    
O4    V2    2.010739 S    
C28   C32   1.431792 A    
C55   C63   1.431587 A    
N4    O28   1.299769 A    
N3    O26   1.297046 A    
O5    C1    1.304217 A    
C17   C21   1.400534 A    
O8    C4    1.309087 A    
C11   C31   1.433133 A    
O9    C5    1.310350 A    
H2    C17   1.083421 S    
C22   C26   1.430200 A    
C78   H42   1.109217 S    
C70   C78   1.511635 S    
N1    O21   1.301540 A    
C40   C52   1.397073 A    
C44   C60   1.414045 A    
C8    C33   1.510878 S    
C9    N1    1.426476 S    
C15   H7    1.083126 S    
O6    V2    2.015519 S    
O18   V2    2.174611 S    
C79   H45   1.108565 S    
C73   H25   1.108746 S    
C75   H33   1.108189 S    
C43   H19   1.080730 S    
N3    O25   1.300136 A    
C10   N2    1.424354 S    
C80   H48   1.111026 S    
N2    O24   1.297676 A    
O16   V4    2.016554 S    
C12   N4    1.425403 S    
C49   H10   1.075222 S    
C3    O13   1.307474 A    
C25   C29   1.436300 A    
C57   C69   1.412585 A    
C52   C56   1.416059 A    
C59   C71   1.409354 A    
O6    C2    1.312177 A    
C19   C23   1.395719 A    
O11   V3    2.044531 S    
O18   V4    1.683531 S    
O12   V4    2.044533 S    
C74   H28   1.108457 S    
C18   C22   1.395001 A    
C42   C58   1.407199 A    
C77   H38   1.108205 S    
N4    O27   1.301615 A    
C41   C57   1.412869 A    
O20   V2    1.710729 S    
C40   C48   1.396182 A    
C80   H46   1.109854 S    
C77   H37   1.110176 S    
C50   C54   1.419756 A    
O10   C6    1.302004 A    
C43   C47   1.390114 A    
C21   C25   1.443790 A    
C48   H15   1.080946 S    
C69   C77   1.510251 S    
C44   H20   1.081612 S    
C46   H13   1.076545 S    
C23   C27   1.431183 A    
C65   H21   1.077673 S    
C45   H14   1.078935 S    
C38   C50   1.403568 A    
C65   C69   1.400500 A    
N1    O22   1.300279 A    
C16   H8    1.083552 S    
C60   C72   1.414172 A    
O14   V2    2.016608 S    
C67   H23   1.079161 S    
C16   C20   1.375504 A    
C20   C24   1.399948 A    
C11   C15   1.388163 A    
C79   H44   1.105212 S    
C42   C46   1.390326 A    
C4    O14   1.299854 A    
C14   H6    1.083493 S    
C73   H26   1.094933 S    
C13   C17   1.374423 A    
C78   H40   1.106143 S    
C75   H31   1.106826 S    
C15   C19   1.373338 A    
C61   C66   1.410431 A    
C49   C53   1.415954 A    
C24   C28   1.440564 A    
N2    O23   1.300772 A    
