data_str_m12_o9_o22_f0_bcu.sym.83
_audit_creation_date              2012-12-11T17:45:34-0500
_audit_creation_method            fapswitch 2.2
_symmetry_space_group_name_H-M    P1
_symmetry_Int_Tables_number       1
_space_group_crystal_system       triclinic
_cell_length_a                    15.507237
_cell_length_b                    15.323063
_cell_length_c                    15.285088
_cell_angle_alpha                 109.401484
_cell_angle_beta                  109.971948
_cell_angle_gamma                 109.632307
_cell_volume                      2775.25854071

loop_
_atom_site_label
_atom_site_type_symbol
_atom_type_description
_atom_site_fract_x
_atom_site_fract_y
_atom_site_fract_z
_atom_type_partial_charge
C1    C     C_R   0.974077 0.249440 0.061965 -0.146841
C2    C     C_R   0.321864 0.823446 0.324542 0.057306
C3    C     C_R   0.318315 0.505408 0.982316 0.049865
C4    C     C_R   0.951980 0.494842 0.306913 0.061608
C5    C     C_R   0.698287 0.407703 0.993471 0.247276
C6    C     C_R   0.010078 0.586733 0.781482 -0.112548
C7    C     C_R   0.799893 0.199056 0.705072 -0.129863
C8    C     C_R   0.992453 0.795946 0.084697 -0.132024
C9    C     C_R   0.088131 0.801588 0.003170 -0.158703
C10   C     C_R   0.704272 0.194761 0.785441 -0.146302
C11   C     C_R   0.785859 0.588426 0.082902 -0.240619
C12   C     C_R   0.309029 0.782530 0.221320 -0.144772
C13   C     C_R   0.935828 0.408659 0.687089 -0.134461
C14   C     C_R   0.689525 0.497323 0.040670 0.039293
C15   C     C_R   0.945607 0.498680 0.677992 0.038869
C16   C     C_R   0.709495 0.134135 0.698097 0.081553
C17   C     C_R   0.050350 0.859996 0.055576 0.071496
C18   C     C_R   0.689400 0.117685 0.149979 0.624425
C19   C     C_R   0.718830 0.218290 0.230088 -0.317920
C20   C     C_R   0.826515 0.292612 0.309179 0.046542
C21   C     C_R   0.902757 0.261157 0.316977 -0.203784
C22   C     C_R   0.871070 0.156494 0.247320 -0.182238
C23   C     C_R   0.218824 0.413193 0.927465 -0.216074
C24   C     C_R   0.765844 0.085681 0.163192 -0.274979
C25   C     C_R   0.853491 0.410693 0.479623 -0.247657
C26   C     C_R   0.926048 0.504845 0.579562 0.067273
C27   C     C_R   0.994736 0.596865 0.583892 0.033417
C28   C     C_R   0.988515 0.593265 0.490611 -0.261395
C29   C     C_R   0.929751 0.495048 0.393979 0.059399
C30   C     C_R   0.862062 0.401538 0.389347 0.068376
C31   C     C_R   0.083611 0.788039 0.722029 -0.218331
C32   C     C_R   0.169798 0.879031 0.818562 -0.151057
C33   C     C_R   0.258430 0.875995 0.879985 -0.102965
C34   C     C_R   0.004463 0.586272 0.302387 -0.135151
C35   C     C_R   0.263435 0.782030 0.841509 -0.112576
C36   C     C_R   0.178181 0.690528 0.743331 -0.175838
C37   C     C_R   0.086755 0.693057 0.684635 0.118209
C38   C     C_R   0.261030 0.998387 0.598086 -0.146949
C39   C     C_R   0.329151 0.992158 0.559542 -0.153940
C40   C     C_R   0.357658 0.913521 0.553558 0.127674
C41   C     C_R   0.318884 0.841896 0.586212 -0.203349
C42   C     C_R   0.250904 0.848596 0.624268 -0.118960
C43   C     C_R   0.221045 0.926111 0.630058 -0.082675
C44   C     C_R   0.541376 0.972501 0.617217 -0.240003
C45   C     C_R   0.310148 0.593329 0.029289 -0.078849
C46   C     C_R   0.628317 0.024715 0.609329 0.046481
C47   C     C_R   0.616358 0.991019 0.506240 0.025784
C48   C     C_R   0.515915 0.929912 0.416277 -0.239151
C49   C     C_R   0.425745 0.894147 0.425141 0.059517
C50   C     C_R   0.439895 0.917251 0.528102 0.037008
C51   C     C_R   0.722842 0.096260 0.451252 -0.190418
C52   C     C_R   0.806321 0.125322 0.431642 -0.129734
C53   C     C_R   0.868909 0.077006 0.441802 -0.049857
C54   C     C_R   0.848284 0.000293 0.474271 -0.121182
C55   C     C_R   0.767240 0.973346 0.498136 -0.154289
C56   C     C_R   0.916614 0.407296 0.210563 -0.151620
C57   C     C_R   0.704731 0.021764 0.486782 0.121001
C58   C     C_3   0.491020 0.389585 0.940689 -0.404726
C59   C     C_3   0.391674 0.395527 0.921117 -0.625204
C60   C     C_3   0.593549 0.544689 0.139391 -0.077802
C61   C     C_3   0.581578 0.576218 0.982559 -0.510165
C62   C     C_3   0.591440 0.500400 0.028900 0.189207
C63   C     C_3   0.418979 0.509207 0.998843 0.053721
C64   C     C_3   0.482779 0.531107 0.116523 0.492019
C65   C     C_3   0.487945 0.595764 0.979098 0.707182
C66   C     C_R   0.155020 0.112751 0.792340 0.111256
C67   C     C_R   0.221775 0.773958 0.313136 -0.143430
C68   C     C_R   0.109624 0.098711 0.856190 0.423720
C69   C     C_R   0.176620 0.130691 0.964674 -0.066779
C70   C     C_R   0.283878 0.160471 0.002248 -0.255838
C71   C     C_R   0.323842 0.157769 0.933425 -0.205341
C72   C     C_R   0.261088 0.136694 0.830295 -0.196920
C73   C     C_R   0.128730 0.016089 0.035780 -0.281349
C74   C     C_R   0.076083 0.971687 0.081057 0.066247
C75   C     C_R   0.043600 0.032273 0.140461 0.056317
C76   C     C_R   0.057445 0.128770 0.145755 -0.272301
C77   C     C_R   0.088272 0.159523 0.080359 0.074667
C78   C     C_R   0.073741 0.265331 0.984968 0.012514
C79   C     C_R   0.131716 0.105639 0.030030 0.124873
C80   C     C_R   0.866164 0.926011 0.107137 -0.184427
C81   C     C_R   0.800678 0.870739 0.136057 -0.191559
C82   C     C_R   0.843663 0.872861 0.233420 -0.160543
C83   C     C_R   0.954198 0.932088 0.302966 0.286513
C84   C     C_R   0.019814 0.996928 0.279193 -0.248642
C85   C     C_R   0.975851 0.988621 0.178595 0.079211
C86   C     C_R   0.052640 0.228793 0.050298 0.044663
H1    H     H_    0.938158 0.231569 0.107693 0.114668
H2    H     H_    0.024249 0.666876 0.806182 0.132880
H3    H     H_    0.840605 0.176420 0.665328 0.128148
H4    H     H_    0.959140 0.813379 0.133867 0.150284
H5    H     H_    0.148759 0.830794 0.984182 0.116228
H6    H     H_    0.643569 0.163528 0.803164 0.085302
H7    H     H_    0.811309 0.670805 0.134457 0.130811
H8    H     H_    0.890980 0.325881 0.623262 0.109807
H9    H     H_    0.742746 0.005899 0.107454 0.125094
H10   H     H_    0.659349 0.241033 0.226801 0.152983
H11   H     H_    0.365662 0.805950 0.196289 0.096356
H12   H     H_    0.985413 0.316133 0.380446 0.134941
H13   H     H_    0.928426 0.130872 0.260153 0.157103
H14   H     H_    0.801688 0.339309 0.475508 0.122887
H15   H     H_    0.043142 0.665859 0.499069 0.129078
H16   H     H_    0.014884 0.791586 0.676274 0.102954
H17   H     H_    0.167263 0.951776 0.844785 0.130454
H18   H     H_    0.323687 0.947034 0.956422 0.136096
H19   H     H_    0.333461 0.780521 0.886916 0.109740
H20   H     H_    0.182164 0.617668 0.713897 0.121197
H21   H     H_    0.166081 0.929004 0.657577 0.119015
H22   H     H_    0.194510 0.331258 0.877378 0.135293
H23   H     H_    0.237850 0.057578 0.600476 0.127480
H24   H     H_    0.360914 0.049246 0.535965 0.113905
H25   H     H_    0.343338 0.782948 0.584682 0.120358
H26   H     H_    0.223471 0.793877 0.650024 0.154072
H27   H     H_    0.550087 0.991192 0.695615 0.132204
H28   H     H_    0.510876 0.911718 0.339745 0.133430
H29   H     H_    0.674018 0.133703 0.441493 0.121476
H30   H     H_    0.822266 0.186472 0.410114 0.146254
H31   H     H_    0.932805 0.099451 0.424655 0.103895
H32   H     H_    0.896121 0.963270 0.483978 0.096209
H33   H     H_    0.029053 0.666410 0.356378 0.101382
H34   H     H_    0.752880 0.914581 0.524350 0.109139
H35   H     H_    0.485400 0.328567 0.963646 0.205118
H36   H     H_    0.491280 0.360958 0.863252 0.170414
H37   H     H_    0.341679 0.367766 0.835065 0.205359
H38   H     H_    0.345303 0.337764 0.938038 0.221351
H39   H     H_    0.433264 0.457394 0.114269 0.033472
H40   H     H_    0.656656 0.655326 0.032529 0.170497
H41   H     H_    0.573623 0.540671 0.901095 0.180853
H42   H     H_    0.370819 0.676010 0.080232 0.151289
H43   H     H_    0.650900 0.633052 0.183600 0.143079
H44   H     H_    0.297552 0.142747 0.782380 0.157392
H45   H     H_    0.334088 0.177179 0.082303 0.157718
H46   H     H_    0.403548 0.171680 0.959944 0.161066
H47   H     H_    0.159756 0.975765 0.994609 0.131082
H48   H     H_    0.031363 0.172941 0.191002 0.129262
H49   H     H_    0.861218 0.324175 0.175962 0.130671
H50   H     H_    0.831771 0.918323 0.028341 0.121934
H51   H     H_    0.717103 0.823384 0.080285 0.146442
H52   H     H_    0.791654 0.823137 0.250945 0.133782
H53   H     H_    0.105491 0.042110 0.331937 0.132316
H54   H     H_    0.199917 0.783656 0.373474 0.132461
H55   H     H_    0.139029 0.276303 0.972684 0.085473
N1    N     N_R   0.947080 0.293830 0.002870 -0.046806
N2    N     N_R   0.054040 0.556820 0.847890 -0.046967
N3    N     N_R   0.848290 0.293830 0.791110 -0.043028
N4    N     N_R   0.995680 0.706170 0.053910 -0.040968
N5    N     N_R   0.052920 0.706170 0.997130 -0.042583
N6    N     N_R   0.791050 0.293830 0.847890 -0.049815
N7    N     N_R   0.846330 0.556820 0.053910 -0.046166
N8    N     N_R   0.997640 0.443180 0.791110 -0.041967
N9    N     N_R   0.208950 0.706170 0.152110 -0.039106
N10   N     N_R   0.153670 0.443180 0.946090 -0.041319
N11   N     N_R   0.002360 0.556820 0.208890 -0.037915
N12   N     N_R   0.210070 0.556820 0.002870 -0.052872
N13   N     N_R   0.945960 0.443180 0.152110 -0.039877
N14   N     N_R   0.151710 0.706170 0.208890 -0.036736
N15   N     N_R   0.004320 0.293830 0.946090 -0.041945
N16   N     N_R   0.789930 0.443180 0.997130 -0.069556
Ni1   Ni    Ni4+2 0.869690 0.369690 0.000000 0.199680
Ni2   Ni    Ni4+2 0.130310 0.630310 0.000000 0.204894
Ni3   Ni    Ni4+2 0.000970 0.369690 0.869780 0.224550
Ni4   Ni    Ni4+2 0.999030 0.630310 0.130220 0.199488
O1    O     O_3   0.585338 0.052467 0.062472 -0.666486
C87   C     C_3   0.581091 0.995090 0.964458 0.216560
H56   H     H_    0.557352 0.911527 0.946650 0.105747
H57   H     H_    0.657603 0.030976 0.965707 0.087576
C88   C     C_3   0.498517 0.990743 0.870802 -0.918219
H58   H     H_    0.533966 0.062948 0.864869 0.235169
H59   H     H_    0.469996 0.919174 0.794402 0.223385
H60   H     H_    0.430173 0.986364 0.880599 0.283470
C89   C     C_3   0.640860 0.508662 0.220332 -0.340099
C90   C     C_3   0.561627 0.415640 0.222487 -0.948940
H61   H     H_    0.531664 0.443959 0.275904 0.234852
H62   H     H_    0.490669 0.352227 0.140896 0.252998
H63   H     H_    0.603240 0.377782 0.255928 0.260479
H64   H     H_    0.700629 0.490250 0.208714 0.212648
H65   H     H_    0.689263 0.579311 0.304121 0.177746
C91   C     C_3   0.418059 0.581632 0.865569 -0.425279
C92   C     C_3   0.479243 0.626340 0.814599 -0.961962
H66   H     H_    0.559704 0.697332 0.875625 0.249300
H67   H     H_    0.488825 0.562928 0.763011 0.257273
H68   H     H_    0.432827 0.648511 0.760869 0.257206
H69   H     H_    0.360940 0.495378 0.804476 0.187079
H70   H     H_    0.364544 0.614621 0.868895 0.165010
O2    O     O_3   0.535514 0.699041 0.072095 -0.632190
C93   C     C_3   0.524766 0.781474 0.055852 0.276357
H71   H     H_    0.441171 0.761107 0.015393 0.070521
H72   H     H_    0.560314 0.801418 0.009297 0.092288
C94   C     C_3   0.580953 0.880948 0.165716 -0.888228
H73   H     H_    0.668463 0.918401 0.203255 0.263375
H74   H     H_    0.557418 0.940248 0.158404 0.237100
H75   H     H_    0.558393 0.857506 0.219103 0.269967
O3    O     O_3   0.495505 0.623656 0.196059 -0.605991
C95   C     C_3   0.488505 0.607116 0.280399 0.239716
H76   H     H_    0.559771 0.605469 0.329971 0.112760
H77   H     H_    0.411913 0.532033 0.247871 0.088511
C96   C     C_3   0.490292 0.701200 0.357115 -0.883813
H78   H     H_    0.423010 0.708541 0.310737 0.269024
H79   H     H_    0.480516 0.686758 0.420784 0.209599
H80   H     H_    0.567981 0.775866 0.396051 0.257826
C97   C     C_3   0.088163 0.092426 0.681279 -0.349232
C98   C     C_3   0.138884 0.181768 0.659503 -0.955861
H81   H     H_    0.140328 0.256002 0.706540 0.261354
H82   H     H_    0.221142 0.201728 0.677241 0.248310
H83   H     H_    0.090168 0.154475 0.572940 0.245261
H84   H     H_    0.072037 0.015043 0.621342 0.158744
H85   H     H_    0.010371 0.084133 0.669319 0.231183
O4    O     O_3   0.002124 0.062794 0.817029 -0.641939
C99   C     C_3   0.943860 0.949424 0.759853 0.251912
H86   H     H_    0.982175 0.915131 0.803544 0.093549
H87   H     H_    0.934722 0.917631 0.678169 0.073672
C100  C     C_3   0.833505 0.912312 0.746633 -0.874488
H88   H     H_    0.793398 0.947594 0.706635 0.253606
H89   H     H_    0.784110 0.823225 0.696570 0.203614
H90   H     H_    0.840661 0.938455 0.827322 0.252081
C101  C     C_3   0.003776 0.910641 0.389539 -0.452022
C102  C     C_3   0.056337 0.848716 0.357108 -0.920505
H91   H     H_    0.996747 0.770919 0.281046 0.258028
H92   H     H_    0.120814 0.895861 0.347214 0.266539
H93   H     H_    0.091370 0.833302 0.421806 0.261902
H94   H     H_    0.064126 0.988106 0.464888 0.205852
H95   H     H_    0.943776 0.860754 0.402489 0.186849
C103  C     C_3   0.640210 0.294616 0.969045 -0.440611
C104  C     C_3   0.634776 0.286176 0.062376 -0.989023
H96   H     H_    0.713054 0.340052 0.137833 0.273989
H97   H     H_    0.576410 0.302954 0.074077 0.283101
H98   H     H_    0.605936 0.202324 0.042183 0.309426
H99   H     H_    0.561139 0.245093 0.893645 0.184058
H100  H     H_    0.690512 0.259954 0.959716 0.212791

loop_
_geom_bond_atom_site_label_1
_geom_bond_atom_site_label_2
_ccdc_geom_bond_type
C58   C62   S    
C66   C68   A    
C90   H61   S    
C63   C65   S    
C1    H1    S    
C97   H84   S    
C33   H18   S    
C41   C42   A    
C3    C23   A    
C35   C36   A    
C102  H93   S    
C101  C102  S    
C2    C12   A    
C9    H5    S    
C80   C85   A    
N4    N5    A    
C104  H98   S    
C96   H78   S    
C89   H65   S    
C53   C54   A    
N14   Ni4   S    
C81   H51   S    
C90   H62   S    
C26   C27   A    
C99   H86   S    
N4    Ni4   S    
C94   H75   S    
C18   C24   A    
N7    Ni4   S    
C60   C62   S    
C28   C29   A    
C87   H57   S    
C102  H92   S    
N13   Ni1   S    
C69   C70   A    
C96   H80   S    
C38   C39   A    
C11   C14   A    
C53   H31   S    
C11   N7    A    
C93   H72   S    
C89   C90   S    
C45   H42   S    
C44   C50   A    
C91   H69   S    
C7    H3    S    
C9    N5    A    
C34   H33   S    
C6    H2    S    
O2    C93   S    
C67   N14   A    
C18   C19   A    
C73   C74   A    
C49   C50   A    
C42   H26   S    
C1    N1    A    
C71   H46   S    
C54   C55   A    
C28   H15   S    
C75   C85   S    
C39   H24   S    
C66   C72   A    
C8    N4    A    
C84   H53   S    
C97   C98   S    
C95   H77   S    
C32   C33   A    
C47   C48   A    
C97   H85   S    
C61   H40   S    
C51   C57   A    
N3    Ni3   S    
C5    C14   A    
N11   Ni4   S    
C64   H39   S    
C10   N6    A    
C89   H64   S    
C78   C86   A    
C52   H30   S    
C5    C103  S    
C6    C15   A    
C10   H6    S    
C21   C22   A    
C4    C56   A    
C88   H59   S    
C98   H82   S    
C103  C104  S    
N1    Ni1   S    
N3    N6    A    
C101  H95   S    
C7    N3    A    
C64   O3    S    
C44   C46   A    
C92   H66   S    
C55   H34   S    
C77   C79   A    
C59   H37   S    
C90   H63   S    
C4    C34   A    
C58   H36   S    
N9    Ni2   S    
C36   H20   S    
C51   C52   A    
C92   H68   S    
C31   H16   S    
C12   N9    A    
N15   Ni3   S    
C87   C88   S    
C102  H91   S    
C104  H96   S    
C56   N13   A    
C2    C67   A    
C74   C75   A    
C78   H55   S    
C16   C46   S    
C39   C40   A    
C34   N11   A    
C68   C69   A    
C15   C26   S    
C20   C30   S    
N5    Ni2   S    
C58   C59   S    
C91   H70   S    
C3    C45   A    
C81   C82   A    
C38   C43   A    
O4    C99   S    
N16   Ni1   S    
C94   H73   S    
N12   Ni2   S    
C75   C76   A    
C100  H88   S    
C29   C30   A    
C35   H19   S    
C2    C49   S    
C61   C65   S    
C47   C57   S    
C25   H14   S    
C83   C101  S    
C83   C84   A    
C103  H100  S    
C95   C96   S    
C68   O4    S    
C73   C79   A    
C32   H17   S    
C61   H41   S    
C43   H21   S    
C76   C77   A    
C38   H23   S    
C72   H44   S    
C67   H54   S    
C12   H11   S    
C70   C71   A    
C91   C92   S    
C96   H79   S    
C48   C49   A    
C100  H89   S    
N11   N13   A    
C44   H27   S    
C82   C83   A    
C5    N16   A    
N9    N14   A    
C55   C57   A    
C17   C74   S    
C59   H38   S    
C98   H83   S    
C22   C24   A    
C24   H9    S    
C45   N12   A    
C42   C43   A    
C54   H32   S    
C56   H49   S    
C52   C53   A    
C48   H28   S    
O1    C87   S    
C9    C17   A    
C25   C30   A    
C23   N10   A    
C46   C47   A    
C36   C37   A    
C58   H35   S    
C76   H48   S    
C22   H13   S    
C31   C32   A    
C7    C16   A    
C84   C85   A    
C4    C29   S    
C73   H47   S    
C80   C81   A    
C93   C94   S    
C60   H43   S    
C77   C86   S    
C92   H67   S    
C104  H97   S    
N2    Ni2   S    
C3    C63   S    
C59   C63   S    
C8    C17   A    
C80   H50   S    
C98   H81   S    
C13   H8    S    
C60   C64   S    
C60   C89   S    
O3    C95   S    
C19   C20   A    
C13   C15   A    
C25   C26   A    
C13   N8    A    
C71   C72   A    
C82   H52   S    
C10   C16   A    
C101  H94   S    
N10   Ni3   S    
C21   H12   S    
C18   O1    S    
C11   H7    S    
C93   H71   S    
C88   H58   S    
C65   C91   S    
C103  H99   S    
C27   C37   S    
C99   C100  S    
C40   C50   S    
C23   H22   S    
C70   H45   S    
C33   C35   A    
N7    N16   A    
N10   N12   A    
C61   C62   S    
N8    Ni3   S    
C51   H29   S    
C94   H74   S    
C87   H56   S    
C69   C79   S    
N2    N8    A    
C63   C64   S    
C31   C37   A    
C1    C86   A    
C100  H90   S    
C8    H4    S    
C20   C21   A    
C88   H60   S    
C99   H87   S    
C95   H76   S    
C41   H25   S    
C27   C28   A    
C78   N15   A    
C40   C41   A    
N1    N15   A    
C6    N2    A    
N6    Ni1   S    
C66   C97   S    
C19   H10   S    
C65   O2    S    
C14   C62   S    
