data_str_m2_o10_o29_f0_pcu.sym.191
_audit_creation_date              2013-03-05T15:42:03-0500
_audit_creation_method            fapswitch 2.2
_symmetry_space_group_name_H-M    P1
_symmetry_Int_Tables_number       1
_space_group_crystal_system       triclinic
_cell_length_a                    27.77552
_cell_length_b                    8.719666
_cell_length_c                    7.414931
_cell_angle_alpha                 103.388587
_cell_angle_beta                  93.803983
_cell_angle_gamma                 92.661319
_cell_volume                      1739.65395664

loop_
_atom_site_label
_atom_site_type_symbol
_atom_site_description
_atom_site_fract_x
_atom_site_fract_y
_atom_site_fract_z
_atom_type_partial_charge
O1    O     O_R   0.503500 0.286120 0.619780 -0.549055
O2    O     O_R   0.496500 0.713880 0.380220 -0.552683
O3    O     O_R   0.494410 0.256780 0.308360 -0.611888
O4    O     O_R   0.505590 0.743220 0.691640 -0.603273
C1    C     C_R   0.497376 0.200026 0.453832 0.865732
C2    C     C_R   0.501838 0.799954 0.546572 0.832249
O5    O     O_R   0.434810 0.514700 0.655690 -0.549397
O6    O     O_R   0.565190 0.485300 0.344310 -0.593819
O7    O     O_R   0.425720 0.485350 0.344280 -0.589424
O8    O     O_R   0.574280 0.514650 0.655720 -0.568393
C3    C     C_R   0.407557 0.500872 0.503541 0.855981
C4    C     C_R   0.592255 0.499458 0.496738 0.879406
Cu1   Cu    Cu3+1 0.505380 0.517380 0.684380 0.985599
Cu2   Cu    Cu3+1 0.494620 0.482620 0.315620 0.961711
C5    C     C_R   0.174246 0.343499 0.486939 0.562914
C6    C     C_R   0.825782 0.641337 0.605302 0.572043
O9    O     O_2   0.196229 0.206290 0.463475 -0.476564
O10   O     O_2   0.804188 0.764711 0.705569 -0.503362
N1    N     N_R   0.201898 0.483395 0.525465 -0.446910
N2    N     N_R   0.797857 0.510887 0.507915 -0.444815
C7    C     C_R   0.180837 0.625146 0.555431 0.593282
C8    C     C_R   0.818384 0.382065 0.407178 0.588484
C9    C     C_R   0.283666 0.568968 0.682681 0.370584
C10   C     C_R   0.720003 0.386419 0.563693 0.383511
C11   C     C_R   0.334090 0.586791 0.668702 0.308530
C12   C     C_R   0.669092 0.372810 0.535749 0.307070
C13   C     C_R   0.324992 0.404571 0.364245 -0.335053
C14   C     C_R   0.670470 0.622728 0.444642 -0.336766
C15   C     C_R   0.275038 0.398235 0.370852 -0.212270
C16   C     C_R   0.720721 0.625880 0.448409 -0.184130
C17   C     C_R   0.253873 0.481572 0.527926 0.207077
C18   C     C_R   0.745951 0.508911 0.509237 0.200066
C19   C     C_R   0.101493 0.488667 0.518413 -0.120085
C20   C     C_R   0.898183 0.509109 0.509357 -0.126044
C21   C     C_R   0.123194 0.342506 0.473387 -0.113294
C22   C     C_R   0.876739 0.646164 0.602826 -0.111332
C23   C     C_R   0.093540 0.200733 0.416755 0.481587
C24   C     C_R   0.906532 0.782453 0.691674 0.493037
C25   C     C_R   0.130751 0.630558 0.563042 -0.042836
C26   C     C_R   0.868618 0.375982 0.412572 -0.021863
C27   C     C_R   0.354838 0.497915 0.512474 -0.158433
C28   C     C_R   0.644620 0.497659 0.490645 -0.152852
H1    H     H_    0.340329 0.337352 0.242099 0.180679
H2    H     H_    0.651715 0.717140 0.404793 0.168824
H3    H     H_    0.252587 0.330878 0.251193 0.182757
H4    H     H_    0.740127 0.720271 0.405414 0.188674
C29   C     C_R   0.970086 0.360855 0.433861 0.080805
C30   C     C_R   0.029517 0.640202 0.579245 0.076046
C31   C     C_R   0.978844 0.642033 0.593680 -0.011920
C32   C     C_R   0.020952 0.352874 0.453700 -0.014291
C33   C     C_R   0.949147 0.504238 0.512151 0.071994
C34   C     C_R   0.050543 0.493807 0.517010 0.073888
C35   C     C_R   0.939435 0.230853 0.334742 -0.234448
C36   C     C_R   0.059860 0.780296 0.621470 -0.236849
C37   C     C_R   0.889640 0.239065 0.323072 -0.165054
C38   C     C_R   0.109498 0.775284 0.611332 -0.126238
O11   O     O_2   0.790142 0.259684 0.301524 -0.563061
O12   O     O_2   0.208267 0.760929 0.575858 -0.518988
C39   C     C_R   0.043053 0.207962 0.413305 -0.354102
C40   C     C_R   0.957072 0.776885 0.689094 -0.346600
H5    H     H_    0.867612 0.135912 0.246116 0.202776
H6    H     H_    0.131294 0.885899 0.644510 0.224286
H7    H     H_    0.953111 0.122570 0.259435 0.144914
H8    H     H_    0.045946 0.896148 0.656008 0.145219
H9    H     H_    0.021550 0.097851 0.386169 0.136163
H10   H     H_    0.979063 0.877202 0.770632 0.132174
C41   C     C_2   0.490831 0.033000 0.431742 -0.055169
C42   C     C_2   0.506939 0.967321 0.570764 -0.045369
N3    N     N_2   0.486510 0.456430 0.038510 -0.197807
N4    N     N_2   0.513490 0.543570 0.961490 -0.198701
H11   H     H_    0.462269 0.377674 0.947959 0.224218
H12   H     H_    0.537710 0.622396 0.052062 0.224358
O13   O     O_3   0.114539 0.056049 0.374935 -0.539989
C43   C     C_3   0.093055 0.956593 0.207367 0.063486
H13   H     H_    0.082819 0.023758 0.100969 0.128610
H14   H     H_    0.060593 0.889474 0.236178 0.145147
C44   C     C_3   0.128777 0.837740 0.125579 -0.711285
H15   H     H_    0.140535 0.769986 0.228464 0.250863
H16   H     H_    0.111404 0.753720 0.999667 0.199814
H17   H     H_    0.160812 0.900142 0.086612 0.262534
O14   O     O_3   0.885661 0.915598 0.790283 -0.540354
C45   C     C_3   0.906691 0.057571 0.759662 0.052633
H18   H     H_    0.918395 0.043144 0.615940 0.143834
H19   H     H_    0.938161 0.100865 0.862527 0.140683
C46   C     C_3   0.869807 0.182851 0.787599 -0.709384
H20   H     H_    0.855379 0.196272 0.926037 0.251908
H21   H     H_    0.887127 0.298018 0.779121 0.197913
H22   H     H_    0.839515 0.148646 0.677843 0.275828
O15   O     O_3   0.643113 0.234790 0.542111 -0.577478
C47   C     C_3   0.654300 0.111935 0.391247 0.124277
H23   H     H_    0.684320 0.046391 0.437098 0.194889
H24   H     H_    0.664910 0.155096 0.267831 0.136931
C48   C     C_3   0.610473 0.997085 0.325797 -0.840229
H25   H     H_    0.580266 0.059290 0.275782 0.253346
H26   H     H_    0.619382 0.900137 0.209136 0.198751
H27   H     H_    0.599484 0.945465 0.441181 0.238038
O16   O     O_3   0.363407 0.688959 0.808513 -0.572275
C49   C     C_3   0.353750 0.848247 0.813957 0.128733
H28   H     H_    0.349919 0.909495 0.960700 0.159940
H29   H     H_    0.320009 0.864430 0.731704 0.175228
C50   C     C_3   0.396011 0.929727 0.745622 -0.836865
H30   H     H_    0.400231 0.872310 0.597914 0.240074
H31   H     H_    0.389450 0.056140 0.756834 0.200544
H32   H     H_    0.429639 0.922065 0.831643 0.258176
O17   O     O_3   0.744556 0.272735 0.628360 -0.576254
C51   C     C_3   0.738061 0.287062 0.819322 0.060304
H33   H     H_    0.705504 0.349765 0.868659 0.147733
H34   H     H_    0.770323 0.353317 0.903220 0.168734
C52   C     C_3   0.733399 0.123043 0.857451 -0.686446
H35   H     H_    0.766300 0.059150 0.820484 0.286556
H36   H     H_    0.728630 0.132775 0.006971 0.225398
H37   H     H_    0.701434 0.054475 0.774417 0.239577
O18   O     O_3   0.262597 0.654857 0.835303 -0.562389
C53   C     C_3   0.274230 0.596534 0.994301 0.042585
H38   H     H_    0.312127 0.561131 0.005091 0.173698
H39   H     H_    0.249422 0.492305 0.992548 0.146743
C54   C     C_3   0.267583 0.725721 0.166568 -0.678731
H40   H     H_    0.228725 0.747262 0.175924 0.253997
H41   H     H_    0.281507 0.690992 0.293773 0.215643
H42   H     H_    0.287760 0.836932 0.159950 0.239674
N5    N     N_3   0.464749 0.941755 0.263767 -0.557828
H43   H     H_    0.483866 0.954196 0.150642 0.225676
H44   H     H_    0.431003 0.988131 0.250166 0.208282
N6    N     N_3   0.532668 0.058667 0.739681 -0.540358
H45   H     H_    0.514095 0.042796 0.852910 0.217641
H46   H     H_    0.566990 0.015596 0.751916 0.221944

loop_
_geom_bond_atom_site_label_1
_geom_bond_atom_site_label_2
_geom_bond_distance
_ccdc_geom_bond_type
C50   H30   1.110179 S    
C13   C15   1.390594 A    
O13   C43   1.416521 S    
C35   C37   1.386252 A    
C1    C41   1.428980 S    
N1    C17   1.443401 S    
C42   N6    1.442307 S    
C8    O11   1.349584 S    
O16   C49   1.418725 S    
C44   H15   1.109629 S    
C19   C34   1.417395 A    
C5    N1    1.371881 A    
C20   C33   1.417078 A    
C48   H25   1.108978 S    
C31   C40   1.409406 A    
C43   H14   1.111573 S    
O1    C1    1.280306 A    
C32   C39   1.408660 A    
N1    C7    1.369866 A    
C10   C12   1.410967 A    
C52   H36   1.109457 S    
C44   H17   1.110506 S    
C51   H33   1.116989 S    
C14   C28   1.397591 A    
O4    Cu1   1.957209 S    
N3    H11   1.029212 S    
C4    C28   1.458860 S    
C47   H24   1.118435 S    
C31   C33   1.412416 A    
C43   C44   1.520039 S    
C32   C34   1.412053 A    
C6    N2    1.371227 A    
C29   C35   1.411203 A    
C2    C42   1.427667 S    
C40   H10   1.077151 S    
C50   H31   1.110567 S    
Cu1   Cu2   2.675275 S    
C7    O12   1.350220 S    
O2    C2    1.281972 A    
C41   N5    1.441168 S    
C5    C21   1.414357 A    
C53   H38   1.113632 S    
C29   C32   1.417347 A    
C44   H16   1.109902 S    
C36   C38   1.387895 A    
C43   H13   1.116212 S    
C46   H21   1.110059 S    
C41   C42   1.351600 D    
O4    C2    1.284134 A    
C54   H42   1.109985 S    
C11   C27   1.410294 A    
C29   C33   1.419359 A    
C46   H20   1.109642 S    
C14   H2    1.080949 S    
O14   C45   1.416297 S    
C15   H3    1.082722 S    
C12   O15   1.386157 S    
C9    C17   1.411645 A    
C30   C36   1.411675 A    
O7    Cu2   1.940091 S    
C10   C18   1.410721 A    
C9    O18   1.385685 S    
C13   C27   1.399970 A    
O5    C3    1.294418 A    
C25   C38   1.399011 A    
C7    C25   1.398557 A    
C30   C34   1.419754 A    
O6    C4    1.292990 A    
C26   C37   1.398530 A    
C8    C26   1.397039 A    
C19   C25   1.407837 A    
O7    C3    1.295656 A    
N5    H43   1.045564 S    
C23   C39   1.405470 A    
O3    Cu2   1.957210 S    
O8    C4    1.291661 A    
C24   C40   1.408117 A    
C11   O16   1.387221 S    
C30   C31   1.419123 A    
N2    C8    1.368281 A    
C49   H28   1.109962 S    
C48   H27   1.108148 S    
C49   H29   1.116468 S    
C24   O14   1.394331 S    
Cu2   N3    2.010323 S    
C38   H6    1.083270 S    
C52   H37   1.110187 S    
O1    Cu1   1.959098 S    
C49   C50   1.519054 S    
C12   C28   1.402212 A    
C47   C48   1.517764 S    
N6    H46   1.046720 S    
O18   C53   1.412565 S    
N2    C18   1.441727 S    
C46   H22   1.110233 S    
C5    O9    1.349092 S    
C23   O13   1.392523 S    
O6    Cu2   1.956012 S    
C21   C23   1.414959 A    
C16   H4    1.082920 S    
O3    C1    1.286241 A    
O8    Cu1   1.940094 S    
C53   H39   1.111820 S    
C50   H32   1.109157 S    
C45   C46   1.520882 S    
O17   C51   1.416759 S    
C45   H19   1.111703 S    
C54   H41   1.107098 S    
C14   C16   1.393047 A    
C15   C17   1.403112 A    
C52   H35   1.109231 S    
C6    C22   1.415495 A    
C16   C18   1.404372 A    
C35   H7    1.079299 S    
C47   H23   1.110911 S    
C48   H26   1.110544 S    
C51   H34   1.111440 S    
C37   H5    1.083456 S    
C22   C24   1.415925 A    
C19   C21   1.414229 A    
C3    C27   1.469486 S    
C20   C22   1.414434 A    
C9    C11   1.415260 A    
N3    N4    1.292262 D    
O2    Cu2   1.959098 S    
N5    H44   1.045859 S    
C53   C54   1.522780 S    
C13   H1    1.083449 S    
O5    Cu1   1.956012 S    
C36   H8    1.079355 S    
C6    O10   1.348515 S    
C45   H18   1.115734 S    
Cu1   N4    2.010323 S    
C20   C26   1.408672 A    
N4    H12   1.029245 S    
C10   O17   1.384605 S    
O15   C47   1.420412 S    
C54   H40   1.108030 S    
C39   H9    1.077209 S    
N6    H45   1.046346 S    
C51   C52   1.522185 S    
