data_str_m2_o41_o41_f0_fof.sym.9
_audit_creation_date              2012-10-26T17:13:12-0400
_audit_creation_method            fapswitch 2.2
_symmetry_space_group_name_H-M    P1
_symmetry_Int_Tables_number       1
_space_group_crystal_system       triclinic
_cell_length_a                    16.823016
_cell_length_b                    16.846692
_cell_length_c                    16.781205
_cell_angle_alpha                 67.620004
_cell_angle_beta                  67.577455
_cell_angle_gamma                 67.652237
_cell_volume                      3908.62985177

loop_
_atom_site_label
_atom_site_type_symbol
_atom_type_description
_atom_site_fract_x
_atom_site_fract_y
_atom_site_fract_z
_atom_type_partial_charge
C1    C     C_R   0.321104 0.958753 0.453332 -0.011033
C2    C     C_R   0.323442 0.448645 0.958147 -0.009292
C3    C     C_R   0.525261 0.405964 0.029143 -0.016129
C4    C     C_R   0.011437 0.456466 0.586520 -0.017546
C5    C     C_R   0.988593 0.543526 0.413473 -0.017545
C6    C     C_R   0.044084 0.677623 0.546471 -0.010014
C7    C     C_R   0.955933 0.322373 0.453526 -0.010014
C8    C     C_R   0.456317 0.978365 0.457129 0.027124
C9    C     C_R   0.543681 0.021627 0.542880 0.027119
C10   C     C_R   0.978447 0.456550 0.456810 0.026128
C11   C     C_R   0.021580 0.543443 0.543184 0.026129
C12   C     C_R   0.450908 0.451740 0.993533 0.026303
C13   C     C_R   0.549064 0.548240 0.006541 0.026299
C14   C     C_R   0.027361 0.828274 0.564883 0.525557
C15   C     C_R   0.678896 0.041245 0.546671 -0.011022
C16   C     C_R   0.972641 0.171726 0.435117 0.525546
C17   C     C_R   0.828408 0.564955 0.027562 0.522339
C18   C     C_R   0.171591 0.435042 0.972445 0.522338
C19   C     C_R   0.564639 0.028125 0.828070 0.523857
C20   C     C_R   0.435358 0.971880 0.171930 0.523838
C21   C     C_R   0.430288 0.168418 0.986142 0.528033
C22   C     C_R   0.569710 0.831578 0.013869 0.528039
C23   C     C_R   0.972500 0.435175 0.171720 0.525087
C24   C     C_R   0.027502 0.564824 0.828280 0.525100
C25   C     C_R   0.171545 0.973145 0.435003 0.526212
C26   C     C_R   0.955333 0.453068 0.322795 -0.010666
C27   C     C_R   0.828455 0.026856 0.564997 0.526212
C28   C     C_R   0.410249 0.963021 0.411419 0.029532
C29   C     C_R   0.589751 0.036974 0.588585 0.029526
C30   C     C_R   0.963197 0.410532 0.410949 0.030127
C31   C     C_R   0.036823 0.589464 0.589047 0.030127
C32   C     C_R   0.402167 0.403286 0.986495 0.032599
C33   C     C_R   0.597813 0.596696 0.013564 0.032599
C34   C     C_R   0.270156 0.958703 0.401676 -0.026956
C35   C     C_R   0.729843 0.041300 0.598323 -0.026958
C36   C     C_R   0.957352 0.401466 0.270853 -0.028077
C37   C     C_R   0.044684 0.546928 0.677202 -0.010668
C38   C     C_R   0.042655 0.598533 0.729147 -0.028072
C39   C     C_R   0.389558 0.262518 0.989043 -0.027597
C40   C     C_R   0.610434 0.737471 0.010987 -0.027599
C41   C     C_R   0.598380 0.043735 0.728624 -0.028834
C42   C     C_R   0.401617 0.956276 0.271374 -0.028831
C43   C     C_R   0.730756 0.601862 0.036736 -0.030440
C44   C     C_R   0.269239 0.398127 0.963289 -0.030440
C45   C     C_R   0.042262 0.729368 0.598370 -0.028633
C46   C     C_R   0.957744 0.270631 0.401629 -0.028639
C47   C     C_R   0.452746 0.061609 0.706818 -0.076375
C48   C     C_R   0.431401 0.309267 0.009132 -0.011190
C49   C     C_R   0.547251 0.938399 0.293179 -0.076461
C50   C     C_R   0.051809 0.710617 0.453508 -0.083367
C51   C     C_R   0.948214 0.289379 0.546488 -0.083369
C52   C     C_R   0.697980 0.457677 0.074937 -0.079889
C53   C     C_R   0.302027 0.542309 0.925075 -0.079883
C54   C     C_R   0.286164 0.956857 0.545164 -0.077164
C55   C     C_R   0.713834 0.043142 0.454839 -0.077218
C56   C     C_R   0.499892 0.265318 0.052567 -0.081971
C57   C     C_R   0.500106 0.734664 0.947460 -0.081948
C58   C     C_R   0.947384 0.545692 0.289638 -0.083641
C59   C     C_R   0.568585 0.690716 0.990914 -0.011196
C60   C     C_R   0.052641 0.454304 0.710357 -0.083642
C61   C     C_R   0.311553 0.957654 0.312011 -0.153411
C62   C     C_R   0.688444 0.042358 0.687987 -0.153415
C63   C     C_R   0.957682 0.311731 0.311733 -0.149320
C64   C     C_R   0.042320 0.688269 0.688267 -0.149293
C65   C     C_R   0.306691 0.306957 0.971172 -0.150425
C66   C     C_R   0.693302 0.693033 0.028856 -0.150419
C67   C     C_R   0.675575 0.013281 0.414770 -0.031252
C68   C     C_R   0.324420 0.986722 0.585231 -0.031195
C69   C     C_R   0.026678 0.411435 0.671324 -0.031795
C70   C     C_R   0.546453 0.047751 0.675847 -0.010481
C71   C     C_R   0.973354 0.588556 0.328668 -0.031794
C72   C     C_R   0.450981 0.687941 0.939697 -0.023524
C73   C     C_R   0.549024 0.312040 0.060324 -0.023561
C74   C     C_R   0.592756 0.958179 0.335040 -0.021050
C75   C     C_R   0.407243 0.041811 0.664971 -0.020967
C76   C     C_R   0.351765 0.591562 0.928118 -0.021466
C77   C     C_R   0.648244 0.408424 0.071891 -0.021461
C78   C     C_R   0.972774 0.329377 0.589749 -0.031543
C79   C     C_R   0.027257 0.670615 0.410243 -0.031537
C80   C     C_R   0.723197 0.990424 0.333109 0.291258
C81   C     C_R   0.453547 0.952252 0.324153 -0.010497
C82   C     C_R   0.276797 0.009584 0.666888 0.291324
C83   C     C_R   0.013644 0.325475 0.716311 0.262619
C84   C     C_R   0.986398 0.674513 0.283676 0.262625
C85   C     C_R   0.378224 0.733443 0.901892 0.263090
C86   C     C_R   0.621838 0.266533 0.098053 0.263026
C87   C     C_R   0.683522 0.958147 0.296023 0.292180
C88   C     C_R   0.316474 0.041854 0.703983 0.292213
C89   C     C_R   0.328938 0.685664 0.895945 0.267895
C90   C     C_R   0.671120 0.314319 0.103988 0.267867
C91   C     C_R   0.983581 0.285997 0.677005 0.262387
C92   C     C_R   0.676550 0.551340 0.041891 -0.009296
C93   C     C_R   0.016461 0.713991 0.322983 0.262393
C94   C     C_R   0.545739 0.980997 0.416478 -0.016249
C95   C     C_R   0.454260 0.018993 0.583534 -0.016234
C96   C     C_R   0.988361 0.413779 0.544097 -0.017557
C97   C     C_R   0.011668 0.586213 0.455896 -0.017556
C98   C     C_R   0.425461 0.545833 0.964664 -0.017016
C99   C     C_R   0.574518 0.454149 0.035397 -0.017018
C100  C     C_R   0.588671 0.004265 0.458485 -0.018196
C101  C     C_R   0.411326 0.995731 0.541523 -0.018193
C102  C     C_R   0.474716 0.594017 0.970921 -0.016130
Cl1   Cl    Cl    0.251872 0.079389 0.801012 -0.399120
Cl2   Cl    Cl    0.345127 0.851247 0.864702 -0.477538
Cl3   Cl    Cl    0.970975 0.731592 0.175242 -0.416006
Cl4   Cl    Cl    0.029085 0.268391 0.824736 -0.415972
Cl5   Cl    Cl    0.748126 0.920579 0.199032 -0.399157
Cl6   Cl    Cl    0.036733 0.819751 0.262991 -0.419094
Cl7   Cl    Cl    0.963324 0.180230 0.736989 -0.419055
Cl8   Cl    Cl    0.762477 0.254329 0.151028 -0.469388
Cl9   Cl    Cl    0.237679 0.745669 0.848703 -0.469500
Cl10  Cl    Cl    0.165304 0.003147 0.721097 -0.361044
Cl11  Cl    Cl    0.834695 0.996846 0.278902 -0.361061
Cl12  Cl    Cl    0.655081 0.148722 0.135064 -0.477223
Cu1   Cu    Cu3+1 0.995180 0.995180 0.424630 1.115328
Cu2   Cu    Cu3+1 0.004820 0.004820 0.575370 1.115342
Cu3   Cu    Cu3+1 0.995180 0.424630 0.995180 1.110032
Cu4   Cu    Cu3+1 0.004820 0.575370 0.004820 1.109983
Cu5   Cu    Cu3+1 0.424630 0.995180 0.995180 1.101460
Cu6   Cu    Cu3+1 0.575370 0.004820 0.004820 1.101475
H1    H     H_    0.271817 0.961979 0.271919 0.173935
H2    H     H_    0.920727 0.234019 0.587058 0.195695
H3    H     H_    0.751296 0.423256 0.106820 0.190129
H4    H     H_    0.248722 0.576724 0.893178 0.190136
H5    H     H_    0.230984 0.929761 0.588061 0.204824
H6    H     H_    0.769019 0.070230 0.411944 0.204786
H7    H     H_    0.512417 0.194718 0.084615 0.194863
H8    H     H_    0.487590 0.805260 0.915401 0.194928
H9    H     H_    0.918840 0.586272 0.234804 0.195946
H10   H     H_    0.081185 0.413726 0.765192 0.195936
H11   H     H_    0.728179 0.038040 0.728076 0.173936
H12   H     H_    0.961951 0.272001 0.271700 0.180362
H13   H     H_    0.038043 0.728002 0.728303 0.180374
H14   H     H_    0.269664 0.269555 0.966004 0.178023
H15   H     H_    0.730332 0.730437 0.034014 0.178023
H16   H     H_    0.414170 0.089120 0.762754 0.195889
H17   H     H_    0.585818 0.910936 0.237232 0.195961
H18   H     H_    0.079292 0.765979 0.412941 0.195694
O1    O     O_R   0.124540 0.978640 0.385460 -0.498868
O2    O     O_R   0.124540 0.385460 0.978640 -0.498175
O3    O     O_R   0.021360 0.875460 0.614540 -0.494225
O4    O     O_R   0.978640 0.124540 0.385460 -0.494238
O5    O     O_R   0.013780 0.867370 0.487190 -0.507481
O6    O     O_R   0.986220 0.132630 0.512810 -0.507486
O7    O     O_R   0.867370 0.487190 0.013780 -0.500982
O8    O     O_R   0.132630 0.512810 0.986220 -0.501002
O9    O     O_R   0.487190 0.013780 0.867370 -0.509717
O10   O     O_R   0.512810 0.986220 0.132630 -0.509771
O11   O     O_R   0.512810 0.132630 0.986220 -0.504947
O12   O     O_R   0.875460 0.021360 0.614540 -0.498867
O13   O     O_R   0.487190 0.867370 0.013780 -0.504961
O14   O     O_R   0.986220 0.512810 0.132630 -0.509612
O15   O     O_R   0.013780 0.487190 0.867370 -0.509598
O16   O     O_R   0.132630 0.986220 0.512810 -0.509799
O17   O     O_R   0.867370 0.013780 0.487190 -0.509800
O18   O     O_R   0.978640 0.385460 0.124540 -0.493844
O19   O     O_R   0.021360 0.614540 0.875460 -0.493842
O20   O     O_R   0.385460 0.124540 0.978640 -0.498982
O21   O     O_R   0.614540 0.875460 0.021360 -0.498966
O22   O     O_R   0.614540 0.021360 0.875460 -0.498016
O23   O     O_R   0.385460 0.978640 0.124540 -0.498024
O24   O     O_R   0.875460 0.614540 0.021360 -0.498178

loop_
_geom_bond_atom_site_label_1
_geom_bond_atom_site_label_2
_ccdc_geom_bond_type
C2    C44   A    
C23   O14   A    
C6    C45   A    
C49   H17   S    
C47   H16   S    
C39   C65   A    
C21   O20   A    
C74   C94   A    
C17   O7    A    
C50   C79   A    
Cu5   O23   S    
C57   H8    S    
Cu2   O12   S    
C72   C85   A    
C75   C95   A    
Cu6   O11   S    
C19   O22   A    
C61   H1    S    
C16   O6    A    
C79   C93   A    
C80   C87   A    
Cu5   O20   S    
C93   Cl6   S    
C52   H3    S    
C58   C71   A    
C57   C59   A    
C54   C68   A    
C22   O21   A    
C58   H9    S    
C76   C98   A    
Cu1   Cu2   S    
C2    C32   A    
C56   H7    S    
C49   C81   A    
C3    C12   A    
Cu2   O6    S    
C78   C96   A    
C1    C28   A    
C24   C38   S    
C20   O10   A    
C10   C96   A    
C74   C87   A    
C36   C63   A    
C8    C101  A    
C9    C95   A    
C12   C98   A    
C65   H14   S    
C9    C29   A    
C25   C34   S    
Cu1   O17   S    
C6    C31   A    
C25   O16   A    
Cu1   O4    S    
C11   C31   A    
C33   C59   A    
C40   C59   A    
C4    C96   A    
C23   O18   A    
C12   C32   A    
Cu5   O13   S    
C32   C48   A    
C44   C65   A    
C42   C81   A    
C41   C62   A    
C15   C35   A    
C4    C69   A    
C1    C34   A    
C15   C29   A    
C14   C45   S    
C38   C64   A    
C27   O17   A    
C54   H5    S    
Cu1   O5    S    
C77   C90   A    
C76   C89   A    
C7    C46   A    
Cu4   O8    S    
C8    C94   A    
C68   C101  A    
C86   C90   A    
C33   C92   A    
C16   C46   S    
C85   C89   A    
C24   O19   A    
C27   C35   S    
C98   C102  A    
C2    C53   A    
C34   C61   A    
C19   O9    A    
C31   C37   A    
C15   C55   A    
C13   C99   A    
C16   O4    A    
C1    C54   A    
C17   C43   S    
C47   C70   A    
C13   C33   A    
C37   C38   A    
C69   C83   A    
C18   C44   S    
Cu6   O21   S    
C10   C30   A    
C55   C67   A    
C21   C39   S    
C55   H6    S    
C94   C100  A    
C66   H15   S    
C22   C40   S    
C71   C84   A    
Cu3   O18   S    
C84   Cl3   S    
C63   H12   S    
C6    C50   A    
C4    C11   A    
C18   O2    A    
C26   C58   A    
C42   C61   A    
C85   Cl2   S    
C67   C100  A    
C26   C36   A    
Cu1   O1    S    
C26   C30   A    
C27   O12   A    
C21   O11   A    
Cu3   O15   S    
C8    C28   A    
Cu3   O7    S    
C52   C92   A    
C53   C76   A    
C90   Cl8   S    
C60   H10   S    
C52   C77   A    
C88   Cl1   S    
C24   O15   A    
Cu6   O22   S    
C29   C70   A    
C48   C56   A    
C64   H13   S    
Cu4   O24   S    
C56   C73   A    
C25   O1    A    
C28   C81   A    
Cu2   O16   S    
C62   H11   S    
C79   C97   A    
C67   C80   A    
C5    C97   A    
C18   O8    A    
C53   H4    S    
C20   C42   S    
Cu5   Cu6   S    
C50   H18   S    
Cu6   O10   S    
C78   C91   A    
C9    C100  A    
C83   C91   A    
C89   Cl9   S    
C45   C64   A    
C95   C101  A    
C43   C92   A    
C83   Cl4   S    
C86   Cl12  S    
C46   C63   A    
C11   C97   A    
C68   C82   A    
C91   Cl7   S    
C22   O13   A    
C14   O5    A    
C51   C78   A    
C7    C51   A    
C5    C10   A    
C5    C71   A    
Cu3   Cu4   S    
Cu4   O14   S    
C72   C102  A    
C60   C69   A    
C43   C66   A    
C82   C88   A    
C20   O23   A    
C77   C99   A    
C35   C62   A    
C84   C93   A    
C57   C72   A    
C3    C73   A    
C73   C86   A    
C14   O3    A    
C37   C60   A    
C17   O24   A    
C47   C75   A    
Cu2   O3    S    
Cu3   O2    S    
C3    C99   A    
C75   C88   A    
C87   Cl5   S    
C80   Cl11  S    
C23   C36   S    
C7    C30   A    
C51   H2    S    
C49   C74   A    
C41   C70   A    
Cu4   O19   S    
C40   C66   A    
C13   C102  A    
Cu5   O9    S    
C19   C41   S    
C82   Cl10  S    
C39   C48   A    
