data_str_m9_o2_o25_f0_sra.sym.84
_audit_creation_date              2012-12-11T16:33:30-0500
_audit_creation_method            fapswitch 2.2
_symmetry_space_group_name_H-M    P1
_symmetry_Int_Tables_number       1
_space_group_crystal_system       triclinic
_cell_length_a                    6.945056
_cell_length_b                    18.112971
_cell_length_c                    20.310802
_cell_angle_alpha                 68.605425
_cell_angle_beta                  90.851379
_cell_angle_gamma                 90.655691
_cell_volume                      2378.63228023

loop_
_atom_site_label
_atom_site_type_symbol
_atom_type_description
_atom_site_fract_x
_atom_site_fract_y
_atom_site_fract_z
_atom_type_partial_charge
O1    O     O_R   0.488960 0.443750 0.941980 -0.538978
O2    O     O_R   0.823890 0.406510 0.087590 -0.525266
O3    O     O_R   0.999680 0.556250 0.058020 -0.510117
C1    C     C_R   0.655842 0.383246 0.115278 0.694242
O4    O     O_R   0.818360 0.434410 0.944340 -0.527467
O5    O     O_R   0.994110 0.584350 0.913750 -0.543287
C2    C     C_R   0.648736 0.421152 0.923114 0.740579
O6    O     O_R   0.494530 0.415650 0.086250 -0.544655
O7    O     O_3   0.662590 0.549160 0.990130 -0.367947
V1    V     V_3+5 0.935320 0.490880 0.001830 1.512084
O8    O     O_R   0.324180 0.593490 0.912410 -0.543107
C3    C     C_R   0.154291 0.618208 0.886673 0.671157
O9    O     O_R   0.329720 0.565590 0.055660 -0.548018
C4    C     C_R   0.162336 0.579923 0.076011 0.716705
V2    V     V_3+5 0.435990 0.509120 0.998170 1.462204
O10   O     O_3   0.158850 0.450840 0.009870 -0.361622
C5    C     C_3   0.029015 0.712692 0.305064 -0.111612
C6    C     C_3   0.216153 0.682413 0.282918 -0.117028
H1    H     H_    0.284677 0.624242 0.311746 0.139468
H2    H     H_    0.942967 0.679888 0.352588 0.138010
H3    H     H_    0.459972 0.774689 0.284465 0.120871
C7    C     C_1   0.156443 0.626169 0.121184 -0.121340
C8    C     C_1   0.109598 0.879285 0.374057 -0.132497
C9    C     C_3   0.954080 0.740621 0.227571 -0.101846
C10   C     C_3   0.141136 0.710993 0.206041 0.157237
C11   C     C_3   0.050047 0.822839 0.212392 -0.174316
C12   C     C_3   0.125099 0.794314 0.289263 0.144843
C13   C     C_3   0.237206 0.792576 0.190267 -0.153977
C14   C     C_3   0.312145 0.764629 0.267754 -0.128298
C15   C     C_1   0.150022 0.664446 0.159347 -0.004584
C16   C     C_1   0.116289 0.841138 0.335765 -0.038809
H4    H     H_    0.323241 0.825319 0.142726 0.112530
H5    H     H_    0.981475 0.880980 0.183511 0.115445
H6    H     H_    0.806308 0.730454 0.210878 0.145596
C17   C     C_R   0.052147 0.774288 0.877648 -0.136441
C18   C     C_R   0.008040 0.848777 0.877136 -0.164559
C19   C     C_R   0.022056 0.914164 0.815204 -0.107079
C20   C     C_R   0.077320 0.906256 0.751940 -0.020936
C21   C     C_R   0.102206 0.828540 0.748981 -0.001989
C22   C     C_R   0.099082 0.762453 0.814707 0.070566
C23   C     C_R   0.122898 0.814024 0.684128 -0.185828
C24   C     C_R   0.148081 0.733487 0.687167 0.012138
C25   C     C_R   0.163161 0.670520 0.754652 0.060798
C26   C     C_R   0.142059 0.685377 0.817542 -0.149545
C27   C     C_R   0.153446 0.710942 0.626243 -0.006664
C28   C     C_R   0.174674 0.631556 0.633220 -0.144782
C29   C     C_R   0.194157 0.572291 0.698926 -0.019556
C30   C     C_R   0.190132 0.591369 0.758897 -0.188149
H7    H     H_    0.045593 0.725745 0.928179 0.096292
H8    H     H_    0.969806 0.856256 0.925809 0.122408
H9    H     H_    0.999347 0.972230 0.817649 0.144650
H10   H     H_    0.177357 0.615763 0.586534 0.137198
H11   H     H_    0.203282 0.542588 0.809169 0.114653
H12   H     H_    0.847896 0.348180 0.428320 0.117061
C31   C     C_R   0.480434 0.104932 0.253883 -0.153792
C32   C     C_R   0.441689 0.092917 0.191272 -0.226809
C33   C     C_R   0.504937 0.147562 0.126916 0.020962
C34   C     C_R   0.601525 0.217176 0.125906 -0.061392
C35   C     C_R   0.604524 0.237707 0.187411 0.008902
C36   C     C_R   0.564488 0.176489 0.253334 0.070198
C37   C     C_R   0.647719 0.316060 0.185315 -0.182859
C38   C     C_R   0.676470 0.328977 0.250753 -0.025080
C39   C     C_R   0.683066 0.261344 0.315223 0.080730
C40   C     C_R   0.617817 0.186158 0.317100 -0.160746
C41   C     C_R   0.703135 0.406141 0.255155 -0.064984
C42   C     C_R   0.768149 0.412718 0.319647 0.030369
C43   C     C_R   0.798128 0.344247 0.378846 -0.232822
C44   C     C_R   0.748806 0.270498 0.377744 -0.139455
H13   H     H_    0.441129 0.057712 0.302551 0.120428
H14   H     H_    0.371207 0.038310 0.193647 0.114237
H15   H     H_    0.762039 0.220621 0.427162 0.113850
O11   O     O_R   0.770540 0.084530 0.414050 -0.543092
O12   O     O_R   0.445710 0.065660 0.555720 -0.546806
O13   O     O_R   0.270420 0.915650 0.586190 -0.555212
C45   C     C_R   0.615178 0.079905 0.576280 0.721932
O14   O     O_R   0.441140 0.093540 0.412470 -0.543039
O15   O     O_R   0.265820 0.943740 0.441930 -0.553083
C46   C     C_R   0.609356 0.116994 0.385391 0.672780
O16   O     O_R   0.775150 0.056440 0.558310 -0.514555
O17   O     O_3   0.602370 0.950960 0.510050 -0.367980
V3    V     V_3+5 0.329450 0.009140 0.498150 1.425458
O18   O     O_R   0.935790 0.934280 0.444060 -0.521167
C47   C     C_R   0.102806 0.924342 0.420322 0.736197
O19   O     O_R   0.940370 0.906390 0.587310 -0.519549
C48   C     C_R   0.110048 0.882160 0.614574 0.678102
V4    V     V_3+5 0.828810 0.990710 0.501460 1.498105
O20   O     O_3   0.105780 0.049100 0.489960 -0.367488
C49   C     C_3   0.676052 0.326068 0.712740 -0.130355
C50   C     C_3   0.500914 0.279883 0.698555 -0.129974
H16   H     H_    0.392070 0.304284 0.655679 0.132885
H17   H     H_    0.711465 0.389159 0.682147 0.131724
H18   H     H_    0.313499 0.241922 0.802546 0.134225
C51   C     C_1   0.625022 0.125505 0.621908 -0.123772
C52   C     C_1   0.638482 0.375331 0.877648 -0.124868
C53   C     C_3   0.807813 0.254464 0.721542 -0.131338
C54   C     C_3   0.632647 0.208924 0.707972 0.128236
C55   C     C_3   0.764821 0.219977 0.801821 -0.119730
C56   C     C_3   0.632966 0.290962 0.792366 0.157452
C57   C     C_3   0.589652 0.173783 0.787613 -0.133382
C58   C     C_3   0.457904 0.245383 0.778812 -0.088450
C59   C     C_1   0.629929 0.163185 0.660590 -0.014254
C60   C     C_1   0.634415 0.337190 0.839346 0.019915
H19   H     H_    0.554216 0.110704 0.818225 0.122746
H20   H     H_    0.873681 0.195527 0.844685 0.131451
H21   H     H_    0.952253 0.257948 0.697826 0.133612
C61   C     C_2   0.131681 0.981279 0.694913 0.339561
H22   H     H_    0.264260 0.984966 0.666889 0.070137
O21   O     O_2   0.035082 0.040935 0.681938 -0.536198
C62   C     C_2   0.136599 0.765725 0.553215 0.332139
H23   H     H_    0.250531 0.808211 0.531287 0.057110
O22   O     O_2   0.001332 0.759718 0.516368 -0.533248
C63   C     C_2   0.473786 0.127934 0.062566 0.362307
H24   H     H_    0.424182 0.069032 0.067725 0.035255
O23   O     O_2   0.497409 0.177288 0.003335 -0.529335
C64   C     C_1   0.743728 0.250922 0.071683 0.331667
N1    N     N_1   0.861383 0.275215 0.029334 -0.323307
C65   C     C_2   0.643604 0.479103 0.196573 0.452536
H25   H     H_    0.498164 0.483550 0.175645 0.032129
O24   O     O_2   0.755587 0.534354 0.171599 -0.512703
C66   C     C_2   0.799425 0.489237 0.330076 0.392119
H26   H     H_    0.900015 0.491755 0.370661 0.026670
O25   O     O_2   0.707701 0.548635 0.297063 -0.527879
C67   C     C_1   0.212942 0.490889 0.705068 0.284264
N2    N     N_1   0.227272 0.425477 0.710081 -0.388118

loop_
_geom_bond_atom_site_label_1
_geom_bond_atom_site_label_2
_ccdc_geom_bond_type
C57   H19   S    
C31   C32   A    
C12   C14   S    
C23   C24   A    
C53   C54   S    
C1    O6    A    
C63   O23   D    
C55   C56   S    
C67   N2    T    
C21   C23   A    
C27   C28   A    
C10   C13   S    
C45   C51   S    
C11   C12   S    
C19   C20   A    
C8    C47   S    
C13   C14   S    
C9    C11   S    
C62   O22   D    
O5    C3    A    
C20   C21   A    
C19   H9    S    
C27   C62   S    
C33   C63   S    
C61   H22   S    
O15   C47   A    
V2    O10   S    
C54   C57   S    
C28   H10   S    
C5    H2    S    
C32   C33   A    
C6    H1    S    
O17   V4    S    
C53   H21   S    
C28   C29   A    
O8    V2    S    
C57   C58   S    
C17   H7    S    
O11   C46   A    
O1    V2    S    
C11   C13   S    
C25   C30   A    
C31   C36   A    
C42   C43   A    
C49   C53   S    
C35   C36   A    
C42   C66   S    
O9    C4    A    
O12   C45   A    
C6    C10   S    
O12   V3    S    
C63   H24   S    
C55   C57   S    
C66   O25   D    
C30   H11   S    
C35   C37   A    
C5    C9    S    
C50   C58   S    
C12   C16   S    
C43   C44   A    
C5    C12   S    
C13   H4    S    
O19   C48   A    
C51   C59   T    
C21   C22   A    
O4    C2    A    
V4    O20   S    
H12   C43   S    
C34   C35   A    
C56   C60   S    
H3    C14   S    
C1    C37   S    
C9    H6    S    
C24   C27   A    
C8    C16   T    
C20   C61   S    
O2    C1    A    
C25   C26   A    
C38   C39   A    
C11   H5    S    
C29   C67   S    
C29   C30   A    
C49   H17   S    
O15   V3    S    
C5    C6    S    
C6    C14   S    
C31   H13   S    
C9    C10   S    
V3    O20   S    
O3    C4    A    
O18   C47   A    
O6    V2    S    
C56   C58   S    
O9    V2    S    
C34   C64   S    
C24   C25   A    
O13   V3    S    
O2    V1    S    
C18   H8    S    
C66   H26   S    
H18   C58   S    
O7    V1    S    
C10   C15   S    
C2    C52   S    
C39   C44   A    
C18   C19   A    
C7    C15   T    
C38   C41   A    
O1    C2    A    
C40   C46   S    
O14   C46   A    
O17   V3    S    
O14   V3    S    
O5    V1    S    
O11   V4    S    
O8    C3    A    
C53   C55   S    
C23   C48   S    
C32   H14   S    
C36   C40   A    
C4    C7    S    
C50   C54   S    
C65   O24   D    
C17   C22   A    
O7    V2    S    
O4    V1    S    
C3    C26   S    
O3    V1    S    
V1    O10   S    
C65   H25   S    
O18   V4    S    
C33   C34   A    
C61   O21   D    
C44   H15   S    
O13   C48   A    
C37   C38   A    
C55   H20   S    
C39   C40   A    
C22   C26   A    
C49   C50   S    
C52   C60   T    
C41   C42   A    
C62   H23   S    
C41   C65   S    
O19   V4    S    
C17   C18   A    
C50   H16   S    
C54   C59   S    
C45   O16   A    
O16   V4    S    
C49   C56   S    
C64   N1    T    
