data_str_m2_o16_o16_f0_pcu.sym.160
_audit_creation_date              2012-12-10T17:31:21-0500
_audit_creation_method            fapswitch 2.2
_symmetry_space_group_name_H-M    P1
_symmetry_Int_Tables_number       1
_space_group_crystal_system       triclinic
_cell_length_a                    18.956659
_cell_length_b                    18.626925
_cell_length_c                    12.439878
_cell_angle_alpha                 90.196315
_cell_angle_beta                  129.854743
_cell_angle_gamma                 89.804685
_cell_volume                      3372.0302192

loop_
_atom_site_label
_atom_site_type_symbol
_atom_type_description
_atom_site_fract_x
_atom_site_fract_y
_atom_site_fract_z
_atom_type_partial_charge
C1    C     C_R   0.612225 0.898125 0.652612 0.792430
C2    C     C_R   0.612340 0.101650 0.652970 0.795813
C3    C     C_R   0.112188 0.398099 0.652562 0.792420
C4    C     C_R   0.112398 0.601609 0.653045 0.795656
C5    C     C_R   0.239451 0.779194 0.031405 0.082119
C6    C     C_R   0.239030 0.220454 0.030234 0.081205
C7    C     C_R   0.739452 0.279170 0.031437 0.081995
C8    C     C_R   0.739031 0.720434 0.030221 0.081270
C9    C     C_R   0.656587 0.276550 0.010338 0.069732
C10   C     C_R   0.656433 0.723907 0.009812 0.070042
C11   C     C_R   0.156359 0.776936 0.009673 0.069382
C12   C     C_R   0.156605 0.224203 0.010283 0.070181
C13   C     C_R   0.579655 0.242580 0.892746 -0.188543
C14   C     C_R   0.579550 0.758180 0.892628 -0.187203
C15   C     C_R   0.079447 0.743036 0.891917 -0.188410
C16   C     C_R   0.079713 0.258522 0.893212 -0.187301
C17   C     C_R   0.584757 0.208250 0.799192 -0.164802
C18   C     C_R   0.584505 0.792151 0.798964 -0.163654
C19   C     C_R   0.084749 0.708465 0.798763 -0.164826
C20   C     C_R   0.084522 0.292306 0.799254 -0.163644
C21   C     C_R   0.314202 0.815828 0.149426 -0.228245
C22   C     C_R   0.313820 0.183483 0.147829 -0.249877
C23   C     C_R   0.814196 0.315917 0.149244 -0.228428
C24   C     C_R   0.813844 0.683563 0.147986 -0.249846
C25   C     C_R   0.221968 0.852026 0.213407 0.409128
C26   C     C_R   0.222689 0.149868 0.214529 0.411476
C27   C     C_R   0.722436 0.351395 0.214438 0.408664
C28   C     C_R   0.722358 0.649374 0.213781 0.411699
C29   C     C_R   0.677817 0.159757 0.740529 -0.121882
C30   C     C_R   0.677258 0.839411 0.739340 -0.121818
C31   C     C_R   0.178034 0.659589 0.740833 -0.121757
C32   C     C_R   0.177109 0.339296 0.739120 -0.121882
C33   C     C_R   0.687265 0.001784 0.289005 0.248831
C34   C     C_R   0.187263 0.501734 0.289001 0.248830
C35   C     C_R   0.343203 0.010232 0.624788 -0.007520
C36   C     C_R   0.843205 0.510247 0.624782 -0.007424
C37   C     C_R   0.309956 0.030908 0.693327 0.359019
C38   C     C_R   0.809956 0.530913 0.693321 0.358805
C39   C     C_R   0.382139 0.097420 0.340110 0.795880
C40   C     C_R   0.382096 0.902776 0.340016 0.800108
C41   C     C_R   0.882104 0.597382 0.340059 0.795770
C42   C     C_R   0.882158 0.402716 0.340101 0.800460
C43   C     C_R   0.370991 0.035191 0.839047 -0.128835
C44   C     C_R   0.870988 0.535184 0.839043 -0.128673
C45   C     C_R   0.463299 0.012867 0.919267 -0.030434
C46   C     C_R   0.963296 0.512857 0.919265 -0.030464
C47   C     C_R   0.495297 0.002021 0.842914 0.246309
C48   C     C_R   0.995294 0.502011 0.842913 0.246297
C49   C     C_R   0.526802 0.007366 0.071374 -0.119467
C50   C     C_R   0.026800 0.507354 0.071372 -0.119461
C51   C     C_R   0.622260 0.003486 0.141571 -0.041818
C52   C     C_R   0.122257 0.503454 0.141568 -0.041818
C53   C     C_R   0.651914 0.000509 0.063489 -0.159727
C54   C     C_R   0.151910 0.500476 0.063485 -0.159755
C55   C     C_R   0.590175 0.998238 0.918745 -0.163330
C56   C     C_R   0.090172 0.498221 0.918742 -0.163345
C57   C     C_R   0.500814 0.001821 0.157310 0.418746
C58   C     C_R   0.000813 0.501826 0.157312 0.418730
C59   C     C_R   0.657679 0.001060 0.367120 0.440450
C60   C     C_R   0.157679 0.501022 0.367117 0.440492
C61   C     C_R   0.650075 0.310288 0.104278 -0.167166
C62   C     C_R   0.650042 0.690627 0.103878 -0.164977
C63   C     C_R   0.149604 0.810976 0.103118 -0.166623
C64   C     C_R   0.150390 0.191165 0.104711 -0.165136
C65   C     C_R   0.305563 0.854911 0.236577 -0.144600
C66   C     C_R   0.305774 0.145661 0.236543 -0.142104
C67   C     C_R   0.805743 0.354723 0.236851 -0.144456
C68   C     C_R   0.805658 0.645525 0.236355 -0.142110
C69   C     C_R   0.755996 0.166430 0.751800 -0.137909
C70   C     C_R   0.754917 0.831536 0.749469 -0.131904
C71   C     C_R   0.256438 0.665961 0.752649 -0.138232
C72   C     C_R   0.254603 0.331210 0.748862 -0.131652
C73   C     C_R   0.327203 0.711751 0.851030 -0.134052
C74   C     C_R   0.324603 0.284340 0.845523 -0.127341
C75   C     C_R   0.826631 0.212401 0.849854 -0.133913
C76   C     C_R   0.825012 0.784790 0.846355 -0.127486
C77   C     C_R   0.322849 0.749646 0.943071 -0.151447
C78   C     C_R   0.320680 0.247217 0.938327 -0.164307
C79   C     C_R   0.822409 0.250157 0.942153 -0.151545
C80   C     C_R   0.820992 0.747567 0.938970 -0.164270
C81   C     C_R   0.744728 0.244631 0.934561 0.110972
C82   C     C_R   0.743973 0.754359 0.932795 0.115145
C83   C     C_R   0.244922 0.744446 0.934892 0.110952
C84   C     C_R   0.243836 0.254231 0.932554 0.115223
C85   C     C_R   0.668522 0.203637 0.824169 0.073774
C86   C     C_R   0.668018 0.795937 0.823160 0.075839
C87   C     C_R   0.168660 0.703592 0.824246 0.073784
C88   C     C_R   0.167926 0.295907 0.823095 0.075802
Cu1   Cu    Cu3+1 0.526340 0.000000 0.421010 1.039313
Cu2   Cu    Cu3+1 0.026340 0.500000 0.421010 1.039283
Cu3   Cu    Cu3+1 0.473640 0.000000 0.578990 0.939970
Cu4   Cu    Cu3+1 0.973640 0.500000 0.578990 0.940058
H1    H     H_    0.724058 0.998201 0.113378 0.207705
H2    H     H_    0.224054 0.498158 0.113373 0.207699
H3    H     H_    0.297398 0.008261 0.512153 0.141715
H4    H     H_    0.797404 0.508298 0.512142 0.141850
H5    H     H_    0.345633 0.061226 0.885673 0.218421
H6    H     H_    0.845626 0.561215 0.885665 0.218534
H7    H     H_    0.620219 0.996089 0.869943 0.202932
H8    H     H_    0.120216 0.496082 0.869941 0.202925
H9    H     H_    0.514793 0.243040 0.872073 0.136995
H10   H     H_    0.514826 0.758287 0.872413 0.140196
H11   H     H_    0.014443 0.743748 0.870791 0.137152
H12   H     H_    0.015098 0.258815 0.873322 0.140080
H13   H     H_    0.586427 0.308260 0.087406 0.157962
H14   H     H_    0.586445 0.693016 0.087150 0.157071
H15   H     H_    0.085760 0.809261 0.085701 0.157940
H16   H     H_    0.086941 0.193800 0.088378 0.157225
H17   H     H_    0.380419 0.815643 0.175540 0.174110
H18   H     H_    0.379567 0.182581 0.172394 0.168342
H19   H     H_    0.880257 0.316011 0.174851 0.174510
H20   H     H_    0.879721 0.682894 0.172947 0.168135
H21   H     H_    0.763868 0.134684 0.687107 0.210031
H22   H     H_    0.762754 0.862852 0.684644 0.208498
H23   H     H_    0.264387 0.634099 0.688162 0.210155
H24   H     H_    0.262382 0.362444 0.683891 0.208434
H25   H     H_    0.380809 0.783631 0.017063 0.146794
H26   H     H_    0.377976 0.212295 0.010908 0.130084
H27   H     H_    0.880265 0.284293 0.015873 0.146909
H28   H     H_    0.878356 0.712739 0.011727 0.130236
H29   H     H_    0.387263 0.716234 0.858931 0.140557
H30   H     H_    0.383811 0.278401 0.851513 0.137337
H31   H     H_    0.886499 0.217135 0.857298 0.140686
H32   H     H_    0.884359 0.779025 0.852669 0.137209
H33   H     H_    0.521293 0.186946 0.705482 0.177733
H34   H     H_    0.521056 0.813723 0.705642 0.180054
H35   H     H_    0.021328 0.687187 0.704933 0.177488
H36   H     H_    0.021048 0.313894 0.706016 0.180274
N1    N     N_R   0.566260 0.000000 0.302220 -0.260118
N2    N     N_R   0.066260 0.500000 0.302220 -0.260095
N3    N     N_R   0.434410 0.000000 0.697680 -0.231735
N4    N     N_R   0.934410 0.500000 0.697680 -0.231713
O1    O     O_R   0.608610 0.924520 0.551740 -0.528330
O2    O     O_R   0.608610 0.075480 0.551740 -0.532666
O3    O     O_R   0.108610 0.424520 0.551740 -0.528365
O4    O     O_R   0.108610 0.575480 0.551740 -0.532638
O5    O     O_R   0.564110 0.924510 0.685150 -0.609445
O6    O     O_R   0.564110 0.075490 0.685150 -0.606796
O7    O     O_R   0.064110 0.424510 0.685150 -0.609569
O8    O     O_R   0.064110 0.575490 0.685150 -0.606685
O9    O     O_R   0.435880 0.075470 0.314850 -0.537365
O10   O     O_R   0.435880 0.924530 0.314850 -0.517941
O11   O     O_R   0.935880 0.575470 0.314850 -0.537171
O12   O     O_R   0.935880 0.424530 0.314850 -0.518215
O13   O     O_R   0.391380 0.075460 0.448260 -0.590401
O14   O     O_R   0.391380 0.924540 0.448260 -0.589454
O15   O     O_R   0.891380 0.575460 0.448260 -0.590520
O16   O     O_R   0.891380 0.424540 0.448260 -0.588997
O17   O     O_3   0.206555 0.890251 0.291428 -0.712096
H37   H     H_    0.231414 0.938940 0.304764 0.312580
O18   O     O_3   0.207609 0.112084 0.292774 -0.720522
H38   H     H_    0.228917 0.062529 0.299964 0.308346
O19   O     O_3   0.707365 0.389206 0.293237 -0.711476
H39   H     H_    0.731101 0.438233 0.305205 0.312548
O20   O     O_3   0.707068 0.611254 0.291476 -0.721026
H40   H     H_    0.729035 0.561882 0.299322 0.308203
Cl1   Cl    Cl    0.807028 0.000342 0.379061 -0.534667
Cl2   Cl    Cl    0.307025 0.500247 0.379053 -0.534709
Cl3   Cl    Cl    0.385268 0.986300 0.079903 -0.618868
Cl4   Cl    Cl    0.885265 0.486326 0.079916 -0.619128
O21   O     O_3   0.219437 0.050259 0.621022 -0.679338
H41   H     H_    0.185647 0.045016 0.519199 0.345531
O22   O     O_3   0.719439 0.550270 0.621016 -0.679435
H42   H     H_    0.685650 0.545032 0.519193 0.345502
Cl5   Cl    Cl    0.740845 0.999457 0.551065 -0.566866
Cl6   Cl    Cl    0.240845 0.499366 0.551058 -0.566976

loop_
_geom_bond_atom_site_label_1
_geom_bond_atom_site_label_2
_ccdc_geom_bond_type
C27   O19   S    
C83   C87   A    
C80   H28   S    
C40   O10   A    
Cu4   O16   S    
C14   C18   A    
O22   H42   S    
C24   H20   S    
C48   C56   A    
C42   O16   A    
O21   H41   S    
Cu1   N1    S    
C32   C72   A    
C75   H31   S    
C15   C19   A    
C69   H21   S    
C2    O2    A    
C2    C29   S    
C9    C61   A    
C57   N1    A    
C26   O18   S    
C78   H26   S    
C20   H36   S    
C77   H25   S    
C36   N4    A    
C6    C12   A    
C5    C83   A    
Cu1   O9    S    
C14   H10   S    
Cu3   N3    S    
C77   C83   A    
Cu1   O10   S    
C6    C22   A    
C49   C57   A    
C25   O17   S    
C25   C63   A    
C23   C67   A    
C9    C13   A    
C22   C66   A    
C26   C64   A    
C27   C61   A    
C6    C84   A    
Cu3   O5    S    
C44   H6    S    
C16   H12   S    
C12   C16   A    
C52   C54   A    
C22   H18   S    
C79   H27   S    
C28   O20   S    
C50   C52   A    
O18   H38   S    
C30   C86   A    
C61   H13   S    
C29   C85   A    
Cu2   O11   S    
C59   Cl5   S    
C81   C85   A    
C4    O4    A    
C21   C65   A    
C45   C47   A    
C57   Cl3   S    
C47   C55   A    
C33   C59   A    
C41   O11   A    
Cu4   O15   S    
C34   C60   A    
C10   C62   A    
C11   C15   A    
C1    O1    A    
C30   C70   A    
C33   Cl1   S    
C64   H16   S    
C41   C68   S    
C29   C69   A    
C53   C55   A    
C54   C56   A    
Cu1   O1    S    
C53   H1    S    
C2    O6    A    
C39   O9    A    
C31   C87   A    
C72   C74   A    
C10   C14   A    
C60   N2    A    
C71   C73   A    
C44   C46   A    
C49   C51   A    
C82   C86   A    
C60   Cl6   S    
C47   N3    A    
C51   C53   A    
C26   C66   A    
C37   C43   A    
C38   C44   A    
C4    O8    A    
Cu3   O6    S    
Cu2   O4    S    
C36   H4    S    
Cu2   Cu4   S    
C41   O15   A    
C45   C49   A    
C16   C20   A    
C70   H22   S    
C39   O13   A    
C50   C58   A    
C71   H23   S    
C18   C86   A    
C43   C45   A    
C34   Cl2   S    
C80   C82   A    
C38   O22   S    
C7    C81   A    
C73   H29   S    
C40   C65   S    
C70   C76   A    
C42   C67   S    
C39   C66   S    
C17   C85   A    
C3    O7    A    
C56   H8    S    
C13   H9    S    
Cu4   O8    S    
C35   N3    A    
Cu3   O13   S    
C1    O5    A    
C35   C37   A    
C37   O21   S    
C7    C9    A    
C12   C64   A    
C46   C50   A    
C59   N1    A    
Cu1   O2    S    
Cu4   N4    S    
C34   C52   A    
C43   H5    S    
C28   C68   A    
C21   H17   S    
C76   C80   A    
C79   C81   A    
C5    C11   A    
C62   H14   S    
C35   H3    S    
C33   C51   A    
C23   H19   S    
C72   H24   S    
C11   C63   A    
C40   O14   A    
C36   C38   A    
C19   C87   A    
C58   Cl4   S    
O17   H37   S    
C74   H30   S    
C42   O12   A    
Cu2   O3    S    
C17   H33   S    
C84   C88   A    
C75   C79   A    
C58   N2    A    
C7    C23   A    
C20   C88   A    
C19   H35   S    
C1    C30   S    
C8    C24   A    
C69   C75   A    
C3    O3    A    
C3    C32   S    
Cu2   O12   S    
C54   H2    S    
C4    C31   S    
C27   C67   A    
C24   C68   A    
C76   H32   S    
C13   C17   A    
Cu2   N2    S    
C46   C48   A    
C78   C84   A    
C8    C82   A    
C5    C21   A    
C8    C10   A    
Cu1   Cu3   S    
C74   C78   A    
C55   H7    S    
O20   H40   S    
C25   C65   A    
C73   C77   A    
C48   N4    A    
C15   H11   S    
O19   H39   S    
Cu4   O7    S    
C63   H15   S    
Cu3   O14   S    
C18   H34   S    
C28   C62   A    
C31   C71   A    
C32   C88   A    
