data_str_m9_o4_o18_f0_sra.sym.19
_audit_creation_date              2012-12-11T17:02:12-0500
_audit_creation_method            fapswitch 2.2
_symmetry_space_group_name_H-M    P1
_symmetry_Int_Tables_number       1
_space_group_crystal_system       triclinic
_cell_length_a                    21.659879
_cell_length_b                    7.073304
_cell_length_c                    14.863009
_cell_angle_alpha                 89.803611
_cell_angle_beta                  106.394224
_cell_angle_gamma                 89.911805
_cell_volume                      2184.51339001

loop_
_atom_site_label
_atom_site_type_symbol
_atom_type_description
_atom_site_fract_x
_atom_site_fract_y
_atom_site_fract_z
_atom_type_partial_charge
O1    O     O_R   0.585850 0.505770 0.002130 -0.536582
O2    O     O_R   0.414150 0.005770 0.997870 -0.537363
O3    O     O_R   0.467530 0.173560 0.861970 -0.537592
O4    O     O_R   0.532470 0.673560 0.138030 -0.537584
C1    C     C_R   0.455536 0.344766 0.825252 0.682966
C2    C     C_R   0.543725 0.843900 0.174922 0.681645
O5    O     O_R   0.588690 0.175900 0.993250 -0.544804
O6    O     O_R   0.411310 0.675900 0.006750 -0.544923
O7    O     O_R   0.536170 0.007950 0.130090 -0.537283
O8    O     O_R   0.463830 0.507950 0.869910 -0.536684
C3    C     C_R   0.615051 0.344669 0.997661 0.689585
C4    C     C_R   0.384994 0.844794 0.002533 0.686658
O9    O     O_3   0.482630 0.339970 0.044740 -0.373537
O10   O     O_3   0.517370 0.839970 0.955260 -0.372558
V1    V     V_3+5 0.503220 0.064200 0.991700 1.408721
V2    V     V_3+5 0.496780 0.564200 0.008300 1.409701
C5    C     C_R   0.278389 0.013688 0.965170 0.115774
C6    C     C_R   0.721895 0.511865 0.036550 0.104685
C7    C     C_R   0.315839 0.853310 0.999014 -0.117494
C8    C     C_R   0.684290 0.353080 0.001610 -0.117175
C9    C     C_R   0.284698 0.698574 0.026917 -0.172208
C10   C     C_R   0.715762 0.198435 0.974343 -0.186197
H1    H     H_    0.311737 0.572895 0.054829 0.147693
H2    H     H_    0.688941 0.072998 0.946608 0.146792
C11   C     C_R   0.219466 0.709617 0.025548 -0.189062
C12   C     C_R   0.781103 0.209337 0.976170 -0.172754
H3    H     H_    0.198150 0.590868 0.051579 0.137172
H4    H     H_    0.802710 0.090390 0.950971 0.136557
C13   C     C_R   0.183498 0.876709 0.997473 -0.113392
C14   C     C_R   0.816768 0.376557 0.003595 -0.110052
C15   C     C_R   0.214084 0.025707 0.965251 0.114376
C16   C     C_R   0.786144 0.523729 0.036907 0.117974
C17   C     C_3   0.221659 0.225679 0.997381 -0.436623
C18   C     C_3   0.780118 0.727371 0.010624 -0.419242
C19   C     C_3   0.291164 0.213511 0.995499 -0.408563
C20   C     C_3   0.710048 0.714802 0.010544 -0.408719
H5    H     H_    0.216386 0.243069 0.069194 0.185927
H6    H     H_    0.786286 0.753066 0.939788 0.181425
H7    H     H_    0.192468 0.323939 0.944040 0.178427
H8    H     H_    0.809602 0.818074 0.067579 0.180180
H9    H     H_    0.326273 0.226146 0.066076 0.174004
H10   H     H_    0.675612 0.733949 0.939758 0.175663
H11   H     H_    0.301644 0.302601 0.939811 0.168177
H12   H     H_    0.699123 0.798303 0.067466 0.167237
C21   C     C_R   0.926227 0.883170 0.723381 -0.055338
C22   C     C_R   0.074269 0.377111 0.275851 -0.043188
C23   C     C_R   0.571161 0.846856 0.276839 -0.032210
C24   C     C_R   0.427510 0.352577 0.723599 -0.031742
C25   C     C_R   0.937674 0.865726 0.567061 -0.155532
C26   C     C_R   0.062452 0.285317 0.426211 -0.151277
C27   C     C_R   0.965216 0.882346 0.663249 -0.189206
C28   C     C_R   0.035302 0.328006 0.332144 -0.175434
C29   C     C_R   0.859492 0.866894 0.687314 -0.193762
C30   C     C_R   0.141061 0.383579 0.313686 -0.192480
C31   C     C_R   0.830119 0.838583 0.590356 0.039103
C32   C     C_R   0.170453 0.329259 0.407833 0.035952
C33   C     C_R   0.870518 0.847620 0.529525 0.033521
C34   C     C_R   0.129658 0.288473 0.465383 0.040851
C35   C     C_R   0.762016 0.810683 0.551399 -0.067322
C36   C     C_R   0.238784 0.318660 0.447026 -0.065907
C37   C     C_R   0.735317 0.818227 0.451849 -0.056229
C38   C     C_R   0.264782 0.305154 0.546474 -0.054050
C39   C     C_R   0.777395 0.817246 0.395026 -0.249857
C40   C     C_R   0.222592 0.263828 0.601040 -0.231769
C41   C     C_R   0.843305 0.839599 0.431979 0.398232
C42   C     C_R   0.156348 0.252022 0.561298 0.389982
C43   C     C_R   0.719319 0.768909 0.606687 0.402478
C44   C     C_R   0.282337 0.310910 0.390798 0.406576
C45   C     C_R   0.652860 0.772705 0.566284 -0.265912
C46   C     C_R   0.348089 0.334609 0.431855 -0.274437
C47   C     C_R   0.626412 0.801172 0.470357 0.071094
C48   C     C_R   0.373417 0.345926 0.528838 0.071720
C49   C     C_R   0.667182 0.822815 0.411515 0.107623
C50   C     C_R   0.332457 0.326590 0.587801 0.108181
C51   C     C_R   0.559183 0.801446 0.432199 -0.145134
C52   C     C_R   0.440076 0.368960 0.567515 -0.144933
C53   C     C_R   0.531779 0.821322 0.335793 -0.175418
C54   C     C_R   0.466967 0.371660 0.664404 -0.173686
C55   C     C_R   0.637966 0.851322 0.314320 -0.194504
C56   C     C_R   0.360978 0.332568 0.686008 -0.190987
H13   H     H_    0.665478 0.876150 0.265283 0.087223
H14   H     H_    0.332999 0.324432 0.735469 0.087757
H15   H     H_    0.479959 0.814402 0.307020 0.101687
H16   H     H_    0.518572 0.386539 0.693233 0.098849
H17   H     H_    0.621606 0.747916 0.610683 0.136320
H18   H     H_    0.379900 0.337195 0.387098 0.139460
H19   H     H_    0.969294 0.867237 0.522140 0.153277
H20   H     H_    0.030435 0.248651 0.467770 0.132441
H21   H     H_    0.016912 0.896038 0.690719 0.128018
H22   H     H_    0.983797 0.322201 0.302811 0.106832
H23   H     H_    0.832049 0.884418 0.736748 0.156490
H24   H     H_    0.168675 0.433299 0.268319 0.151395
H25   H     H_    0.760641 0.800791 0.320046 0.140595
H26   H     H_    0.239653 0.232901 0.674940 0.135847
H27   H     H_    0.527797 0.781997 0.476822 0.116214
H28   H     H_    0.471556 0.382628 0.522655 0.115106
O11   O     O_R   0.036080 0.231270 0.130120 -0.537528
O12   O     O_R   0.963920 0.731270 0.869880 -0.540107
O13   O     O_R   0.911300 0.558970 0.006750 -0.537311
O14   O     O_R   0.088700 0.058970 0.993250 -0.538954
C57   C     C_R   0.884733 0.390023 0.001249 0.683127
C58   C     C_R   0.115355 0.889897 0.999146 0.681971
O15   O     O_R   0.032450 0.561140 0.138040 -0.538191
O16   O     O_R   0.967550 0.061140 0.861960 -0.539710
O17   O     O_R   0.085870 0.728910 0.002130 -0.545254
O18   O     O_R   0.914130 0.228910 0.997870 -0.540936
C59   C     C_R   0.046094 0.392022 0.174703 0.693274
C60   C     C_R   0.954868 0.892787 0.824900 0.689737
O19   O     O_3   0.017320 0.394650 0.955270 -0.373918
O20   O     O_3   0.982680 0.894650 0.044730 -0.368712
V3    V     V_3+5 0.996780 0.670490 0.008300 1.401698
V4    V     V_3+5 0.003220 0.170490 0.991700 1.399317
O21   O     O_3   0.740596 0.717055 0.700182 -0.587601
C61   C     C_3   0.760607 0.525471 0.708174 0.077334
H29   H     H_    0.804242 0.513679 0.769057 0.131577
H30   H     H_    0.774759 0.471755 0.646136 0.118397
C62   C     C_3   0.708001 0.400594 0.727204 -0.334593
H31   H     H_    0.700570 0.439676 0.795787 0.206272
H32   H     H_    0.662020 0.422950 0.671623 0.191568
C63   C     C_3   0.726199 0.192208 0.728640 -0.779466
H33   H     H_    0.729651 0.149895 0.658393 0.233983
H34   H     H_    0.688867 0.104765 0.746812 0.238674
H35   H     H_    0.773245 0.165983 0.781117 0.221018
O22   O     O_3   0.262844 0.268152 0.296073 -0.586807
C64   C     C_3   0.247705 0.073147 0.283782 0.078631
H36   H     H_    0.206634 0.058049 0.219587 0.127500
H37   H     H_    0.231420 0.009321 0.342040 0.122237
C65   C     C_3   0.305050 0.962197 0.269647 -0.336935
H38   H     H_    0.312230 0.000809 0.200762 0.199199
H39   H     H_    0.349524 0.998431 0.325489 0.195755
C66   C     C_3   0.294188 0.749563 0.273110 -0.777803
H40   H     H_    0.292723 0.707560 0.344523 0.233383
H41   H     H_    0.334193 0.672507 0.256219 0.228918
H42   H     H_    0.248093 0.709050 0.221961 0.232771
O23   O     O_3   0.880551 0.850024 0.370156 -0.578202
C67   C     C_3   0.891412 0.042060 0.351532 0.061996
H43   H     H_    0.929706 0.043183 0.315309 0.154495
H44   H     H_    0.909923 0.124865 0.417271 0.106168
C68   C     C_3   0.831185 0.138560 0.287060 -0.349754
H45   H     H_    0.811993 0.053046 0.222612 0.203385
H46   H     H_    0.793405 0.151014 0.323956 0.193512
C69   C     C_3   0.845917 0.337831 0.259687 -0.786625
H47   H     H_    0.870948 0.420548 0.322829 0.246654
H48   H     H_    0.800199 0.411367 0.224312 0.233696
H49   H     H_    0.876186 0.331814 0.210704 0.216109
O24   O     O_3   0.117954 0.199082 0.617348 -0.579152
C70   C     C_3   0.092382 0.361633 0.649363 0.057000
H50   H     H_    0.039526 0.342124 0.634235 0.139048
H51   H     H_    0.099714 0.496787 0.614417 0.116943
C71   C     C_3   0.121231 0.379262 0.755119 -0.318852
H52   H     H_    0.109799 0.250003 0.790057 0.200937
H53   H     H_    0.174389 0.392329 0.771784 0.188397
C72   C     C_3   0.094565 0.551776 0.792689 -0.783776
H54   H     H_    0.108685 0.683298 0.762667 0.216647
H55   H     H_    0.114591 0.556144 0.869782 0.237590
H56   H     H_    0.041303 0.543785 0.775352 0.237814

loop_
_geom_bond_atom_site_label_1
_geom_bond_atom_site_label_2
_ccdc_geom_bond_type
C14   C16   A    
C39   C41   A    
C31   C35   A    
C25   H19   S    
C28   H22   S    
C70   H50   S    
O1    C3    A    
C23   C55   A    
C48   C52   A    
C66   H42   S    
O2    C4    A    
C65   H38   S    
C44   O22   S    
C2    O7    A    
C61   H29   S    
C51   H27   S    
O23   C67   S    
O18   V4    S    
O5    C3    A    
C17   H7    S    
C18   H8    S    
C10   H2    S    
O15   V3    S    
C70   H51   S    
C52   C54   A    
O21   C61   S    
C62   H32   S    
C17   C19   S    
C68   C69   S    
C53   H15   S    
C22   C28   A    
C25   C33   A    
C14   C57   S    
C58   O17   A    
C36   C38   A    
C24   C54   A    
C45   C47   A    
O20   V3    S    
C38   C40   A    
O19   V3    S    
C35   C43   A    
C20   H10   S    
C34   C42   A    
C25   C27   A    
C71   C72   S    
C29   H23   S    
C64   C65   S    
C26   C28   A    
C15   C17   S    
C72   H55   S    
C19   H11   S    
C6    C8    A    
C21   C60   S    
C26   H20   S    
O5    V1    S    
O17   V3    S    
C21   C29   A    
O6    V2    S    
C50   C56   A    
C69   H49   S    
C67   C68   S    
C63   H34   S    
C29   C31   A    
C11   C13   A    
C1    C24   S    
C30   C32   A    
C3    C8    S    
C35   C37   A    
C69   H47   S    
C2    C23   S    
C26   C34   A    
C70   C71   S    
C67   H44   S    
C62   C63   S    
C55   H13   S    
O11   V4    S    
O3    C1    A    
C46   C48   A    
C17   H5    S    
C32   C36   A    
C43   C45   A    
C40   C42   A    
O4    V2    S    
C30   H24   S    
C45   H17   S    
O10   V1    S    
O6    C4    A    
O13   V3    S    
C22   C59   S    
C22   C30   A    
O14   C58   A    
C49   C55   A    
O1    V2    S    
C72   H56   S    
O2    V1    S    
C51   C53   A    
C41   O23   S    
C48   C50   A    
O13   C57   A    
C8    C10   A    
C12   C14   A    
C9    H1    S    
C64   H36   S    
C5    C15   A    
C71   H53   S    
O19   V4    S    
O4    C2    A    
C6    C16   A    
C23   C53   A    
C66   H40   S    
C46   H18   S    
C65   C66   S    
O16   C60   A    
C69   H48   S    
O3    V1    S    
C63   H33   S    
O16   V4    S    
O24   C70   S    
C57   O18   A    
C9    C11   A    
O12   V3    S    
C7    C9    A    
C18   H6    S    
O12   C60   A    
C37   C39   A    
C33   C41   A    
C67   H43   S    
C66   H41   S    
C65   H39   S    
C61   H30   S    
C68   H45   S    
C63   H35   S    
O14   V4    S    
C11   H3    S    
C39   H25   S    
C12   H4    S    
C37   C49   A    
C24   C56   A    
C31   C33   A    
C43   O21   S    
C40   H26   S    
C1    O8    A    
C13   C15   A    
O8    V2    S    
C62   H31   S    
C52   H28   S    
C47   C51   A    
C68   H46   S    
C4    C7    S    
C5    C7    A    
C56   H14   S    
C32   C34   A    
C13   C58   S    
C18   C20   S    
O7    V1    S    
C19   H9    S    
O20   V4    S    
C42   O24   S    
C61   C62   S    
C20   H12   S    
O11   C59   A    
C54   H16   S    
C36   C44   A    
C44   C46   A    
C10   C12   A    
O9    V2    S    
C47   C49   A    
C64   H37   S    
C21   C27   A    
C71   H52   S    
C38   C50   A    
O15   C59   A    
C5    C19   S    
C72   H54   S    
C6    C20   S    
C27   H21   S    
C16   C18   S    
O22   C64   S    
