data_str_m9_o3_o18_f0_sra.sym.57
_audit_creation_date              2012-12-11T16:44:21-0500
_audit_creation_method            fapswitch 2.2
_symmetry_space_group_name_H-M    P1
_symmetry_Int_Tables_number       1
_space_group_crystal_system       triclinic
_cell_length_a                    27.239253
_cell_length_b                    7.199262
_cell_length_c                    22.790148
_cell_angle_alpha                 90.00658
_cell_angle_beta                  101.507302
_cell_angle_gamma                 90.004492
_cell_volume                      4379.37117027

loop_
_atom_site_label
_atom_site_type_symbol
_atom_type_description
_atom_site_fract_x
_atom_site_fract_y
_atom_site_fract_z
_atom_type_partial_charge
O1    O     O_R   0.707300 0.594030 0.176840 -0.532111
O2    O     O_R   0.292700 0.405970 0.823160 -0.532564
O3    O     O_R   0.792700 0.094030 0.323160 -0.532035
O4    O     O_R   0.207300 0.905970 0.676840 -0.531683
O5    O     O_R   0.697330 0.262360 0.295660 -0.540398
O6    O     O_R   0.302670 0.737640 0.704340 -0.540793
O7    O     O_R   0.802670 0.762360 0.204340 -0.540420
O8    O     O_R   0.197330 0.237640 0.795660 -0.540075
C1    C     C_R   0.684718 0.432504 0.311663 0.679002
C2    C     C_R   0.315273 0.567500 0.688325 0.677781
C3    C     C_R   0.815279 0.932501 0.188332 0.678836
C4    C     C_R   0.184721 0.067499 0.811668 0.679666
O9    O     O_R   0.701410 0.264250 0.175600 -0.533177
O10   O     O_R   0.298590 0.735750 0.824400 -0.533856
O11   O     O_R   0.798590 0.764250 0.324400 -0.533115
O12   O     O_R   0.201410 0.235750 0.675600 -0.532766
O13   O     O_R   0.796800 0.094950 0.202240 -0.539897
O14   O     O_R   0.203200 0.905050 0.797760 -0.539512
O15   O     O_R   0.703200 0.594950 0.297760 -0.539896
O16   O     O_R   0.296800 0.405050 0.702240 -0.540091
C5    C     C_R   0.689792 0.432426 0.153392 0.689384
C6    C     C_R   0.310206 0.567575 0.846612 0.687447
C7    C     C_R   0.810204 0.932456 0.346611 0.689144
C8    C     C_R   0.189795 0.067544 0.653389 0.690124
O17   O     O_3   0.781290 0.427390 0.258880 -0.372648
O18   O     O_3   0.218710 0.572610 0.741120 -0.371655
O19   O     O_3   0.718710 0.927390 0.241120 -0.372670
O20   O     O_3   0.281290 0.072610 0.758880 -0.374151
V1    V     V_3+5 0.744190 0.152150 0.248350 1.435088
V2    V     V_3+5 0.255810 0.847850 0.751650 1.429323
V3    V     V_3+5 0.755810 0.652150 0.251650 1.435067
V4    V     V_3+5 0.244190 0.347850 0.748350 1.431827
C9    C     C_R   0.154936 0.063249 0.594819 -0.044942
C10   C     C_R   0.845064 0.936751 0.405180 -0.045180
C11   C     C_R   0.345066 0.563432 0.905186 -0.044361
C12   C     C_R   0.654919 0.436591 0.094832 -0.044926
C13   C     C_R   0.138993 0.134448 0.489295 -0.048026
C14   C     C_R   0.861008 0.865551 0.510705 -0.046977
C15   C     C_R   0.361098 0.636065 0.010619 -0.048021
C16   C     C_R   0.638947 0.364895 0.989338 -0.050869
C17   C     C_R   0.171842 0.122144 0.544250 -0.186554
C18   C     C_R   0.828159 0.877855 0.455750 -0.185784
C19   C     C_R   0.328234 0.623490 0.955682 -0.186394
C20   C     C_R   0.671828 0.377764 0.044255 -0.186920
C21   C     C_R   0.104260 0.016642 0.590085 -0.161759
C22   C     C_R   0.895740 0.983358 0.409915 -0.161861
C23   C     C_R   0.395693 0.516026 0.909972 -0.167120
C24   C     C_R   0.604232 0.482945 0.090115 -0.165109
C25   C     C_R   0.069194 0.030781 0.534460 0.065852
C26   C     C_R   0.930806 0.969219 0.465540 0.066023
C27   C     C_R   0.430792 0.530674 0.965561 0.063222
C28   C     C_R   0.569145 0.468411 0.034516 0.067850
C29   C     C_R   0.087614 0.091334 0.483278 -0.012881
C30   C     C_R   0.912386 0.908665 0.516721 -0.013360
C31   C     C_R   0.412431 0.592197 0.016681 -0.014810
C32   C     C_R   0.587527 0.407203 0.983377 0.001520
C33   C     C_R   0.016639 0.989733 0.528339 -0.009793
C34   C     C_R   0.983361 0.010267 0.471660 -0.009789
C35   C     C_R   0.483320 0.489100 0.971713 0.006742
C36   C     C_R   0.516610 0.509781 0.028379 -0.011197
C37   C     C_R   0.003591 0.070743 0.422648 -0.226113
C38   C     C_R   0.996409 0.929256 0.577352 -0.225920
C39   C     C_R   0.496427 0.571036 0.077341 -0.229700
C40   C     C_R   0.503510 0.427942 0.922746 -0.249342
C41   C     C_R   0.054367 0.109960 0.427445 0.435492
C42   C     C_R   0.945633 0.890039 0.572555 0.434848
C43   C     C_R   0.445690 0.610979 0.072502 0.435663
C44   C     C_R   0.554225 0.387477 0.927620 0.392337
H1    H     H_    0.906340 0.024648 0.368816 0.103939
H2    H     H_    0.093660 0.975353 0.631184 0.103996
H3    H     H_    0.593640 0.524338 0.131211 0.104565
H4    H     H_    0.406230 0.473671 0.868937 0.099500
H5    H     H_    0.789244 0.839370 0.452558 0.119578
H6    H     H_    0.210756 0.160629 0.547441 0.118764
H7    H     H_    0.710770 0.339755 0.047415 0.119708
H8    H     H_    0.289363 0.662630 0.952447 0.118886
H9    H     H_    0.980422 0.089962 0.379219 0.182247
H10   H     H_    0.019578 0.910036 0.620781 0.182205
H11   H     H_    0.519609 0.590410 0.120757 0.183007
H12   H     H_    0.480358 0.409399 0.879282 0.158247
C45   C     C_R   0.872712 0.117595 0.136665 -0.140699
C46   C     C_R   0.127288 0.882404 0.863335 -0.140974
C47   C     C_R   0.627270 0.617611 0.363305 -0.140280
C48   C     C_R   0.372663 0.382418 0.636590 -0.145390
H13   H     H_    0.859748 0.245004 0.153751 0.126684
H14   H     H_    0.140252 0.754996 0.846249 0.126884
H15   H     H_    0.640244 0.745014 0.346229 0.126695
H16   H     H_    0.359698 0.255003 0.653667 0.124950
C49   C     C_R   0.908379 0.130289 0.100385 -0.126215
C50   C     C_R   0.091620 0.869710 0.899615 -0.126288
C51   C     C_R   0.591586 0.630318 0.399562 -0.126226
C52   C     C_R   0.408309 0.369739 0.600280 -0.114439
C53   C     C_R   0.926612 0.969827 0.076796 0.097208
C54   C     C_R   0.073387 0.030172 0.923203 0.097204
C55   C     C_R   0.573338 0.469866 0.423136 0.097617
C56   C     C_R   0.426545 0.530213 0.576705 0.100079
C57   C     C_R   0.908520 0.795774 0.091142 -0.121703
C58   C     C_R   0.091478 0.204225 0.908856 -0.122188
C59   C     C_R   0.591433 0.295809 0.408798 -0.120047
C60   C     C_R   0.408472 0.704259 0.591087 -0.121032
H17   H     H_    0.921257 0.669265 0.073257 0.102297
H18   H     H_    0.078741 0.330734 0.926741 0.102169
H19   H     H_    0.578685 0.169309 0.426673 0.102943
H20   H     H_    0.421210 0.830777 0.573212 0.102215
C61   C     C_R   0.872829 0.782892 0.127633 -0.140817
C62   C     C_R   0.127170 0.217108 0.872366 -0.140935
C63   C     C_R   0.627141 0.282913 0.372330 -0.141062
C64   C     C_R   0.372802 0.717126 0.627606 -0.141952
H21   H     H_    0.859469 0.646671 0.137142 0.121292
H22   H     H_    0.140530 0.353329 0.862857 0.121378
H23   H     H_    0.640502 0.146690 0.362825 0.121407
H24   H     H_    0.359458 0.853345 0.637144 0.120499
C65   C     C_R   0.854197 0.943831 0.150691 -0.049935
C66   C     C_R   0.145802 0.056169 0.849309 -0.050162
C67   C     C_R   0.645787 0.443844 0.349287 -0.050093
C68   C     C_R   0.354173 0.556178 0.650657 -0.050621
C69   C     C_R   0.003166 0.854546 0.041210 -0.130172
C70   C     C_R   0.996833 0.145452 0.958789 -0.129827
C71   C     C_R   0.496766 0.354600 0.458688 -0.128607
C72   C     C_R   0.503098 0.645531 0.541122 -0.120727
H25   H     H_    0.006955 0.742482 0.073475 0.123459
H26   H     H_    0.993043 0.257517 0.926523 0.123860
H27   H     H_    0.492978 0.242522 0.426418 0.122947
H28   H     H_    0.506889 0.757602 0.573395 0.128575
C73   C     C_R   0.038516 0.869634 0.004458 -0.136657
C74   C     C_R   0.961483 0.130365 0.995540 -0.136045
C75   C     C_R   0.461409 0.369691 0.495431 -0.135757
C76   C     C_R   0.538453 0.630440 0.504378 -0.133750
H29   H     H_    0.068490 0.768549 0.009498 0.118771
H30   H     H_    0.931509 0.231450 0.990501 0.119344
H31   H     H_    0.431432 0.268596 0.490382 0.117643
H32   H     H_    0.568432 0.731530 0.509430 0.121185
C77   C     C_R   0.035843 0.015233 0.962684 0.076197
C78   C     C_R   0.964156 0.984765 0.037314 0.076250
C79   C     C_R   0.464083 0.515298 0.537215 0.076857
C80   C     C_R   0.535783 0.484823 0.462600 0.075402
S1    S     S_3+6 0.074448 0.184454 0.361606 0.019843
O21   O     O_2   0.096407 0.376172 0.371616 -0.315783
O22   O     O_2   0.113744 0.052987 0.348426 -0.306691
O23   O     O_3   0.026373 0.189359 0.302389 -0.505322
H33   H     H_    0.041240 0.231723 0.268425 0.377695
S2    S     S_3+6 0.925552 0.815545 0.638394 0.021612
O24   O     O_2   0.886257 0.947011 0.651574 -0.304885
O25   O     O_2   0.903594 0.623827 0.628383 -0.314847
O26   O     O_3   0.973627 0.810640 0.697611 -0.505239
H34   H     H_    0.958760 0.768275 0.731575 0.378113
S3    S     S_3+6 0.425672 0.686528 0.138273 0.019609
O27   O     O_2   0.403920 0.878496 0.128114 -0.316062
O28   O     O_2   0.386231 0.555849 0.151535 -0.306786
O29   O     O_3   0.473740 0.691284 0.197501 -0.505375
H35   H     H_    0.458867 0.733502 0.231478 0.377563
S4    S     S_3+6 0.574202 0.310194 0.861986 0.046155
O30   O     O_2   0.612676 0.442972 0.847514 -0.273316
O31   O     O_2   0.597498 0.120753 0.872819 -0.318702
O32   O     O_3   0.526170 0.299531 0.802785 -0.477418
H36   H     H_    0.508477 0.182294 0.808005 0.339450
H37   H     H_    0.154658 0.181322 0.451982 0.206849
H38   H     H_    0.845343 0.818677 0.548017 0.207546
H39   H     H_    0.345483 0.683770 0.047876 0.206901
H40   H     H_    0.654648 0.318567 0.951992 0.207062
H41   H     H_    0.922065 0.266399 0.091317 0.103875
H42   H     H_    0.077935 0.733600 0.908682 0.104004
H43   H     H_    0.577899 0.766430 0.408624 0.103746
H44   H     H_    0.421978 0.233631 0.591183 0.105339

loop_
_geom_bond_atom_site_label_1
_geom_bond_atom_site_label_2
_ccdc_geom_bond_type
O17   V3    S    
C59   H19   S    
O1    C5    A    
O19   V1    S    
C9    C21   A    
O3    C7    A    
S3    O27   D    
C10   C18   A    
O1    V3    S    
O15   V3    S    
O26   H34   S    
C25   C33   A    
C33   C38   A    
C5    C12   S    
C39   H11   S    
O7    C3    A    
C6    C11   S    
S1    O22   D    
C35   C40   A    
C26   C30   A    
C50   H42   S    
C36   C39   A    
C40   C44   A    
C61   C65   A    
S3    O28   D    
C75   C79   A    
C14   C18   A    
C76   C80   A    
C62   H22   S    
O4    C8    A    
C55   C59   A    
C54   C58   A    
C73   C77   A    
C52   C56   A    
C54   C77   S    
O13   V1    S    
O2    V4    S    
C70   H26   S    
C13   H37   S    
O3    V1    S    
C69   H25   S    
C22   H1    S    
C28   C36   A    
C17   H6    S    
C72   H28   S    
C1    O15   A    
C60   H20   S    
C15   C31   A    
C2    O16   A    
C16   C32   A    
C42   S2    S    
O2    C6    A    
C10   C22   A    
C11   C19   A    
C16   C20   A    
O5    V1    S    
C45   H13   S    
C45   C49   A    
C52   H44   S    
C34   C37   A    
O11   C7    A    
C11   C23   A    
C35   C36   A    
C48   C68   A    
C13   C17   A    
C40   H12   S    
S2    O26   S    
C51   H43   S    
C59   C63   A    
O10   V2    S    
C69   C78   A    
C76   H32   S    
C49   H41   S    
C16   H40   S    
C50   C54   A    
C56   C79   S    
C4    C66   S    
S1    O23   S    
C39   C43   A    
C60   C64   A    
O7    V3    S    
C38   C42   A    
O8    V4    S    
C47   C67   A    
S3    O29   S    
O23   H33   S    
C46   C66   A    
C53   C78   S    
C37   H9    S    
O18   V4    S    
C23   C27   A    
C32   C44   A    
C64   H24   S    
C1    C67   S    
C20   H7    S    
C13   C29   A    
O5    C1    A    
C44   S4    S    
C37   C41   A    
C14   H38   S    
C31   C43   A    
C14   C30   A    
S4    O32   S    
C21   C25   A    
O8    C4    A    
C7    C10   S    
C57   H17   S    
C26   C34   A    
O9    C5    A    
C63   C67   A    
C70   C77   A    
O14   V2    S    
O6    V2    S    
C62   C66   A    
C43   S3    S    
S2    O25   D    
C12   C20   A    
C27   C35   A    
C24   H3    S    
C4    O14   A    
C53   C57   A    
C29   C41   A    
O16   V4    S    
O9    V1    S    
C19   H8    S    
C61   H21   S    
C3    O13   A    
C18   H5    S    
C15   H39   S    
C21   H2    S    
O29   H35   S    
C63   H23   S    
C57   C61   A    
C38   H10   S    
C48   H16   S    
S4    O31   D    
C46   C50   A    
C47   H15   S    
O6    C2    A    
C15   C19   A    
C72   C76   A    
O11   V3    S    
C30   C42   A    
C71   H27   S    
O12   V4    S    
C47   C51   A    
S1    O21   D    
C22   C26   A    
C8    C9    S    
C58   C62   A    
C72   C79   A    
C9    C17   A    
O10   C6    A    
O20   V2    S    
C41   S1    S    
C70   C74   A    
C58   H18   S    
C71   C80   A    
C46   H14   S    
C64   C68   A    
C33   C34   A    
C25   C29   A    
C56   C60   A    
C55   C80   S    
C12   C24   A    
C27   C31   A    
C49   C53   A    
C3    C65   S    
C2    C68   S    
C75   H31   S    
C23   H4    S    
C51   C55   A    
C73   H29   S    
C24   C28   A    
S4    O30   D    
C74   C78   A    
O12   C8    A    
C45   C65   A    
O32   H36   S    
C74   H30   S    
S2    O24   D    
C48   C52   A    
C69   C73   A    
O4    V2    S    
C28   C32   A    
C71   C75   A    
