data_str_m4_o1_o14_f0_acs.sym.161
_audit_creation_date              2013-03-05T15:44:36-0500
_audit_creation_method            fapswitch 2.2
_symmetry_space_group_name_H-M    P1
_symmetry_Int_Tables_number       1
_space_group_crystal_system       triclinic
_cell_length_a                    19.111245
_cell_length_b                    10.947855
_cell_length_c                    18.892543
_cell_angle_alpha                 90.000346
_cell_angle_beta                  90.09983
_cell_angle_gamma                 89.999893
_cell_volume                      3952.82672264

loop_
_atom_site_label
_atom_site_type_symbol
_atom_site_description
_atom_site_fract_x
_atom_site_fract_y
_atom_site_fract_z
_atom_type_partial_charge
O1    O     O_R   0.787540 0.042690 0.170470 -0.469252
O2    O     O_R   0.212460 0.042690 0.829530 -0.468078
O3    O     O_R   0.287540 0.542690 0.170470 -0.468076
O4    O     O_R   0.712460 0.542690 0.829530 -0.469255
O5    O     O_R   0.765660 0.292160 0.175050 -0.415429
O6    O     O_R   0.234340 0.292160 0.824950 -0.420831
O7    O     O_R   0.265660 0.792160 0.175050 -0.420824
O8    O     O_R   0.734340 0.792160 0.824950 -0.415433
C1    C     C_R   0.728330 0.372234 0.143821 0.588684
C2    C     C_R   0.271663 0.372257 0.856171 0.585717
C3    C     C_R   0.228338 0.872258 0.143829 0.585727
C4    C     C_R   0.771671 0.872233 0.856179 0.588679
O9    O     O_R   0.670190 0.408980 0.168550 -0.534690
O10   O     O_R   0.329810 0.408980 0.831450 -0.530080
O11   O     O_R   0.170190 0.908980 0.168550 -0.530070
O12   O     O_R   0.829810 0.908980 0.831450 -0.534690
O13   O     O_R   0.556580 0.251450 0.175160 -0.522400
O14   O     O_R   0.443420 0.251450 0.824840 -0.521388
O15   O     O_R   0.056580 0.751450 0.175160 -0.521387
O16   O     O_R   0.943420 0.751450 0.824840 -0.522400
C5    C     C_R   0.532002 0.155996 0.146548 0.550449
C6    C     C_R   0.467995 0.155997 0.853455 0.551743
C7    C     C_R   0.032005 0.655997 0.146545 0.551748
C8    C     C_R   0.967998 0.655996 0.853452 0.550447
O17   O     O_R   0.545920 0.049510 0.170320 -0.515475
O18   O     O_R   0.454080 0.049510 0.829680 -0.514819
O19   O     O_R   0.045920 0.549510 0.170320 -0.514815
O20   O     O_R   0.954080 0.549510 0.829680 -0.515481
O21   O     O_R   0.681390 0.957840 0.176710 -0.514347
O22   O     O_R   0.318610 0.957840 0.823290 -0.509706
O23   O     O_R   0.181390 0.457840 0.176710 -0.509706
O24   O     O_R   0.818610 0.457840 0.823290 -0.514350
C9    C     C_R   0.741621 0.967638 0.148330 0.545776
C10   C     C_R   0.258380 0.967638 0.851671 0.551441
C11   C     C_R   0.241620 0.467637 0.148329 0.551436
C12   C     C_R   0.758379 0.467639 0.851670 0.545772
O25   O     O_R   0.787500 0.044280 0.330990 -0.531170
O26   O     O_R   0.212500 0.044280 0.669010 -0.521847
O27   O     O_R   0.287500 0.544280 0.330990 -0.521835
O28   O     O_R   0.712500 0.544280 0.669010 -0.531167
O29   O     O_R   0.765610 0.293630 0.323860 -0.473089
O30   O     O_R   0.234390 0.293630 0.676140 -0.506465
O31   O     O_R   0.265610 0.793630 0.323860 -0.506432
O32   O     O_R   0.734390 0.793630 0.676140 -0.473118
C13   C     C_R   0.711450 0.334710 0.360033 0.560754
C14   C     C_R   0.269684 0.380919 0.648534 0.574463
C15   C     C_R   0.230313 0.880915 0.351471 0.574474
C16   C     C_R   0.788548 0.834714 0.639966 0.560747
O33   O     O_R   0.670140 0.410570 0.329080 -0.436369
O34   O     O_R   0.329860 0.410570 0.670920 -0.453385
O35   O     O_R   0.170140 0.910570 0.329080 -0.453387
O36   O     O_R   0.829860 0.910570 0.670920 -0.436376
O37   O     O_R   0.556540 0.252920 0.323970 -0.484184
O38   O     O_R   0.443460 0.252920 0.676030 -0.513209
O39   O     O_R   0.056540 0.752920 0.323970 -0.513233
O40   O     O_R   0.943460 0.752920 0.676030 -0.484168
C17   C     C_R   0.530002 0.155944 0.352709 0.559860
C18   C     C_R   0.467206 0.156993 0.645713 0.567745
C19   C     C_R   0.032792 0.656996 0.354284 0.567751
C20   C     C_R   0.969995 0.655943 0.647289 0.559855
O41   O     O_R   0.545870 0.051100 0.330840 -0.450876
O42   O     O_R   0.454130 0.051100 0.669160 -0.448055
O43   O     O_R   0.045870 0.551100 0.330840 -0.448066
O44   O     O_R   0.954130 0.551100 0.669160 -0.450880
O45   O     O_R   0.681340 0.959300 0.325510 -0.489093
O46   O     O_R   0.318660 0.959300 0.674490 -0.475911
O47   O     O_R   0.181340 0.459300 0.325510 -0.475952
O48   O     O_R   0.818660 0.459300 0.674490 -0.489075
C21   C     C_R   0.742765 0.967771 0.352860 0.533728
C22   C     C_R   0.260332 0.978362 0.643052 0.562748
C23   C     C_R   0.239669 0.478362 0.356947 0.562697
C24   C     C_R   0.757234 0.467769 0.647140 0.533736
Cr1   Cr    Cr6+3 0.772000 0.169640 0.250110 1.125025
Cr2   Cr    Cr6+3 0.228000 0.169640 0.749890 1.119029
Cr3   Cr    Cr6+3 0.272000 0.669640 0.250110 1.119043
Cr4   Cr    Cr6+3 0.728000 0.669640 0.749890 1.125018
Cr5   Cr    Cr6+3 0.614960 0.323350 0.249260 1.080023
Cr6   Cr    Cr6+3 0.385040 0.323350 0.750740 1.069903
Cr7   Cr    Cr6+3 0.114960 0.823350 0.249260 1.069885
Cr8   Cr    Cr6+3 0.885040 0.823350 0.750740 1.080026
Cr9   Cr    Cr6+3 0.616670 0.010620 0.250840 1.082815
Cr10  Cr    Cr6+3 0.383330 0.010620 0.749160 1.105618
Cr11  Cr    Cr6+3 0.116670 0.510620 0.250840 1.105601
Cr12  Cr    Cr6+3 0.883330 0.510620 0.749160 1.082818
O49   O     O_3   0.667880 0.167870 0.250070 -0.312692
O50   O     O_3   0.332120 0.167870 0.749930 -0.298594
O51   O     O_3   0.167880 0.667870 0.250070 -0.298585
O52   O     O_3   0.832120 0.667870 0.749930 -0.312686
H1    H     H_    0.511709 0.970908 0.061369 0.236079
H2    H     H_    0.488295 0.970907 0.938633 0.235730
H3    H     H_    0.011696 0.470907 0.061368 0.235731
H4    H     H_    0.988283 0.470907 0.938632 0.236077
C25   C     C_R   0.494615 0.166449 0.925937 0.001263
C26   C     C_R   0.505373 0.166446 0.074069 0.002138
C27   C     C_R   0.994625 0.666445 0.925932 0.002146
C28   C     C_R   0.005383 0.666449 0.074063 0.001257
C29   C     C_R   0.500645 0.279760 0.962402 0.014521
C30   C     C_R   0.499334 0.279757 0.037608 0.014691
C31   C     C_R   0.000666 0.779756 0.962392 0.014690
C32   C     C_R   0.999355 0.779760 0.037599 0.014522
C33   C     C_R   0.504042 0.057924 0.035856 -0.082080
C34   C     C_R   0.495952 0.057925 0.964148 -0.082869
C35   C     C_R   0.004041 0.557925 0.035853 -0.082875
C36   C     C_R   0.995951 0.557924 0.964145 -0.082073
C37   C     C_R   0.507145 0.392725 0.926675 -0.122244
C38   C     C_R   0.492831 0.392718 0.073340 -0.122460
C39   C     C_R   0.007172 0.892716 0.926661 -0.122461
C40   C     C_R   0.992858 0.892727 0.073326 -0.122242
C41   C     C_R   0.004194 0.002767 0.963520 -0.122590
C42   C     C_R   0.995835 0.002772 0.036462 -0.121909
C43   C     C_R   0.504169 0.502771 0.963539 -0.121913
C44   C     C_R   0.495810 0.502768 0.036481 -0.122586
H5    H     H_    0.516941 0.398076 0.870503 0.152574
H6    H     H_    0.483036 0.398061 0.129513 0.153103
H7    H     H_    0.016967 0.898057 0.870488 0.153106
H8    H     H_    0.983062 0.898080 0.129498 0.152571
H9    H     H_    0.007628 0.088231 0.935111 0.215872
H10   H     H_    0.992402 0.088241 0.064868 0.216396
H11   H     H_    0.507603 0.588239 0.935133 0.216399
H12   H     H_    0.492376 0.588233 0.064890 0.215869
C45   C     C_R   0.694143 0.871222 0.040371 -0.114073
C46   C     C_R   0.305861 0.871233 0.959637 -0.113715
C47   C     C_R   0.194139 0.371233 0.040363 -0.113715
C48   C     C_R   0.805857 0.371221 0.959628 -0.114073
H13   H     H_    0.645836 0.851931 0.067989 0.178159
H14   H     H_    0.354162 0.851910 0.932015 0.178846
H15   H     H_    0.145837 0.351916 0.067984 0.178847
H16   H     H_    0.854162 0.351924 0.932009 0.178158
C49   C     C_R   0.696824 0.860313 0.966749 0.253233
C50   C     C_R   0.303184 0.860341 0.033262 0.253708
C51   C     C_R   0.196817 0.360342 0.966738 0.253707
C52   C     C_R   0.803176 0.360312 0.033251 0.253234
C53   C     C_R   0.758792 0.895874 0.931152 0.014251
C54   C     C_R   0.241224 0.895934 0.068863 0.015733
C55   C     C_R   0.258777 0.395928 0.931139 0.015735
C56   C     C_R   0.741209 0.395879 0.068849 0.014252
C57   C     C_R   0.816678 0.935466 0.970848 -0.166423
C58   C     C_R   0.183348 0.935575 0.029171 -0.165652
C59   C     C_R   0.316655 0.435560 0.970832 -0.165649
C60   C     C_R   0.683326 0.435481 0.029154 -0.166425
H17   H     H_    0.865421 0.960741 0.946151 0.174722
H18   H     H_    0.134613 0.960898 0.053870 0.175449
H19   H     H_    0.365392 0.460875 0.946133 0.175450
H20   H     H_    0.634583 0.460763 0.053852 0.174721
C61   C     C_R   0.813682 0.942007 0.043239 -0.122592
C62   C     C_R   0.186335 0.942089 0.956779 -0.123171
C63   C     C_R   0.313667 0.442075 0.043223 -0.123166
C64   C     C_R   0.686320 0.442021 0.956763 -0.122598
H21   H     H_    0.858759 0.975138 0.071641 0.190978
H22   H     H_    0.141261 0.975242 0.928382 0.191276
H23   H     H_    0.358742 0.475222 0.071622 0.191271
H24   H     H_    0.641244 0.475158 0.928362 0.190983
C65   C     C_R   0.751516 0.916678 0.078153 -0.026980
C66   C     C_R   0.248490 0.916705 0.921856 -0.026951
C67   C     C_R   0.251510 0.416700 0.078145 -0.026951
C68   C     C_R   0.748484 0.416683 0.921847 -0.026980
C69   C     C_R   0.501070 0.046568 0.463956 0.182558
C70   C     C_R   0.508861 0.053557 0.537178 0.182148
C71   C     C_R   0.991107 0.553576 0.462809 0.182156
C72   C     C_R   0.998896 0.546572 0.536030 0.182550
C73   C     C_R   0.491407 0.163584 0.572080 -0.032078
C74   C     C_R   0.497866 0.156056 0.423876 -0.023921
C75   C     C_R   0.002120 0.656052 0.576117 -0.023922
C76   C     C_R   0.008582 0.663596 0.427914 -0.032069
C77   C     C_R   0.475553 0.268085 0.531661 -0.172375
C78   C     C_R   0.479707 0.264457 0.458029 -0.144892
C79   C     C_R   0.020294 0.764451 0.541970 -0.144865
C80   C     C_R   0.024450 0.768085 0.468338 -0.172368
H25   H     H_    0.457791 0.351480 0.556708 0.197226
H26   H     H_    0.466298 0.344609 0.427691 0.205508
H27   H     H_    0.033712 0.844595 0.572311 0.205499
H28   H     H_    0.042225 0.851476 0.443295 0.197131
C81   C     C_R   0.821570 0.944031 0.453323 -0.114351
C82   C     C_R   0.205738 0.018158 0.528110 -0.132771
C83   C     C_R   0.294292 0.518107 0.471891 -0.132786
C84   C     C_R   0.678434 0.444060 0.546671 -0.114344
H29   H     H_    0.860618 0.996888 0.425243 0.191783
H30   H     H_    0.169460 0.080121 0.553458 0.177843
H31   H     H_    0.330590 0.580046 0.446551 0.177763
H32   H     H_    0.639392 0.496943 0.574745 0.191800
C85   C     C_R   0.830434 0.929755 0.525292 0.183504
C86   C     C_R   0.205774 0.012984 0.455005 0.185356
C87   C     C_R   0.294236 0.512942 0.544994 0.185405
C88   C     C_R   0.669569 0.429772 0.474704 0.183524
C89   C     C_R   0.780681 0.858160 0.563682 -0.011787
C90   C     C_R   0.249946 0.927775 0.421023 0.016593
C91   C     C_R   0.250052 0.427763 0.578976 0.016598
C92   C     C_R   0.719314 0.358152 0.436318 -0.011775
C93   C     C_R   0.723556 0.806715 0.527057 -0.118888
C94   C     C_R   0.301000 0.865359 0.460456 -0.138910
C95   C     C_R   0.198991 0.365367 0.539542 -0.138892
C96   C     C_R   0.776426 0.306675 0.472950 -0.118883
H33   H     H_    0.685694 0.750286 0.554339 0.205543
H34   H     H_    0.335919 0.800595 0.435621 0.199664
H35   H     H_    0.164061 0.300623 0.564376 0.199735
H36   H     H_    0.814278 0.250218 0.445673 0.205519
C97   C     C_R   0.712249 0.834584 0.455842 -0.096174
C98   C     C_R   0.304728 0.880589 0.533288 -0.110429
C99   C     C_R   0.195268 0.380606 0.466709 -0.110447
C100  C     C_R   0.787731 0.334540 0.544166 -0.096166
H37   H     H_    0.665644 0.803115 0.429405 0.232326
H38   H     H_    0.346175 0.836427 0.562512 0.241382
H39   H     H_    0.153813 0.336480 0.437479 0.241421
H40   H     H_    0.834321 0.303029 0.570613 0.232313
C101  C     C_R   0.759977 0.907690 0.419718 -0.032345
C102  C     C_R   0.254521 0.951408 0.567885 -0.024530
C103  C     C_R   0.245490 0.451395 0.432113 -0.024573
C104  C     C_R   0.740018 0.407689 0.580282 -0.032351
N1    N     N_R   0.884730 0.002914 0.557344 0.095661
O53   O     O_R   0.932332 0.954171 0.597161 -0.314804
O54   O     O_R   0.896257 0.112424 0.533512 -0.307880
N2    N     N_R   0.159474 0.092150 0.416302 0.069891
O55   O     O_R   0.181215 0.147385 0.359401 -0.329414
O56   O     O_R   0.097142 0.115773 0.440350 -0.297780
N3    N     N_R   0.340520 0.592102 0.583711 0.069898
O57   O     O_R   0.402974 0.615330 0.559825 -0.297620
O58   O     O_R   0.318691 0.647573 0.640510 -0.329623
N4    N     N_R   0.615278 0.502936 0.442646 0.095690
O59   O     O_R   0.567669 0.454191 0.402838 -0.314815
O60   O     O_R   0.603761 0.612457 0.466468 -0.307918
S1    S     S_3+6 0.619448 0.815173 0.922562 -0.027363
O61   O     O_2   0.628168 0.693447 0.887883 -0.291901
O62   O     O_2   0.561638 0.803334 0.975144 -0.327456
O63   O     O_3   0.599006 0.919826 0.860747 -0.524644
H41   H     H_    0.564108 0.879302 0.829846 0.378780
S2    S     S_3+6 0.380557 0.815196 0.077452 -0.028332
O64   O     O_2   0.371832 0.693469 0.112129 -0.291817
O65   O     O_2   0.438367 0.803352 0.024872 -0.326776
O66   O     O_3   0.400994 0.919848 0.139271 -0.528859
H42   H     H_    0.435841 0.879286 0.170214 0.376989
S3    S     S_3+6 0.119443 0.315204 0.922547 -0.028331
O67   O     O_2   0.128164 0.193481 0.887864 -0.291821
O68   O     O_2   0.061632 0.303360 0.975126 -0.326772
O69   O     O_3   0.099007 0.419864 0.860732 -0.528864
H43   H     H_    0.064164 0.379305 0.829784 0.376987
S4    S     S_3+6 0.880552 0.315164 0.077436 -0.027366
O70   O     O_2   0.871828 0.193436 0.112110 -0.291899
O71   O     O_2   0.938361 0.303326 0.024853 -0.327460
O72   O     O_3   0.900995 0.419809 0.139256 -0.524639
H44   H     H_    0.935896 0.379283 0.170151 0.378776
N5    N     N_R   0.493343 0.929070 0.430623 0.114537
O73   O     O_R   0.538268 0.842272 0.442087 -0.246525
O74   O     O_R   0.443919 0.911887 0.384213 -0.337096
N6    N     N_R   0.531266 0.947717 0.576145 0.112810
O75   O     O_R   0.492491 0.850050 0.577803 -0.233974
O76   O     O_R   0.585476 0.955089 0.617687 -0.321140
N7    N     N_R   0.968686 0.447753 0.423834 0.112799
O77   O     O_R   0.007446 0.350068 0.422170 -0.233880
O78   O     O_R   0.914477 0.455153 0.382297 -0.321135
N8    N     N_R   0.006608 0.429064 0.569354 0.114593
O79   O     O_R   0.961668 0.342290 0.557888 -0.246518
O80   O     O_R   0.056039 0.411842 0.615750 -0.337070

loop_
_geom_bond_atom_site_label_1
_geom_bond_atom_site_label_2
_geom_bond_distance
_ccdc_geom_bond_type
C18   O42   1.266115 A    
Cr11  O51   1.980362 S    
O4    C12   1.272373 A    
O47   Cr11  1.956324 S    
C77   C78   1.394066 A    
O39   C19   1.279744 A    
C98   C102  1.396850 A    
C39   C41   1.392793 A    
C97   C101  1.393028 A    
O72   H44   0.990496 S    
C83   C103  1.401999 A    
C40   H8    1.079538 S    
C56   C60   1.404007 A    
O63   H41   0.990497 S    
C82   C86   1.382288 A    
O29   Cr1   1.949217 S    
Cr7   O51   1.980009 S    
C29   C30   1.421105 A    
C41   H9    1.080721 S    
O27   Cr3   2.074755 S    
C24   C104  1.461129 S    
C38   C44   1.392792 A    
N6    O75   1.301339 A    
C53   C57   1.404007 A    
C59   C63   1.370811 A    
O5    C1    1.274399 A    
C69   C70   1.393193 A    
C45   C65   1.398813 A    
C38   H6    1.079546 S    
C73   C77   1.408186 A    
C96   H36   1.082678 S    
C57   C61   1.370822 A    
H1    C33   1.077541 S    
C11   C67   1.451127 S    
S1    O63   1.681551 S    
O25   C21   1.266679 A    
N3    O58   1.302261 A    
C86   C90   1.413129 A    
C27   C31   1.423517 A    
O47   C23   1.279323 A    
O20   Cr12  2.077610 S    
C5    C26   1.464465 S    
C26   C30   1.423520 A    
N8    O80   1.301317 A    
O21   C9    1.275196 A    
O8    Cr4   1.955548 S    
C20   C75   1.479118 S    
O23   Cr11  1.957344 S    
C7    C28   1.464478 S    
C48   C52   1.397066 A    
C85   N1    1.443178 S    
N5    O73   1.298615 A    
O30   C14   1.281180 A    
O32   Cr4   1.949228 S    
C1    O9    1.271418 A    
O44   Cr12  2.078145 S    
C5    O17   1.277154 A    
C19   C76   1.468516 S    
C70   C73   1.413430 A    
C62   H22   1.077033 S    
C3    O11   1.271415 A    
O11   Cr7   2.079340 S    
C17   C74   1.479120 S    
O16   C8    1.266495 A    
C26   C33   1.390433 A    
S4    O71   1.492679 D    
C98   H38   1.079109 S    
C97   H37   1.076989 S    
O6    Cr2   1.955548 S    
C7    O19   1.277164 A    
C14   C91   1.459110 S    
O3    Cr3   2.070069 S    
C82   H30   1.082290 S    
C51   S3    1.767350 S    
C91   C95   1.404054 A    
O2    Cr2   2.070081 S    
C52   C56   1.417451 A    
C48   H16   1.082052 S    
C29   C37   1.414506 A    
Cr6   O50   1.980012 S    
C23   C103  1.454509 S    
C37   C43   1.392792 A    
Cr5   O49   1.980009 S    
C100  C104  1.393028 A    
C74   C78   1.394975 A    
C99   H39   1.079102 S    
C46   C66   1.398830 A    
C60   C64   1.370818 A    
C71   N7    1.437659 S    
C50   C54   1.417435 A    
C59   H19   1.078700 S    
C4    O12   1.271418 A    
O34   Cr6   2.071815 S    
O13   Cr5   1.954173 S    
C81   C101  1.394399 A    
O7    C3    1.274424 A    
C95   H35   1.081345 S    
N7    O78   1.301100 A    
C77   H25   1.083170 S    
O24   Cr12  1.957351 S    
O8    C4    1.274398 A    
C95   C99   1.387781 A    
C64   H24   1.077042 S    
C32   C40   1.414506 A    
O30   Cr2   1.949228 S    
O22   C10   1.275195 A    
O1    C9    1.272376 A    
O48   Cr12  1.956319 S    
C33   C34   1.363272 A    
C72   N8    1.439700 S    
C76   C80   1.408192 A    
O36   Cr8   2.071815 S    
C2    C55   1.461159 S    
C49   S1    1.767358 S    
S4    O70   1.494435 D    
C2    O10   1.271416 A    
C3    C54   1.461161 S    
C45   C49   1.397063 A    
C79   C80   1.394068 A    
C44   H12   1.080721 S    
O16   Cr8   1.954177 S    
C96   C100  1.396063 A    
C83   H31   1.082314 S    
O26   Cr2   2.074744 S    
N8    O79   1.298607 A    
Cr10  O50   1.980359 S    
O7    Cr3   1.955558 S    
O13   C5    1.266491 A    
Cr4   O52   1.989956 S    
O40   C20   1.296201 A    
C88   C92   1.430711 A    
O48   C24   1.285138 A    
N5    O74   1.301321 A    
Cr12  O52   1.980359 S    
C46   H14   1.082054 S    
C85   C89   1.430713 A    
O15   C7    1.266487 A    
N3    O57   1.301842 A    
C72   C75   1.419076 A    
C45   H13   1.082051 S    
O66   H42   0.990496 S    
C87   C91   1.413061 A    
C100  H40   1.076990 S    
O46   Cr10  1.956319 S    
S1    O61   1.494436 D    
O39   Cr7   1.959283 S    
O3    C11   1.272387 A    
C84   H32   1.083776 S    
O45   Cr9   1.956324 S    
C71   C72   1.393185 A    
C62   C66   1.387900 A    
C12   C68   1.451093 S    
C81   H29   1.083775 S    
C75   C79   1.394976 A    
O14   Cr6   1.954177 S    
C39   H7    1.079545 S    
C87   N3    1.437449 S    
C99   C103  1.396858 A    
N1    O53   1.294546 A    
C37   H5    1.079539 S    
S3    O68   1.492673 D    
C70   N6    1.437659 S    
O29   C13   1.320270 A    
Cr2   O50   1.989956 S    
C15   C90   1.459062 S    
O15   Cr7   1.954173 S    
C42   H10   1.080722 S    
C52   S4    1.767354 S    
O35   Cr7   2.071807 S    
Cr1   O49   1.989956 S    
O18   Cr10  2.077610 S    
C6    O18   1.277160 A    
C89   C93   1.408976 A    
C49   C53   1.417450 A    
C43   H11   1.080722 S    
Cr3   O51   1.989956 S    
O26   C22   1.264317 A    
N2    O56   1.301626 A    
O21   Cr9   1.957344 S    
C78   H26   1.078731 S    
C10   C66   1.451129 S    
S2    O65   1.492673 D    
C4    C53   1.461173 S    
C48   C68   1.398813 A    
O9    Cr5   2.079340 S    
C58   H18   1.078699 S    
O37   Cr5   1.959283 S    
C6    C25   1.464479 S    
O23   C11   1.275195 A    
C19   O43   1.266130 A    
C8    C27   1.464465 S    
O69   H43   0.990497 S    
C25   C29   1.423535 A    
C47   H15   1.082055 S    
C35   C36   1.363272 A    
C63   C67   1.387900 A    
C27   C36   1.390437 A    
C94   C98   1.387762 A    
C8    O20   1.277151 A    
C83   C87   1.382256 A    
O38   C18   1.279761 A    
C80   H28   1.083177 S    
C93   C97   1.396051 A    
C84   C88   1.378774 A    
C57   H17   1.078694 S    
O37   C17   1.296201 A    
O22   Cr10  1.957351 S    
O28   C24   1.266671 A    
C43   C44   1.387555 A    
C47   C51   1.397093 A    
O14   C6    1.266491 A    
C21   C101  1.461118 S    
C51   C55   1.417433 A    
O5    Cr1   1.955558 S    
C60   H20   1.078697 S    
H3    C35   1.077542 S    
O17   Cr9   2.077612 S    
O40   Cr8   1.959276 S    
C25   C34   1.390436 A    
C54   C58   1.403999 A    
C15   O35   1.266928 A    
N7    O77   1.301333 A    
O24   C12   1.275197 A    
C13   C92   1.471328 S    
C17   O41   1.257213 A    
C22   C102  1.454495 S    
S2    O66   1.681566 S    
C31   C39   1.414505 A    
C92   C96   1.408979 A    
C14   O34   1.266945 A    
O25   Cr1   2.074755 S    
C30   C38   1.414504 A    
C31   C32   1.421105 A    
C79   H27   1.078737 S    
N4    O60   1.299606 A    
C20   O44   1.257207 A    
C55   C59   1.404000 A    
O1    Cr1   2.070069 S    
C84   C104  1.394409 A    
O19   Cr11  2.077612 S    
C61   C65   1.387893 A    
C16   C89   1.471324 S    
S1    O62   1.492677 D    
O32   C16   1.320268 A    
H2    C34   1.077542 S    
C41   C42   1.387555 A    
O2    C10   1.272384 A    
N4    O59   1.294548 A    
O46   C22   1.279294 A    
C40   C42   1.392792 A    
C58   C62   1.370809 A    
O45   C21   1.285125 A    
C63   H23   1.077032 S    
C28   C32   1.423539 A    
C88   N4    1.443176 S    
N1    O54   1.299608 A    
N6    O76   1.301140 A    
C13   O33   1.285847 A    
S3    O69   1.681566 S    
C9    C65   1.451092 S    
O33   Cr5   2.071807 S    
O10   Cr6   2.079327 S    
O42   Cr10  2.078145 S    
C86   N2    1.437548 S    
C69   N5    1.439705 S    
O4    Cr4   2.070081 S    
O6    C2    1.274423 A    
C94   H34   1.081346 S    
C81   C85   1.378786 A    
C1    C56   1.461174 S    
C93   H33   1.082678 S    
C16   O36   1.285843 A    
C61   H21   1.077042 S    
N2    O55   1.302114 A    
C50   S2    1.767348 S    
Cr8   O52   1.980012 S    
S2    O64   1.494437 D    
H4    C36   1.077541 S    
O28   Cr4   2.074744 S    
O43   Cr11  2.078141 S    
S3    O67   1.494440 D    
C82   C102  1.401946 A    
O31   Cr3   1.949217 S    
C71   C76   1.413407 A    
O41   Cr9   2.078141 S    
C90   C94   1.404058 A    
C64   C68   1.387895 A    
O12   Cr8   2.079327 S    
C28   C35   1.390433 A    
C18   C73   1.468531 S    
O31   C15   1.281219 A    
C69   C74   1.419069 A    
C46   C50   1.397094 A    
S4    O72   1.681552 S    
Cr9   O49   1.980362 S    
C47   C67   1.398831 A    
O38   Cr6   1.959276 S    
O27   C23   1.264292 A    
