data_str_m2_o16_o18_f0_pcu.sym.76
_audit_creation_date              2013-03-05T15:54:53-0500
_audit_creation_method            fapswitch 2.2
_symmetry_space_group_name_H-M    P1
_symmetry_Int_Tables_number       1
_space_group_crystal_system       triclinic
_cell_length_a                    12.430837
_cell_length_b                    13.402167
_cell_length_c                    14.441273
_cell_angle_alpha                 93.399595
_cell_angle_beta                  108.677861
_cell_angle_gamma                 117.793074
_cell_volume                      1952.79809325

loop_
_atom_site_label
_atom_site_type_symbol
_atom_site_description
_atom_site_fract_x
_atom_site_fract_y
_atom_site_fract_z
_atom_type_partial_charge
O1    O     O_R   0.545970 0.684450 0.528810 -0.538445
O2    O     O_R   0.687130 0.639470 0.490120 -0.544158
C1    C     C_R   0.654149 0.714984 0.513556 0.867783
O3    O     O_R   0.519670 0.535100 0.660030 -0.562555
O4    O     O_R   0.660830 0.490120 0.621340 -0.517277
C2    C     C_R   0.616392 0.513504 0.686796 0.939324
Cu1   Cu    Cu3+1 0.416420 0.526630 0.522910 1.062893
Cu2   Cu    Cu3+1 0.583580 0.473370 0.477090 1.066602
O5    O     O_R   0.312870 0.360530 0.509880 -0.572923
O6    O     O_R   0.454030 0.315550 0.471190 -0.592838
O7    O     O_R   0.339170 0.509880 0.378660 -0.590566
O8    O     O_R   0.480330 0.464900 0.339970 -0.546513
C3    C     C_R   0.344894 0.285615 0.484783 0.810268
C4    C     C_R   0.377089 0.478079 0.312839 0.826549
C5    C     C_R   0.669514 0.506471 0.793481 -0.225770
C6    C     C_R   0.295948 0.452070 0.203691 -0.225208
C7    C     C_R   0.665143 0.507825 0.962198 0.400886
C8    C     C_R   0.615307 0.519001 0.863161 0.186744
C9    C     C_R   0.774979 0.485780 0.826272 0.406986
C10   C     C_R   0.808853 0.454411 0.918971 -0.057125
C11   C     C_R   0.760443 0.474425 0.989010 -0.034019
C12   C     C_R   0.899359 0.413741 0.946757 -0.154336
C13   C     C_R   0.974353 0.432328 0.050730 0.037840
C14   C     C_R   0.931327 0.464106 0.122485 0.464935
C15   C     C_R   0.815992 0.470137 0.088110 -0.069651
C16   C     C_R   0.920393 0.359861 0.872773 0.264310
C17   C     C_R   0.043389 0.369586 0.896673 0.347766
C18   C     C_R   0.130954 0.401730 0.998857 -0.098361
C19   C     C_R   0.090561 0.422883 0.076352 -0.012946
C20   C     C_R   0.253590 0.405556 0.024945 0.394282
C21   C     C_R   0.338783 0.437518 0.127647 0.219453
C22   C     C_R   0.169201 0.435113 0.176164 -0.126834
H1    H     H_    0.777217 0.482481 0.141943 0.243004
H2    H     H_    0.132857 0.426418 0.234742 0.252244
C23   C     C_R   0.143323 0.960900 0.375987 0.358177
H3    H     H_    0.326574 0.099548 0.378378 0.204765
C24   C     C_R   0.250082 0.162185 0.467008 -0.110540
C25   C     C_R   0.775928 0.917997 0.621175 0.193016
C26   C     C_R   0.900588 0.020938 0.669482 0.364714
C27   C     C_R   0.998552 0.046132 0.631498 0.281230
C28   C     C_R   0.965007 0.982359 0.534379 -0.039415
C29   C     C_R   0.841417 0.878299 0.487332 -0.021523
C30   C     C_R   0.054463 0.015312 0.485498 0.064984
C31   C     C_R   0.037289 0.932901 0.407407 -0.077143
C32   C     C_R   0.912625 0.829695 0.360941 0.364675
C33   C     C_R   0.814043 0.808493 0.396616 -0.108500
C34   C     C_R   0.155245 0.130897 0.507845 -0.078062
C35   C     C_R   0.248357 0.076380 0.405595 -0.205040
C36   C     C_R   0.751881 0.840824 0.535698 -0.190900
H4    H     H_    0.156780 0.198621 0.553776 0.208122
H5    H     H_    0.716743 0.733254 0.354983 0.192340
C37   C     C_R   0.250524 0.636826 0.689406 -0.203359
H6    H     H_    0.442276 0.681265 0.696168 0.210783
H7    H     H_    0.077235 0.654027 0.736527 0.181035
H8    H     H_    0.289812 0.690855 0.764455 0.180393
N1    N     N_R   0.290690 0.566960 0.557640 -0.228039
C38   C     C_R   0.649542 0.347590 0.358259 0.054399
C39   C     C_R   0.719098 0.304641 0.327711 0.186524
C40   C     C_R   0.854508 0.349886 0.386630 0.243806
C41   C     C_R   0.921766 0.445210 0.472582 -0.159689
C42   C     C_R   0.844359 0.483818 0.502096 0.123845
C43   C     C_R   0.063202 0.504593 0.531650 0.040760
C44   C     C_R   0.114519 0.574054 0.629781 0.045905
C45   C     C_R   0.032543 0.592252 0.664302 -0.204503
C46   C     C_R   0.911041 0.569447 0.596038 0.464874
C47   C     C_R   0.158105 0.504009 0.497334 0.134937
C48   C     C_R   0.337430 0.633730 0.650786 0.235110
N2    N     N_R   0.709100 0.433710 0.442970 -0.232365
H9    H     H_    0.129075 0.455520 0.422932 0.174505
H10   H     H_    0.544553 0.308679 0.315372 0.196370
O9    O     O_3   0.288763 0.380087 0.949000 -0.619051
H11   H     H_    0.364063 0.367827 0.976200 0.389487
N3    N     N_R   0.880525 0.747463 0.274591 0.165080
O10   O     O_R   0.837342 0.639239 0.277338 -0.328300
O11   O     O_R   0.878753 0.776933 0.190115 -0.272862
N4    N     N_R   0.150462 0.873667 0.319880 0.162834
O12   O     O_R   0.133772 0.780293 0.350914 -0.296084
O13   O     O_R   0.198438 0.897078 0.250782 -0.273756
N5    N     N_R   0.682053 0.884717 0.667329 0.118550
O14   O     O_R   0.707261 0.857151 0.753411 -0.303730
O15   O     O_R   0.575520 0.889689 0.626621 -0.300325
N6    N     N_R   0.134496 0.123331 0.698527 0.144619
O16   O     O_R   0.219240 0.088693 0.713547 -0.290763
O17   O     O_R   0.173230 0.226450 0.747485 -0.194925
O18   O     O_3   0.934454 0.092720 0.759348 -0.586940
H12   H     H_    0.853555 0.077605 0.769280 0.381516
N7    N     N_R   0.913629 0.283760 0.371399 0.125980
O19   O     O_R   0.925620 0.266220 0.286642 -0.308676
O20   O     O_R   0.956480 0.241007 0.443368 -0.361260
N8    N     N_R   0.648081 0.209126 0.240045 0.174346
O21   O     O_R   0.531210 0.123454 0.225508 -0.283077
O22   O     O_R   0.687027 0.218654 0.165802 -0.261454
N9    N     N_R   0.897891 0.668565 0.606436 0.131854
O23   O     O_R   0.884764 0.701765 0.686669 -0.343627
O24   O     O_R   0.958617 0.748615 0.565079 -0.368283
N10   N     N_R   0.469835 0.458427 0.154323 0.130489
O25   O     O_R   0.570038 0.563065 0.199871 -0.303849
O26   O     O_R   0.489443 0.371665 0.145915 -0.332925
O27   O     O_3   0.075329 0.346604 0.818655 -0.546977
H13   H     H_    0.147518 0.422552 0.819087 0.368900
O28   O     O_3   0.625962 0.532070 0.035669 -0.624338
H14   H     H_    0.563597 0.559567 0.009705 0.388362
N11   N     N_R   0.516388 0.550824 0.836736 0.111611
O29   O     O_R   0.391956 0.470373 0.793848 -0.303198
O30   O     O_R   0.549696 0.658004 0.868774 -0.332482
O31   O     O_3   0.853270 0.509706 0.772171 -0.680613
H15   H     H_    0.946260 0.546457 0.821072 0.311917
O32   O     O_3   0.003602 0.495164 0.225176 -0.719905
H16   H     H_    0.959665 0.515997 0.262663 0.355517
N12   N     N_R   0.816213 0.294862 0.773968 0.179761
O33   O     O_R   0.693839 0.234174 0.764515 -0.296368
O34   O     O_R   0.842354 0.291796 0.693821 -0.275594

loop_
_geom_bond_atom_site_label_1
_geom_bond_atom_site_label_2
_geom_bond_distance
_ccdc_geom_bond_type
C5    C8    1.419366 A    
N7    O19   1.300399 A    
O28   H14   0.986942 S    
C28   C30   1.418349 A    
C28   C29   1.409910 A    
C9    C10   1.420180 A    
C20   O9    1.382906 S    
C1    C36   1.482916 S    
Cu1   Cu2   2.733686 S    
C25   C36   1.416604 A    
O18   H12   0.989326 S    
C6    C21   1.404820 A    
C5    C9    1.406020 A    
C17   O27   1.371613 S    
C16   C17   1.394494 A    
N9    O23   1.301837 A    
O4    C2    1.325761 A    
C13   C19   1.439943 A    
C41   C43   1.451270 A    
C18   C19   1.428273 A    
N4    O13   1.301391 A    
C19   C22   1.407208 A    
C29   C33   1.406952 A    
C20   C21   1.414332 A    
O7    C4    1.316670 A    
C47   H9    1.075705 S    
C25   N5    1.432824 S    
C21   N10   1.428409 S    
O32   H16   0.991457 S    
C32   N3    1.427253 S    
N3    O10   1.299180 A    
C7    O28   1.380664 S    
N12   O33   1.301636 A    
O5    C3    1.311450 A    
C2    C5    1.497424 S    
N10   O26   1.301067 A    
C13   C14   1.433966 A    
C14   O32   1.379985 S    
C38   H10   1.080792 S    
C24   C34   1.388190 A    
C16   N12   1.445324 S    
C3    C24   1.459158 S    
C37   H8    1.084239 S    
C46   N9    1.417211 S    
C40   C41   1.422325 A    
N9    O24   1.298860 A    
N3    O11   1.301068 A    
Cu1   N1    2.060138 S    
O3    Cu1   1.947046 S    
C23   C35   1.400846 A    
C34   H4    1.080958 S    
C40   N7    1.435871 S    
C23   N4    1.435848 S    
C43   C47   1.421271 A    
C27   N6    1.437431 S    
C14   C15   1.401956 A    
O3    C2    1.311075 A    
C26   C27   1.401512 A    
N5    O15   1.300798 A    
C39   C40   1.412320 A    
C32   C33   1.394597 A    
C33   H5    1.079893 S    
O6    C3    1.308552 A    
C7    C11   1.405344 A    
N5    O14   1.301155 A    
C41   C42   1.440882 A    
O1    C1    1.308273 A    
C22   H2    1.068027 S    
Cu1   O7    1.942762 S    
C30   C31   1.419654 A    
C43   C44   1.411576 A    
N8    O22   1.300491 A    
O27   H13   0.992577 S    
Cu2   O8    1.947046 S    
N10   O25   1.299114 A    
C7    C8    1.412866 A    
N11   O30   1.301046 A    
N4    O12   1.301491 A    
C24   C35   1.397610 A    
C23   C31   1.423402 A    
C39   N8    1.434877 S    
C37   C48   1.380149 A    
C27   C28   1.422085 A    
C10   C12   1.425677 A    
Cu2   N2    2.048095 S    
N6    O17   1.298925 A    
N7    O20   1.301123 A    
C12   C16   1.412391 A    
C4    C6    1.487293 S    
C26   O18   1.382495 S    
C38   N2    1.353660 A    
N8    O21   1.301356 A    
C17   C18   1.416518 A    
C31   C32   1.410651 A    
Cu1   O5    1.941857 S    
C11   C15   1.393579 A    
O1    Cu1   1.946457 S    
O2    Cu2   1.941858 S    
O8    C4    1.315031 A    
C37   C44   1.400998 A    
O4    Cu2   1.942762 S    
C6    C22   1.395109 A    
N1    C48   1.348921 A    
C45   C46   1.388019 A    
C18   C20   1.423209 A    
O2    C1    1.319880 A    
O9    H11   0.986428 S    
C42   N2    1.402347 A    
C38   C39   1.397091 A    
C25   C26   1.411066 A    
H7    C45   1.086050 S    
N1    C47   1.372373 A    
H3    C35   1.083517 S    
C8    N11   1.430864 S    
H6    C48   1.078472 S    
N12   O34   1.301766 A    
C29   C36   1.413199 A    
C44   C45   1.374474 A    
C9    O31   1.373355 S    
C42   C46   1.432678 A    
C10   C11   1.401906 A    
Cu2   O6    1.946457 S    
N6    O16   1.301510 A    
O31   H15   0.991189 S    
N11   O29   1.300240 A    
C12   C13   1.424137 A    
C30   C34   1.394731 A    
C15   H1    1.078519 S    
