data_str_m2_o10_o29_f0_pcu.sym.56
_audit_creation_date              2012-10-26T20:17:40-0400
_audit_creation_method            fapswitch 2.2
_symmetry_space_group_name_H-M    P1
_symmetry_Int_Tables_number       1
_space_group_crystal_system       triclinic
_cell_length_a                    27.695918
_cell_length_b                    8.674917
_cell_length_c                    7.530046
_cell_angle_alpha                 102.53872
_cell_angle_beta                  95.645716
_cell_angle_gamma                 94.055066
_cell_volume                      1749.53921623

loop_
_atom_site_label
_atom_site_type_symbol
_atom_type_description
_atom_site_fract_x
_atom_site_fract_y
_atom_site_fract_z
_atom_type_partial_charge
C1    C     C_R   0.495206 0.199814 0.454921 0.574815
C2    C     C_R   0.864281 0.332557 0.363080 0.015221
C3    C     C_R   0.353999 0.482839 0.500296 0.014939
C4    C     C_R   0.643619 0.474447 0.494367 0.027557
C5    C     C_R   0.965957 0.310357 0.367264 0.014702
C6    C     C_R   0.029124 0.448067 0.692371 0.015380
C7    C     C_R   0.977619 0.442603 0.694799 -0.001322
C8    C     C_R   0.017231 0.304144 0.368936 -0.001544
C9    C     C_R   0.946362 0.379314 0.530796 0.027979
C10   C     C_R   0.048663 0.378993 0.528633 0.026989
C11   C     C_R   0.933464 0.254297 0.205147 -0.151171
C12   C     C_R   0.504274 0.799663 0.545101 0.574667
C13   C     C_R   0.062059 0.525280 0.847016 -0.149281
C14   C     C_R   0.883816 0.263904 0.204018 -0.129134
C15   C     C_R   0.111905 0.536156 0.840369 -0.121956
C16   C     C_R   0.407437 0.497805 0.499766 0.550589
C17   C     C_R   0.592015 0.496533 0.499088 0.530694
C18   C     C_R   0.038117 0.226300 0.214394 -0.125765
C19   C     C_R   0.956357 0.503884 0.855246 -0.128616
C20   C     C_2   0.486417 0.031267 0.440472 0.214599
C21   C     C_2   0.513703 0.967460 0.559316 0.220578
C22   C     C_R   0.171907 0.331445 0.366981 0.394835
C23   C     C_R   0.100109 0.387182 0.524137 -0.042566
C24   C     C_R   0.823254 0.457526 0.679476 0.391034
C25   C     C_R   0.181673 0.486654 0.673234 0.399885
C26   C     C_R   0.814483 0.352455 0.357126 0.389856
C27   C     C_R   0.271188 0.511402 0.378950 -0.036685
C28   C     C_R   0.708600 0.307240 0.418402 -0.045368
C29   C     C_R   0.321510 0.530802 0.369152 -0.035217
C30   C     C_R   0.658728 0.327470 0.407571 -0.035016
C31   C     C_R   0.334983 0.415665 0.635791 -0.170693
C32   C     C_R   0.678116 0.599844 0.581736 -0.168532
C33   C     C_R   0.284976 0.393372 0.640513 -0.070123
C34   C     C_R   0.895092 0.387620 0.528850 -0.040058
C35   C     C_R   0.727623 0.581192 0.583247 -0.058944
C36   C     C_R   0.252748 0.441422 0.512684 0.221924
C37   C     C_R   0.743364 0.433874 0.504953 0.221728
C38   C     C_3   0.463636 0.305050 0.936065 -0.129777
C39   C     C_3   0.538822 0.692110 0.064286 -0.120773
C40   C     C_3   0.105911 0.148645 0.030816 -0.342058
C41   C     C_3   0.889042 0.605472 0.029396 -0.345045
C42   C     C_3   0.622223 0.191190 0.308830 -0.401156
C43   C     C_3   0.339244 0.605453 0.221656 -0.383446
C44   C     C_3   0.433011 0.941930 0.169873 0.001570
C45   C     C_R   0.120390 0.315815 0.363736 0.032158
C46   C     C_3   0.384219 0.005550 0.124657 -0.267781
C47   C     C_3   0.368450 0.966057 0.918353 -0.469503
C48   C     C_3   0.594784 0.988132 0.684942 -0.016937
C49   C     C_3   0.636070 0.115751 0.777025 -0.244266
C50   C     C_3   0.686200 0.054578 0.765651 -0.470358
C51   C     C_R   0.874642 0.454297 0.690317 0.030954
C52   C     C_R   0.088468 0.232046 0.208017 -0.006354
C53   C     C_R   0.906253 0.515719 0.854685 -0.008822
C54   C     C_R   0.131346 0.469411 0.680388 0.022210
Cu1   Cu    Cu3+1 0.505380 0.517380 0.684380 0.939971
Cu2   Cu    Cu3+1 0.494620 0.482620 0.315620 0.915092
H1    H     H_    0.358822 0.376879 0.736796 0.109445
H2    H     H_    0.050917 0.583940 0.975370 0.110070
H3    H     H_    0.015792 0.156621 0.095227 0.110122
H4    H     H_    0.978101 0.545486 0.985494 0.113036
H5    H     H_    0.438215 0.260375 0.021096 0.094948
H6    H     H_    0.440664 0.313359 0.811784 0.134584
H7    H     H_    0.491224 0.218784 0.909929 0.165317
H8    H     H_    0.564265 0.735811 0.977593 0.098720
H9    H     H_    0.513028 0.782640 0.095494 0.102836
H10   H     H_    0.561984 0.680563 0.186552 0.136555
H11   H     H_    0.075357 0.091772 0.924777 0.104471
H12   H     H_    0.666492 0.712535 0.646869 0.092735
H13   H     H_    0.126840 0.235300 0.971848 0.183660
H14   H     H_    0.128522 0.053034 0.055558 0.181464
H15   H     H_    0.919573 0.652975 0.139239 0.105191
H16   H     H_    0.870340 0.708492 0.002187 0.164544
H17   H     H_    0.864114 0.527184 0.084552 0.204524
H18   H     H_    0.600505 0.225280 0.194277 0.168413
H19   H     H_    0.640144 0.083437 0.252735 0.102462
H20   H     H_    0.596786 0.161243 0.403261 0.146131
H21   H     H_    0.309203 0.651870 0.145803 0.143457
H22   H     H_    0.366920 0.706027 0.284538 0.179331
H23   H     H_    0.271235 0.338091 0.743725 0.149439
H24   H     H_    0.355323 0.516371 0.120854 0.152980
H25   H     H_    0.430249 0.814178 0.100727 0.169771
H26   H     H_    0.462535 0.002058 0.112064 0.128471
H27   H     H_    0.355582 0.952281 0.192463 0.181680
H28   H     H_    0.387127 0.135886 0.179190 0.171671
H29   H     H_    0.397223 0.010320 0.844153 0.144170
H30   H     H_    0.334643 0.022299 0.889404 0.162743
H31   H     H_    0.360983 0.835587 0.866590 0.170655
H32   H     H_    0.602220 0.936398 0.542291 0.098053
H33   H     H_    0.593820 0.893393 0.763279 0.145640
H34   H     H_    0.753821 0.681141 0.647639 0.141674
H35   H     H_    0.634599 0.218665 0.712136 0.197451
H36   H     H_    0.631109 0.158793 0.922828 0.172670
H37   H     H_    0.690218 0.962503 0.846564 0.147210
H38   H     H_    0.714800 0.154001 0.823584 0.206319
H39   H     H_    0.691592 0.004766 0.620869 0.139412
H40   H     H_    0.720535 0.192840 0.359916 0.140665
H41   H     H_    0.245947 0.549788 0.281643 0.153793
H42   H     H_    0.860808 0.220934 0.075097 0.170044
H43   H     H_    0.135277 0.598904 0.962320 0.166286
H44   H     H_    0.945028 0.207461 0.073441 0.112555
N1    N     N_R   0.200926 0.418992 0.518047 -0.393311
N2    N     N_R   0.794775 0.413327 0.513942 -0.394624
N3    N     N_2   0.486510 0.456430 0.038510 -0.143913
N4    N     N_2   0.513490 0.543570 0.961490 -0.132475
O1    O     O_R   0.503500 0.286120 0.619780 -0.483187
O2    O     O_2   0.801437 0.501441 0.832408 -0.501400
O3    O     O_2   0.786125 0.314055 0.194528 -0.502693
O4    O     O_2   0.211193 0.573038 0.819740 -0.518879
O5    O     O_3   0.441250 0.952395 0.360590 -0.614946
O6    O     O_3   0.550377 0.059251 0.686906 -0.604253
O7    O     O_R   0.496500 0.713880 0.380220 -0.518213
O8    O     O_R   0.494410 0.256780 0.308360 -0.539075
O9    O     O_R   0.505590 0.743220 0.691640 -0.518938
O10   O     O_R   0.434810 0.514700 0.655690 -0.520518
O11   O     O_R   0.565190 0.485300 0.344310 -0.517539
O12   O     O_R   0.425720 0.485350 0.344280 -0.504042
O13   O     O_R   0.574280 0.514650 0.655720 -0.500870
O14   O     O_2   0.193325 0.259584 0.222064 -0.518151

loop_
_geom_bond_atom_site_label_1
_geom_bond_atom_site_label_2
_ccdc_geom_bond_type
C48   O6    S    
Cu1   Cu2   S    
C23   C45   A    
C27   C29   A    
C25   N1    A    
C21   O6    S    
C18   C52   A    
C39   N4    S    
C43   H22   S    
C39   H8    S    
C34   C51   A    
C22   N1    A    
C40   H14   S    
Cu1   O1    S    
C47   H29   S    
C35   C37   A    
C38   H7    S    
C44   H26   S    
C11   H44   S    
C1    O8    A    
C37   N2    S    
C11   C14   A    
C50   H39   S    
C33   C36   A    
C7    C9    A    
C3    C29   A    
C40   H11   S    
C48   H32   S    
Cu2   O7    S    
C17   O13   A    
C41   H15   S    
C38   H5    S    
C44   O5    S    
C2    C34   A    
C24   C51   A    
C29   C43   S    
C39   H9    S    
C49   H35   S    
C16   O12   A    
C44   C46   S    
C14   H42   S    
Cu2   O12   S    
C42   H18   S    
C40   H13   S    
C32   C35   A    
C25   C54   A    
C44   H25   S    
C33   H23   S    
C13   H2    S    
Cu1   O9    S    
C45   C52   A    
C43   H24   S    
C40   C52   S    
Cu1   N4    S    
C8    C18   A    
C20   O5    S    
C36   N1    S    
C51   C53   A    
C47   H31   S    
C47   H30   S    
C5    C9    A    
C38   N3    S    
C31   C33   A    
C42   H19   S    
C2    C26   A    
C3    C31   A    
C41   C53   S    
C4    C32   A    
C41   H16   S    
C46   H28   S    
C4    C17   S    
C48   C49   S    
C7    C19   A    
C48   H33   S    
C13   C15   A    
C9    C34   A    
C19   H4    S    
C39   H10   S    
C24   O2    S    
C49   H36   S    
C17   O11   A    
C23   C54   A    
C12   O9    A    
Cu1   O13   S    
C22   O14   S    
C46   C47   S    
C27   H41   S    
C1    C20   S    
C15   C54   A    
C50   H38   S    
Cu2   N3    S    
C15   H43   S    
C16   O10   A    
C26   O3    S    
C6    C10   A    
C5    C8    A    
C50   H37   S    
C5    C11   A    
C6    C7    A    
Cu1   O10   S    
C10   C23   A    
C43   H21   S    
C42   H20   S    
C32   H12   S    
C28   H40   S    
C27   C36   A    
C31   H1    S    
C28   C30   A    
C26   N2    A    
C6    C13   A    
C19   C53   A    
C28   C37   A    
C12   C21   S    
Cu2   O11   S    
C24   N2    A    
C2    C14   A    
C41   H17   S    
C46   H27   S    
C35   H34   S    
C18   H3    S    
C22   C45   A    
C20   C21   D    
C8    C10   A    
C49   C50   S    
N3    N4    D    
C30   C42   S    
Cu2   O8    S    
C12   O7    A    
C4    C30   A    
C3    C16   S    
C25   O4    S    
C1    O1    A    
C38   H6    S    
