data_str_m2_o12_o29_f0_pcu.sym.180
_audit_creation_date              2012-12-10T17:08:45-0500
_audit_creation_method            fapswitch 2.2
_symmetry_space_group_name_H-M    P1
_symmetry_Int_Tables_number       1
_space_group_crystal_system       triclinic
_cell_length_a                    27.908689
_cell_length_b                    10.927162
_cell_length_c                    9.744776
_cell_angle_alpha                 109.713168
_cell_angle_beta                  98.152085
_cell_angle_gamma                 91.101625
_cell_volume                      2762.17724032

loop_
_atom_site_label
_atom_site_type_symbol
_atom_type_description
_atom_site_fract_x
_atom_site_fract_y
_atom_site_fract_z
_atom_type_partial_charge
C1    C     C_R   0.494120 0.253628 0.443124 0.887638
C2    C     C_R   0.500866 0.745897 0.556714 0.892196
C3    C     C_R   0.102379 0.495778 0.513480 -0.138030
C4    C     C_R   0.897139 0.497195 0.476999 -0.137104
C5    C     C_R   0.124807 0.376770 0.461668 -0.132974
C6    C     C_R   0.874811 0.616610 0.527300 -0.113785
C7    C     C_R   0.095330 0.258572 0.394109 0.424427
C8    C     C_R   0.904367 0.735019 0.590641 0.374218
C9    C     C_R   0.131499 0.615122 0.574162 -0.128349
C10   C     C_R   0.867970 0.377972 0.419223 -0.124501
C11   C     C_R   0.354591 0.496127 0.505015 -0.146958
C12   C     C_R   0.645394 0.500925 0.494086 -0.216118
C13   C     C_R   0.970292 0.377390 0.429029 0.016276
C14   C     C_R   0.029140 0.614787 0.560850 0.015509
C15   C     C_R   0.977618 0.615662 0.546445 0.033573
C16   C     C_R   0.021861 0.376750 0.440984 0.015729
C17   C     C_R   0.948498 0.496726 0.484576 0.088394
C18   C     C_R   0.050978 0.495752 0.504635 0.084914
C19   C     C_R   0.939506 0.262768 0.356515 -0.236232
C20   C     C_R   0.059745 0.729004 0.637225 -0.251655
C21   C     C_R   0.889272 0.261467 0.348660 0.440101
C22   C     C_R   0.110007 0.731004 0.646062 0.434619
C23   C     C_R   0.407469 0.497989 0.501055 0.917232
C24   C     C_R   0.592535 0.501183 0.498747 0.836650
C25   C     C_R   0.045342 0.260169 0.391192 -0.228694
C26   C     C_R   0.954253 0.732750 0.591919 -0.268045
C27   C     C_2   0.488335 0.113602 0.417231 -0.317966
C28   C     C_2   0.498160 0.884662 0.580027 -0.353449
C29   C     C_2   0.467097 0.066187 0.508267 0.353393
C30   C     C_2   0.466604 0.927344 0.488662 0.308119
C31   C     C_2   0.503547 0.513900 0.082605 0.022709
C32   C     C_2   0.491885 0.505004 0.924590 0.031649
C33   C     C_R   0.176018 0.381721 0.482667 0.604047
C34   C     C_R   0.823611 0.611777 0.508508 0.605316
C35   C     C_R   0.180998 0.612976 0.559020 0.618280
C36   C     C_R   0.818646 0.380761 0.436360 0.629434
C37   C     C_R   0.286999 0.575266 0.636906 -0.091010
C38   C     C_R   0.712443 0.418410 0.360953 -0.097439
C39   C     C_R   0.336707 0.577535 0.631911 -0.114419
C40   C     C_R   0.662818 0.417536 0.367375 -0.129157
C41   C     C_R   0.320958 0.413557 0.383618 0.340681
C42   C     C_R   0.679445 0.583505 0.614225 0.392307
C43   C     C_R   0.271257 0.419330 0.388872 -0.157144
C44   C     C_R   0.729053 0.576679 0.607554 -0.129346
C45   C     C_R   0.254009 0.497857 0.515227 0.241266
C46   C     C_R   0.745815 0.496545 0.481082 0.219621
Cu1   Cu    Cu3+1 0.508480 0.521810 0.644910 1.086402
Cu2   Cu    Cu3+1 0.491520 0.478190 0.355090 1.095809
H1    H     H_    0.458080 0.454324 0.859689 0.213364
H2    H     H_    0.533465 0.580312 0.153710 0.155469
H3    H     H_    0.553372 0.600775 0.926884 0.241581
H4    H     H_    0.450113 0.384509 0.068076 0.260922
H5    H     H_    0.245398 0.360391 0.294838 0.206059
H6    H     H_    0.755216 0.636135 0.700410 0.218263
H7    H     H_    0.725380 0.356934 0.262419 0.190058
H8    H     H_    0.273685 0.635335 0.735427 0.185590
H9    H     H_    0.953276 0.171677 0.299549 0.190816
H10   H     H_    0.045614 0.818672 0.697234 0.191666
H11   H     H_    0.025682 0.166481 0.348654 0.200251
H12   H     H_    0.974043 0.826215 0.628839 0.191302
N1    N     N_R   0.202563 0.497730 0.519710 -0.467698
N2    N     N_R   0.797139 0.496118 0.474653 -0.468006
N3    N     N_2   0.478780 0.445430 0.137360 -0.249681
N4    N     N_2   0.521220 0.554570 0.862640 -0.279876
O1    O     O_R   0.504520 0.332330 0.577400 -0.544804
O2    O     O_R   0.495480 0.667670 0.422600 -0.548662
O3    O     O_R   0.490210 0.295500 0.332650 -0.546642
O4    O     O_R   0.509790 0.704500 0.667350 -0.542777
O5    O     O_R   0.437420 0.518430 0.622370 -0.595652
O6    O     O_R   0.562580 0.481570 0.377630 -0.606137
O7    O     O_R   0.423110 0.481600 0.377610 -0.496251
O8    O     O_R   0.576890 0.518400 0.622390 -0.515844
O9    O     O_2   0.199563 0.273118 0.471086 -0.434519
O10   O     O_2   0.799971 0.720068 0.519100 -0.419732
O11   O     O_2   0.792708 0.270511 0.421413 -0.437041
O12   O     O_2   0.207098 0.723829 0.577125 -0.423929
S1    S     S_3+6 0.338514 0.296070 0.226030 0.070457
O13   O     O_2   0.353634 0.363620 0.126214 -0.235447
O14   O     O_2   0.380262 0.225690 0.271120 -0.254728
O15   O     O_3   0.291950 0.186223 0.131735 -0.463896
H13   H     H_    0.286887 0.135700 0.196578 0.383417
S2    S     S_3+6 0.662489 0.702422 0.771571 0.038902
O16   O     O_2   0.621080 0.773064 0.725062 -0.298827
O17   O     O_2   0.647296 0.636306 0.872644 -0.281259
O18   O     O_3   0.709609 0.811322 0.863028 -0.491428
H14   H     H_    0.697248 0.872773 0.948856 0.389410
C47   C     C_1   0.532698 0.974083 0.698299 0.341342
N5    N     N_1   0.560346 0.045271 0.792675 -0.154091
C48   C     C_1   0.507723 0.026808 0.292242 0.285722
N6    N     N_1   0.523178 0.957538 0.192454 -0.194109
S3    S     S_3+6 0.117318 0.106783 0.296066 0.093610
O19   O     O_2   0.152746 0.127355 0.201743 -0.201148
O20   O     O_2   0.142003 0.048361 0.404227 -0.183146
O21   O     O_3   0.071301 0.002091 0.186075 -0.524659
H15   H     H_    0.086719 0.921277 0.137071 0.398463
S4    S     S_3+6 0.882753 0.888334 0.685455 0.110325
O22   O     O_2   0.857316 0.943152 0.575002 -0.132879
O23   O     O_2   0.847872 0.872365 0.783547 -0.205574
O24   O     O_3   0.928894 0.995341 0.790292 -0.488746
H16   H     H_    0.940711 0.962454 0.871206 0.367920
C49   C     C_1   0.630936 0.326885 0.243032 0.322988
N7    N     N_1   0.605457 0.254244 0.143504 -0.208073
C50   C     C_1   0.368141 0.667659 0.757890 0.362587
N8    N     N_1   0.393236 0.739888 0.858772 -0.182398
S5    S     S_3+6 0.854918 0.114935 0.232341 0.097856
O25   O     O_2   0.885175 0.029110 0.127747 -0.255959
O26   O     O_2   0.838444 0.042535 0.325803 -0.173991
O27   O     O_3   0.806251 0.150415 0.133073 -0.487121
H17   H     H_    0.787919 0.065418 0.077512 0.401670
S6    S     S_3+6 0.144053 0.877455 0.764329 0.086598
O28   O     O_2   0.113042 0.964385 0.865245 -0.253867
O29   O     O_2   0.186529 0.845497 0.856613 -0.236053
O30   O     O_3   0.164216 0.957546 0.661236 -0.416566
H18   H     H_    0.183983 0.034858 0.733015 0.403441
S7    S     S_3+6 0.418097 0.828743 0.356789 0.074747
O31   O     O_2   0.437238 0.743269 0.222760 -0.284723
O32   O     O_2   0.392520 0.745905 0.423455 -0.287527
O33   O     O_3   0.378347 0.924974 0.305311 -0.446869
H19   H     H_    0.353344 0.864176 0.229227 0.389983
S8    S     S_3+6 0.435690 0.158842 0.650148 0.045165
O34   O     O_2   0.471761 0.219120 0.788303 -0.342856
O35   O     O_2   0.409422 0.262619 0.608048 -0.291137
O36   O     O_3   0.395145 0.059632 0.681922 -0.451890
H20   H     H_    0.381848 0.115244 0.769293 0.398141

loop_
_geom_bond_atom_site_label_1
_geom_bond_atom_site_label_2
_ccdc_geom_bond_type
C47   N5    T    
C49   N7    T    
C27   C29   D    
C8    C26   A    
C14   C18   A    
C42   S2    S    
C24   O6    A    
O36   H20   S    
S1    O13   D    
C19   H9    S    
Cu2   N3    S    
S5    O26   D    
C46   N2    S    
C19   C21   A    
C2    O4    A    
C41   S1    S    
C9    C22   A    
S7    O31   D    
S4    O24   S    
C34   N2    A    
O27   H17   S    
C14   C20   A    
C11   C23   S    
C23   O5    A    
O33   H19   S    
Cu1   O5    S    
C12   C42   A    
C8    S4    S    
C40   C49   S    
S6    O28   D    
C37   H8    S    
C43   H5    S    
C38   H7    S    
C31   C32   S    
S8    O35   D    
S7    O32   D    
S4    O23   D    
C1    O1    A    
C11   C41   A    
S8    O36   S    
C41   C43   A    
C42   C44   A    
C36   N2    A    
C3    C18   A    
S5    O27   S    
C44   C46   A    
C30   S7    S    
S1    O14   D    
C10   C21   A    
C32   H1    S    
C29   S8    S    
C35   O12   S    
C13   C19   A    
C31   N3    D    
C32   N4    D    
C4    C6    A    
Cu1   N4    S    
C5    C7    A    
C15   C26   A    
C6    C8    A    
C22   S6    S    
O18   H14   S    
C6    C34   A    
C5    C33   A    
C12   C40   A    
C29   C30   S    
C3    C9    A    
C36   O11   S    
C23   O7    A    
S3    O20   D    
Cu1   Cu2   S    
S7    O33   S    
C7    S3    S    
S4    O22   D    
C28   C47   S    
C35   N1    A    
C16   C18   A    
C11   C39   A    
C43   C45   A    
S6    O30   S    
C34   O10   S    
C4    C17   A    
C33   O9    S    
C20   C22   A    
S2    O17   D    
C31   H2    S    
C20   H10   S    
C3    C5    A    
Cu1   O4    S    
S3    O19   D    
S8    O34   D    
C24   O8    A    
C1    C27   S    
O30   H18   S    
S1    O15   S    
C16   C25   A    
C15   C17   A    
H3    N4    S    
C4    C10   A    
Cu2   O6    S    
O15   H13   S    
C2    O2    A    
H4    N3    S    
C10   C36   A    
C39   C50   S    
S2    O18   S    
C25   H11   S    
S5    O25   D    
C12   C24   S    
C7    C25   A    
O24   H16   S    
C13   C17   A    
C28   C30   D    
C37   C39   A    
S3    O21   S    
C38   C40   A    
C26   H12   S    
C45   N1    S    
C1    O3    A    
C27   C48   S    
Cu2   O3    S    
O21   H15   S    
S6    O29   D    
Cu1   O8    S    
C38   C46   A    
C44   H6    S    
C33   N1    A    
S2    O16   D    
C13   C16   A    
C50   N8    T    
C9    C35   A    
C14   C15   A    
C2    C28   S    
Cu2   O7    S    
Cu2   O2    S    
C48   N6    T    
C37   C45   A    
Cu1   O1    S    
C21   S5    S    
