data_str_m9_o2_o16_f0_sra.sym.55
_audit_creation_date              2013-03-05T16:01:51-0500
_audit_creation_method            fapswitch 2.2
_symmetry_space_group_name_H-M    P1
_symmetry_Int_Tables_number       1
_space_group_crystal_system       triclinic
_cell_length_a                    20.832496
_cell_length_b                    7.303662
_cell_length_c                    12.858494
_cell_angle_alpha                 90.003214
_cell_angle_beta                  103.782977
_cell_angle_gamma                 89.986594
_cell_volume                      1900.12873591

loop_
_atom_site_label
_atom_site_type_symbol
_atom_site_description
_atom_site_fract_x
_atom_site_fract_y
_atom_site_fract_z
_atom_type_partial_charge
O1    O     O_R   0.449520 0.506760 0.599710 -0.588399
O2    O     O_R   0.550480 0.006760 0.400290 -0.588393
O3    O     O_R   0.587930 0.180200 0.595790 -0.588800
O4    O     O_R   0.412070 0.680200 0.404210 -0.588900
C1    C     C_R   0.612056 0.344164 0.623677 0.919617
C2    C     C_R   0.387928 0.844183 0.376369 0.919768
O5    O     O_R   0.452350 0.177380 0.611700 -0.583319
O6    O     O_R   0.547650 0.677380 0.388300 -0.583369
O7    O     O_R   0.413930 0.001760 0.416320 -0.580487
O8    O     O_R   0.586070 0.501760 0.583680 -0.580435
C3    C     C_R   0.436752 0.344649 0.639710 0.897326
C4    C     C_R   0.563267 0.844608 0.360301 0.897510
O9    O     O_3   0.487550 0.337460 0.435880 -0.288244
O10   O     O_3   0.512450 0.837460 0.564120 -0.288158
V1    V     V_3+5 0.502310 0.064670 0.511900 1.157344
V2    V     V_3+5 0.497690 0.564670 0.488100 1.157239
C5    C     C_R   0.610174 0.768410 0.097273 -0.181524
C6    C     C_R   0.389981 0.271805 0.903154 -0.181260
H1    H     H_    0.519567 0.761426 0.149253 0.103966
H2    H     H_    0.480700 0.266029 0.851455 0.103567
H3    H     H_    0.692782 0.733355 0.968805 0.149775
H4    H     H_    0.307406 0.236932 0.031653 0.149551
H5    H     H_    0.585963 0.727232 0.016471 0.120332
H6    H     H_    0.414310 0.232579 0.984294 0.120288
C7    C     C_R   0.601545 0.845255 0.277172 -0.090339
C8    C     C_R   0.398417 0.345525 0.722737 -0.089828
C9    C     C_R   0.914853 0.946312 0.312217 -0.274803
C10   C     C_R   0.085066 0.445859 0.687702 -0.274771
C11   C     C_R   0.881070 0.947306 0.393409 0.419690
C12   C     C_R   0.118789 0.446471 0.606441 0.419753
C13   C     C_R   0.814408 0.902044 0.368304 -0.335064
C14   C     C_R   0.185422 0.400834 0.631464 -0.335029
C15   C     C_R   0.780415 0.863858 0.261973 0.031748
C16   C     C_R   0.219489 0.363040 0.737824 0.031993
C17   C     C_R   0.818155 0.840790 0.182816 0.097084
C18   C     C_R   0.181815 0.340682 0.817126 0.096989
C19   C     C_R   0.710196 0.845221 0.233042 0.104050
C20   C     C_R   0.289732 0.344815 0.766759 0.103825
C21   C     C_R   0.678961 0.794988 0.126547 0.164440
C22   C     C_R   0.321096 0.296665 0.873595 0.164313
C23   C     C_R   0.716583 0.770404 0.050511 -0.211601
C24   C     C_R   0.283523 0.272617 0.949740 -0.211300
C25   C     C_R   0.785063 0.793264 0.077982 -0.205499
C26   C     C_R   0.214992 0.294387 0.922135 -0.205424
C27   C     C_R   0.669738 0.876010 0.306331 -0.246714
C28   C     C_R   0.330110 0.374362 0.693211 -0.246221
C29   C     C_R   0.572081 0.789676 0.172516 -0.174682
C30   C     C_R   0.428064 0.292618 0.827863 -0.175168
C31   C     C_R   0.887610 0.874461 0.210481 -0.208324
C32   C     C_R   0.112348 0.374228 0.789473 -0.208315
H7    H     H_    0.689399 0.920169 0.387568 0.121503
H8    H     H_    0.310349 0.416111 0.611499 0.121198
H9    H     H_    0.961368 0.012023 0.327454 0.172267
H10   H     H_    0.038601 0.511879 0.672534 0.172170
H11   H     H_    0.790222 0.901119 0.433337 0.179156
H12   H     H_    0.209530 0.399749 0.566354 0.179070
H13   H     H_    0.811880 0.774660 0.016232 0.138599
H14   H     H_    0.188218 0.276336 0.983987 0.138431
C33   C     C_R   0.222980 0.829859 0.026665 -0.169908
C34   C     C_R   0.777066 0.328624 0.973307 -0.170106
C35   C     C_R   0.274299 0.815034 0.974636 -0.083110
C36   C     C_R   0.725773 0.313017 0.025327 -0.083222
C37   C     C_R   0.339546 0.817159 0.033116 -0.118434
C38   C     C_R   0.660519 0.314998 0.966872 -0.118698
C39   C     C_R   0.353959 0.831606 0.144219 -0.184289
C40   C     C_R   0.646078 0.330114 0.855800 -0.184240
C41   C     C_R   0.302911 0.842198 0.199454 0.108868
C42   C     C_R   0.697102 0.341468 0.800564 0.108819
C43   C     C_R   0.235742 0.843284 0.140060 0.100334
C44   C     C_R   0.764277 0.342657 0.859933 0.100370
C45   C     C_R   0.318200 0.846519 0.312229 -0.263333
C46   C     C_R   0.681788 0.346448 0.687801 -0.263279
C47   C     C_R   0.267049 0.842431 0.366605 0.094938
C48   C     C_R   0.732922 0.342916 0.633389 0.095149
C49   C     C_R   0.199184 0.862402 0.310806 0.047850
C50   C     C_R   0.800787 0.362852 0.689184 0.048044
C51   C     C_R   0.182967 0.858431 0.193347 -0.271360
C52   C     C_R   0.817028 0.358458 0.806646 -0.271418
C53   C     C_R   0.284357 0.817503 0.478542 -0.224374
C54   C     C_R   0.715592 0.318465 0.521417 -0.224209
C55   C     C_R   0.239192 0.832982 0.539451 -0.175263
C56   C     C_R   0.760734 0.334168 0.460500 -0.175485
C57   C     C_R   0.174182 0.880553 0.493132 0.235362
C58   C     C_R   0.825755 0.381498 0.506840 0.235317
C59   C     C_R   0.152772 0.887464 0.377712 0.194840
C60   C     C_R   0.847177 0.388174 0.622270 0.194809
H15   H     H_    0.173358 0.829942 0.976274 0.123937
H16   H     H_    0.826690 0.328808 0.023688 0.124091
H17   H     H_    0.263382 0.803621 0.888281 0.122504
H18   H     H_    0.736714 0.301118 0.111660 0.122525
H19   H     H_    0.379225 0.807405 0.992205 0.119577
H20   H     H_    0.620858 0.304640 0.007778 0.119497
H21   H     H_    0.405517 0.831815 0.186509 0.080157
H22   H     H_    0.594519 0.330210 0.813525 0.080156
H23   H     H_    0.334292 0.787941 0.522688 0.152349
H24   H     H_    0.665658 0.288992 0.477253 0.152185
H25   H     H_    0.257412 0.813818 0.624675 0.152861
H26   H     H_    0.742493 0.315268 0.375261 0.152801
O11   O     O_R   0.913760 0.203480 0.916370 -0.573497
O12   O     O_R   0.086240 0.703480 0.083630 -0.573549
O13   O     O_R   0.047590 0.535230 0.888250 -0.602512
O14   O     O_R   0.952410 0.035230 0.111750 -0.602554
C61   C     C_R   0.069052 0.370812 0.867608 0.931867
C62   C     C_R   0.930939 0.870855 0.132384 0.931804
O15   O     O_R   0.912020 0.532880 0.904260 -0.587508
O16   O     O_R   0.087980 0.032880 0.095740 -0.587446
O17   O     O_R   0.949590 0.708460 0.099750 -0.578295
O18   O     O_R   0.050410 0.208460 0.900250 -0.578280
C63   C     C_R   0.886451 0.364990 0.878392 0.929183
C64   C     C_R   0.113548 0.864969 0.121599 0.929320
O19   O     O_3   0.012370 0.375360 0.064120 -0.288834
O20   O     O_3   0.987630 0.875360 0.935880 -0.288882
V3    V     V_3+5 0.997700 0.648160 0.988110 1.154907
V4    V     V_3+5 0.002300 0.148160 0.011890 1.154969
C65   C     C_3   0.082155 0.937538 0.331062 -0.466255
C66   C     C_3   0.076082 0.144343 0.313198 -0.705541
H27   H     H_    0.071842 0.208690 0.388635 0.273927
H28   H     H_    0.119318 0.201944 0.287804 0.262201
H29   H     H_    0.031140 0.181213 0.252292 0.271033
H30   H     H_    0.058469 0.855908 0.261035 0.190684
H31   H     H_    0.052230 0.893754 0.385951 0.223604
C67   C     C_3   0.917797 0.438092 0.668931 -0.466304
C68   C     C_3   0.923898 0.644863 0.686895 -0.704913
H32   H     H_    0.927966 0.709353 0.611412 0.273905
H33   H     H_    0.880746 0.702421 0.712579 0.262119
H34   H     H_    0.968937 0.681598 0.747622 0.270828
H35   H     H_    0.941492 0.356344 0.738907 0.190631
H36   H     H_    0.947692 0.394326 0.613994 0.223591
N1    N     N_R   0.913844 0.001222 0.500631 0.208007
O21   O     O_R   0.976816 0.036921 0.525562 -0.472187
O22   O     O_R   0.881115 0.013749 0.574814 -0.468874
N2    N     N_R   0.086006 0.500550 0.499248 0.208020
O23   O     O_R   0.023058 0.536640 0.474396 -0.472309
O24   O     O_R   0.118717 0.513076 0.425045 -0.468885
C69   C     C_3   0.128326 0.928029 0.567115 -0.298040
C70   C     C_3   0.157577 0.915261 0.688187 -0.937768
H37   H     H_    0.171200 0.772112 0.712364 0.254964
H38   H     H_    0.201791 0.003273 0.712928 0.261518
H39   H     H_    0.120250 0.961286 0.731479 0.283414
H40   H     H_    0.110347 0.069914 0.549925 0.219251
H41   H     H_    0.085067 0.836106 0.551262 0.252051
C71   C     C_3   0.871616 0.428866 0.432862 -0.298117
C72   C     C_3   0.842380 0.416065 0.311787 -0.937348
H42   H     H_    0.828740 0.272936 0.287630 0.254821
H43   H     H_    0.798178 0.504155 0.287010 0.261627
H44   H     H_    0.879722 0.461949 0.268505 0.283427
H45   H     H_    0.889610 0.570721 0.450047 0.219288
H46   H     H_    0.914855 0.336816 0.448715 0.252138

loop_
_geom_bond_atom_site_label_1
_geom_bond_atom_site_label_2
_geom_bond_distance
_ccdc_geom_bond_type
C72   H44   1.110696 S    
C40   C42   1.414565 A    
C37   C39   1.392062 A    
O12   C64   1.349460 A    
C65   H31   1.094905 S    
C50   C60   1.450790 A    
C9    C11   1.391186 A    
C56   H26   1.079966 S    
C43   C51   1.431555 A    
O1    C3    1.342599 A    
O2    C4    1.342758 A    
C31   C62   1.501933 S    
C52   C63   1.519637 S    
C34   H16   1.081334 S    
O3    V1    2.034918 S    
C68   H32   1.100161 S    
C21   C23   1.402661 A    
O5    C3    1.335413 A    
C5    H5    1.083831 S    
C48   C50   1.432320 A    
O16   V4    2.034638 S    
C6    H6    1.084218 S    
O15   V3    2.034938 S    
C58   C60   1.445306 A    
C1    C46   1.489885 S    
H1    C29   1.083069 S    
C68   H33   1.111391 S    
C44   C52   1.431563 A    
C27   H7    1.076622 S    
C65   C66   1.528493 S    
O11   C63   1.349444 A    
C28   H8    1.077166 S    
C59   C65   1.495690 S    
O13   V3    2.011137 S    
C66   H27   1.100155 S    
C34   C36   1.393873 A    
C5    C21   1.405690 A    
O18   V4    1.986207 S    
C67   H35   1.094559 S    
C35   C37   1.387908 A    
C6    C22   1.405988 A    
O17   V3    1.986070 S    
C36   C38   1.387905 A    
C10   C32   1.398127 A    
C49   C59   1.450778 A    
C11   N1    1.439996 S    
C26   H14   1.082786 S    
N2    O23   1.300548 A    
C39   C41   1.414631 A    
C17   C31   1.426716 A    
C13   C15   1.409733 A    
C61   O18   1.345728 A    
C58   C71   1.539682 S    
O6    C4    1.335395 A    
C54   H24   1.081464 S    
C17   C25   1.403617 A    
C7    C29   1.399631 A    
C57   C69   1.539687 S    
C8    C30   1.400063 A    
O13   C61   1.329907 A    
C40   H22   1.082122 S    
O5    V1    2.010868 S    
C32   C61   1.501803 S    
O6    V2    2.011127 S    
C48   C54   1.409795 A    
C11   C13   1.388764 A    
C47   C49   1.432294 A    
C69   H40   1.106077 S    
C24   C26   1.395691 A    
O11   V4    1.998566 S    
C70   H39   1.110707 S    
O20   V3    1.783666 S    
C55   C57   1.387484 A    
C35   H17   1.082270 S    
C2    C45   1.489871 S    
C33   C35   1.393920 A    
O12   V3    1.998711 S    
C69   H41   1.103250 S    
C12   C14   1.388724 A    
C71   H46   1.103249 S    
C69   C70   1.533498 S    
C70   H38   1.106101 S    
C53   C55   1.364745 A    
C10   H10   1.057057 S    
C68   H34   1.101391 S    
C3    C8    1.477778 S    
C15   C19   1.427446 A    
C41   C43   1.425552 A    
C38   C40   1.392031 A    
C53   H23   1.081458 S    
O4    V2    2.034622 S    
C60   C67   1.495636 S    
O14   V4    2.011396 S    
C22   C24   1.402651 A    
O10   V1    1.783731 S    
C34   C44   1.421842 A    
C42   C46   1.408925 A    
C47   C53   1.409809 A    
C25   H13   1.082747 S    
O1    V2    1.982928 S    
O14   C62   1.329885 A    
O2    V1    1.982794 S    
C49   C51   1.467312 A    
H2    C30   1.083305 S    
C33   C43   1.421840 A    
H3    C23   1.083825 S    
C46   C48   1.407143 A    
C57   C59   1.445229 A    
C56   C58   1.387418 A    
C18   C26   1.403744 A    
O4    C2    1.315109 A    
C38   H20   1.082666 S    
C19   C27   1.423866 A    
C7    C27   1.398410 A    
C18   C32   1.426669 A    
C45   C47   1.407228 A    
N1    O21   1.300595 A    
O16   C64   1.346698 A    
C72   H43   1.106049 S    
O15   C63   1.346769 A    
C16   C20   1.427591 A    
C71   H45   1.106098 S    
C23   C25   1.395657 A    
C5    C29   1.398491 A    
C50   C52   1.467398 A    
C70   H37   1.108215 S    
O3    C1    1.315156 A    
C6    C30   1.398505 A    
C9    H9    1.057116 S    
C66   H29   1.101342 S    
C4    C7    1.478043 S    
C10   C12   1.391110 A    
O7    V1    2.008394 S    
C1    O8    1.322704 A    
C19   C21   1.417270 A    
O8    V2    2.008227 S    
C20   C22   1.417750 A    
H4    C24   1.084048 S    
C55   H25   1.079984 S    
C12   N2    1.440008 S    
C36   H18   1.082260 S    
C39   H21   1.082157 S    
C15   C17   1.436581 A    
C54   C56   1.364633 A    
C66   H28   1.111402 S    
O19   V4    1.783687 S    
C41   C45   1.408964 A    
C67   H36   1.094780 S    
C51   C64   1.519555 S    
C33   H15   1.081350 S    
C20   C28   1.423960 A    
C8    C28   1.398543 A    
C9    C31   1.398249 A    
C2    O7    1.322687 A    
C16   C18   1.436606 A    
N2    O24   1.301148 A    
C65   H30   1.094567 S    
O9    V2    1.783753 S    
C37   H19   1.082703 S    
C42   C44   1.425551 A    
C71   C72   1.533505 S    
C13   H11   1.074229 S    
C67   C68   1.528472 S    
C14   H12   1.074045 S    
C62   O17   1.345827 A    
C72   H42   1.108186 S    
C14   C16   1.409875 A    
N1    O22   1.301151 A    
