data_str_m2_o16_o22_f0_pcu.sym.118
_audit_creation_date              2012-12-10T17:35:33-0500
_audit_creation_method            fapswitch 2.2
_symmetry_space_group_name_H-M    P1
_symmetry_Int_Tables_number       1
_space_group_crystal_system       triclinic
_cell_length_a                    10.814658
_cell_length_b                    12.487297
_cell_length_c                    13.214918
_cell_angle_alpha                 117.138167
_cell_angle_beta                  75.571165
_cell_angle_gamma                 100.671516
_cell_volume                      1532.75093732

loop_
_atom_site_label
_atom_site_type_symbol
_atom_type_description
_atom_site_fract_x
_atom_site_fract_y
_atom_site_fract_z
_atom_type_partial_charge
C1    C     C_R   0.518967 0.854498 0.285872 0.809539
C2    C     C_3   0.121330 0.001383 0.500049 -0.126975
C3    C     C_3   0.037267 0.004826 0.617455 -0.008127
C4    C     C_3   0.078153 0.883981 0.394975 0.625343
C5    C     C_R   0.445052 0.269185 0.038645 0.361149
C6    C     C_R   0.507240 0.224928 0.834657 -0.234735
C7    C     C_R   0.645399 0.808764 0.089920 -0.203425
C8    C     C_R   0.711744 0.725803 0.986535 0.172639
C9    C     C_R   0.681428 0.602334 0.954122 -0.053922
C10   C     C_R   0.576312 0.558476 0.017286 0.068682
C11   C     C_R   0.509635 0.643153 0.122287 -0.104290
C12   C     C_R   0.738710 0.000992 0.501835 0.882478
C13   C     C_R   0.537124 0.432718 0.981660 -0.087112
C14   C     C_R   0.461710 0.393823 0.065316 -0.202831
C15   C     C_R   0.393504 0.477967 0.167892 0.407838
C16   C     C_R   0.405054 0.598688 0.186137 0.311606
C17   C     C_R   0.560761 0.345915 0.864876 0.315955
C18   C     C_R   0.464030 0.184125 0.921901 0.332267
C19   C     C_R   0.550240 0.769085 0.161874 -0.136969
C20   C     C_R   0.672408 0.315211 0.295567 -0.285386
C21   C     C_R   0.325314 0.762960 0.649094 0.315308
C22   C     C_R   0.272893 0.662216 0.669084 0.300918
C23   C     C_R   0.494385 0.144033 0.712712 0.848358
C24   C     C_R   0.325359 0.550626 0.597909 0.121329
C25   C     C_R   0.445249 0.544398 0.520770 -0.138632
C26   C     C_R   0.488592 0.646377 0.495205 0.098433
C27   C     C_R   0.518385 0.438385 0.462163 -0.055110
C28   C     C_R   0.608471 0.421921 0.359387 -0.006344
C29   C     C_R   0.639038 0.514389 0.324131 0.016943
C30   C     C_R   0.590938 0.627996 0.396463 0.453467
C31   C     C_R   0.509416 0.349162 0.503195 0.581870
C32   C     C_R   0.653102 0.228386 0.336130 0.042675
C33   C     C_R   0.260410 0.000290 0.499752 0.927654
C34   C     C_3   0.955446 0.112938 0.484297 0.140441
C35   C     C_3   0.099778 0.115925 0.487405 0.693434
C36   C     C_3   0.890948 0.005824 0.620197 0.202819
C37   C     C_3   0.931830 0.882868 0.396551 -0.131561
C38   C     C_3   0.876773 0.000421 0.500785 -0.119301
Cu1   Cu    Cu3+1 0.529690 0.098270 0.475420 0.999175
Cu2   Cu    Cu3+1 0.470310 0.901730 0.524580 1.042266
H1    H     H_    0.912827 0.196089 0.554820 0.062462
H2    H     H_    0.050027 0.921905 0.623680 0.125334
H3    H     H_    0.676257 0.904030 0.119000 0.155875
H4    H     H_    0.746385 0.542924 0.882382 0.184993
H5    H     H_    0.700202 0.145570 0.285731 0.156112
H6    H     H_    0.738506 0.297505 0.214496 0.160745
H7    H     H_    0.879093 0.803183 0.408324 0.163093
N1    N     N_R   0.574690 0.246280 0.438200 -0.230262
N2    N     N_R   0.426100 0.754320 0.561190 -0.198879
O1    O     O_R   0.537340 0.972510 0.318130 -0.590616
O2    O     O_R   0.487200 0.806530 0.359650 -0.511711
O3    O     O_R   0.707380 0.082980 0.479220 -0.585348
O4    O     O_R   0.657240 0.917000 0.520740 -0.500451
O5    O     O_R   0.512800 0.193470 0.640350 -0.567349
O6    O     O_R   0.462660 0.027490 0.681870 -0.510190
O7    O     O_R   0.342760 0.083000 0.479260 -0.544533
O8    O     O_R   0.292620 0.917020 0.520780 -0.567744
O9    O     O_3   0.102049 0.778743 0.399331 -0.709026
H8    H     H_    0.038139 0.763356 0.460039 0.290689
N3    N     N_3   0.817959 0.901011 0.637681 -0.525487
H9    H     H_    0.820767 0.910681 0.720023 0.226476
H10   H     H_    0.857938 0.820110 0.580400 0.178735
O10   O     O_3   0.440470 0.061468 0.890728 -0.704616
H11   H     H_    0.409651 0.045918 0.960238 0.374491
O11   O     O_3   0.301029 0.437846 0.239254 -0.692820
H12   H     H_    0.274936 0.507279 0.314364 0.364170
O12   O     O_3   0.406413 0.228363 0.123693 -0.686676
H13   H     H_    0.440971 0.288274 0.193080 0.355494
O13   O     O_3   0.622383 0.382208 0.779759 -0.685932
H14   H     H_    0.685577 0.322704 0.726594 0.324601
N4    N     N_3   0.817014 0.765156 0.917148 -0.555296
H15   H     H_    0.830996 0.859432 0.954286 0.224853
H16   H     H_    0.791572 0.738842 0.837249 0.229076
O14   O     O_3   0.943594 0.109569 0.378812 -0.642762
H17   H     H_    0.953134 0.194231 0.388543 0.328744
O15   O     O_3   0.306520 0.667732 0.259920 -0.662329
H18   H     H_    0.305941 0.732354 0.236730 0.347641
N5    N     N_3   0.731306 0.499606 0.219944 -0.628387
H19   H     H_    0.698893 0.426967 0.149135 0.221865
H20   H     H_    0.819663 0.484152 0.227463 0.250223
O16   O     O_3   0.443773 0.371315 0.612728 -0.699519
H21   H     H_    0.387719 0.297357 0.605997 0.372689
N6    N     N_3   0.265484 0.873750 0.715567 -0.488085
H22   H     H_    0.263890 0.899399 0.802975 0.262250
H23   H     H_    0.170393 0.857247 0.704467 0.213438
N7    N     N_3   0.239610 0.445198 0.585119 -0.564190
H24   H     H_    0.270724 0.371238 0.508291 0.258779
H25   H     H_    0.232097 0.428650 0.657074 0.276113
O17   O     O_3   0.162549 0.674054 0.752153 -0.728511
H26   H     H_    0.145118 0.603156 0.769773 0.349170
O18   O     O_3   0.655078 0.722216 0.375148 -0.707113
H27   H     H_    0.691891 0.697176 0.291962 0.323294
O19   O     O_3   0.176473 0.114888 0.383445 -0.599101
H28   H     H_    0.175692 0.194911 0.384920 0.344729
O20   O     O_3   0.140955 0.220762 0.579448 -0.778377
H29   H     H_    0.068860 0.255730 0.643310 0.323678
N8    N     N_3   0.834924 0.114728 0.717536 -0.572111
H30   H     H_    0.888453 0.194254 0.721502 0.215053
H31   H     H_    0.833082 0.113183 0.796387 0.263026
O21   O     O_3   0.078118 0.103782 0.713899 -0.714331
H32   H     H_    0.154006 0.081865 0.727735 0.340942
N9    N     N_3   0.911726 0.868743 0.284507 -0.441383
H33   H     H_    0.927436 0.780037 0.223222 0.213789
H34   H     H_    0.816025 0.876950 0.288880 0.220931
O22   O     O_3   0.152633 0.885380 0.291371 -0.634167
H35   H     H_    0.138672 0.804921 0.226937 0.345880

loop_
_geom_bond_atom_site_label_1
_geom_bond_atom_site_label_2
_ccdc_geom_bond_type
C2    C35   S    
C3    H2    S    
C17   O13   S    
O19   H28   S    
C32   H5    S    
O22   H35   S    
O20   H29   S    
C5    O12   S    
C21   N2    A    
N8    H30   S    
C7    C8    A    
C11   C19   A    
C37   C38   S    
N6    H22   S    
C28   C29   A    
C37   N9    S    
N7    H25   S    
C18   O10   S    
Cu1   O5    S    
C15   C16   A    
C15   O11   S    
N3    H10   S    
C34   C35   S    
N8    H31   S    
C3    O21   S    
C29   N5    S    
C21   N6    S    
C8    C9    A    
C8    N4    S    
C36   N8    S    
C7    H3    S    
C37   H7    S    
C9    C10   A    
C12   O4    A    
C33   O7    A    
Cu1   O3    S    
C34   C38   S    
C21   C22   A    
C32   N1    A    
O13   H14   S    
C34   H1    S    
C12   O3    A    
O16   H21   S    
C35   O19   S    
C6    C18   A    
C1    C19   S    
O14   H17   S    
C27   C31   A    
O12   H13   S    
C24   C25   A    
C26   N2    A    
O18   H27   S    
N4    H16   S    
N7    H24   S    
C5    C18   A    
C20   C28   A    
O9    H8    S    
N3    H9    S    
C2    C4    S    
C29   C30   A    
C1    O1    A    
C11   C16   A    
Cu1   O7    S    
Cu2   O6    S    
O15   H18   S    
N9    H34   S    
C1    O2    A    
C5    C14   A    
C34   O14   S    
C2    C33   S    
N6    H23   S    
C26   C30   A    
C7    C19   A    
C31   N1    A    
C22   C24   A    
Cu1   Cu2   S    
C23   O5    A    
C20   C32   A    
C6    C17   A    
C9    H4    S    
C33   O8    A    
Cu2   O8    S    
C16   O15   S    
C30   O18   S    
C36   N3    S    
C10   C13   A    
C23   O6    A    
C35   O20   S    
C25   C27   A    
Cu2   O2    S    
C4    O22   S    
C31   O16   S    
C13   C17   A    
C36   C38   S    
C2    C3    S    
C25   C26   A    
N4    H15   S    
N5    H19   S    
C3    C36   S    
C6    C23   S    
O21   H32   S    
C22   O17   S    
N5    H20   S    
O11   H12   S    
C12   C38   S    
N9    H33   S    
C10   C11   A    
O10   H11   S    
Cu1   O1    S    
C4    C37   S    
Cu2   O4    S    
C4    O9    S    
C27   C28   A    
C14   C15   A    
O17   H26   S    
C13   C14   A    
C24   N7    S    
C20   H6    S    
Cu2   N2    S    
Cu1   N1    S    
