data_str_m2_o9_o14_f0_pcu.sym.106
_audit_creation_date              2012-12-10T19:43:23-0500
_audit_creation_method            fapswitch 2.2
_symmetry_space_group_name_H-M    P1
_symmetry_Int_Tables_number       1
_space_group_crystal_system       triclinic
_cell_length_a                    10.856834
_cell_length_b                    10.873753
_cell_length_c                    9.570764
_cell_angle_alpha                 90.021257
_cell_angle_beta                  90.956928
_cell_angle_gamma                 91.942918
_cell_volume                      1129.06450843

loop_
_atom_site_label
_atom_site_type_symbol
_atom_type_description
_atom_site_fract_x
_atom_site_fract_y
_atom_site_fract_z
_atom_type_partial_charge
C1    C     C_R   0.507366 0.262497 0.501404 0.800592
C2    C     C_R   0.208641 0.731064 0.024543 -0.116460
C3    C     C_R   0.932879 0.543995 0.387470 -0.251013
C4    C     C_R   0.871568 0.494764 0.503291 -0.076202
C5    C     C_R   0.939915 0.447318 0.616876 -0.004158
C6    C     C_R   0.067649 0.452649 0.612468 -0.246401
C7    C     C_R   0.128692 0.503065 0.497303 -0.084136
C8    C     C_R   0.060660 0.549368 0.383273 -0.001424
C9    C     C_R   0.868126 0.450967 0.862918 -0.132291
C10   C     C_R   0.827416 0.389905 0.983042 -0.142613
C11   C     C_R   0.806893 0.262384 0.981194 -0.124431
C12   C     C_R   0.262513 0.502294 0.498835 0.793863
C13   C     C_R   0.826791 0.195869 0.859063 -0.163134
C14   C     C_R   0.863631 0.257191 0.737481 -0.160552
C15   C     C_R   0.884115 0.385285 0.738754 0.135628
C16   C     C_R   0.542461 0.116676 0.767872 -0.171913
C17   C     C_R   0.518773 0.054821 0.892296 -0.168747
C18   C     C_R   0.462557 0.938741 0.888770 -0.140588
C19   C     C_R   0.439713 0.880568 0.760943 -0.164028
C20   C     C_R   0.477002 0.936428 0.633772 0.098341
C21   C     C_R   0.511699 0.062435 0.636126 0.096298
C22   C     C_R   0.513546 0.128065 0.506954 -0.118940
C23   C     C_R   0.491332 0.737244 0.500766 0.776364
C24   C     C_R   0.506477 0.063333 0.380450 -0.221472
C25   C     C_R   0.496342 0.936384 0.379742 -0.228566
C26   C     C_R   0.482733 0.871380 0.505003 -0.117883
C27   C     C_R   0.658799 0.667525 0.146782 -0.179026
C28   C     C_R   0.734484 0.750718 0.075698 -0.228077
C29   C     C_R   0.734250 0.750635 0.931862 -0.208140
C30   C     C_R   0.658778 0.666896 0.858401 -0.141825
C31   C     C_R   0.577595 0.582573 0.926468 0.209386
C32   C     C_R   0.577564 0.582687 0.076185 0.210464
C33   C     C_R   0.425885 0.421766 0.072545 -0.051683
C34   C     C_R   0.737556 0.496396 0.501351 0.777936
C35   C     C_R   0.425942 0.421774 0.924476 -0.074609
C36   C     C_R   0.224733 0.784967 0.156517 -0.134572
C37   C     C_R   0.179688 0.724198 0.274712 -0.108054
C38   C     C_R   0.118138 0.609099 0.260893 0.132789
C39   C     C_R   0.104499 0.554482 0.128371 -0.153814
C40   C     C_R   0.150022 0.615325 0.010578 -0.137977
Cu1   Cu    Cu3+1 0.499990 0.499990 0.640660 0.923369
Cu2   Cu    Cu3+1 0.500010 0.500010 0.359340 0.934606
H1    H     H_    0.240106 0.779456 0.932836 0.117000
H2    H     H_    0.776714 0.214992 0.074644 0.127521
H3    H     H_    0.812402 0.096870 0.858199 0.139041
H4    H     H_    0.879265 0.204721 0.643590 0.123043
H5    H     H_    0.510147 0.110789 0.281008 0.157868
H6    H     H_    0.589856 0.204641 0.778604 0.191172
H7    H     H_    0.439310 0.892540 0.985336 0.133800
H8    H     H_    0.390338 0.793017 0.763947 0.158804
H9    H     H_    0.498796 0.889147 0.280174 0.167333
H10   H     H_    0.365077 0.357789 0.126803 0.135198
H11   H     H_    0.270249 0.874661 0.167003 0.120599
H12   H     H_    0.795117 0.814579 0.133011 0.154087
H13   H     H_    0.794808 0.814280 0.876501 0.147880
H14   H     H_    0.670335 0.670920 0.748767 0.202588
H15   H     H_    0.365272 0.357674 0.867845 0.140391
H16   H     H_    0.190477 0.767639 0.376262 0.102672
H17   H     H_    0.057990 0.465379 0.116545 0.131338
H18   H     H_    0.138531 0.573544 0.908344 0.133283
H19   H     H_    0.119709 0.414242 0.698845 0.153584
H20   H     H_    0.889219 0.548872 0.867000 0.134383
H21   H     H_    0.814237 0.441073 0.078320 0.142619
N1    N     N_R   0.501190 0.501210 0.147910 -0.195736
N2    N     N_R   0.501230 0.501290 0.852040 -0.201915
O1    O     O_R   0.499990 0.319640 0.618810 -0.591926
O2    O     O_R   0.500000 0.319660 0.381240 -0.583994
O3    O     O_R   0.319640 0.500000 0.618780 -0.591194
O4    O     O_R   0.319650 0.500020 0.381210 -0.565584
O5    O     O_R   0.500000 0.680340 0.618760 -0.612943
O6    O     O_R   0.500010 0.680360 0.381190 -0.594389
O7    O     O_R   0.680350 0.499980 0.618790 -0.593451
O8    O     O_R   0.680360 0.500000 0.381220 -0.606787
H22   H     H_    0.541918 0.098244 0.991581 0.130987
H23   H     H_    0.669596 0.673451 0.256803 0.203388
H24   H     H_    0.881228 0.581877 0.300637 0.152433

loop_
_geom_bond_atom_site_label_1
_geom_bond_atom_site_label_2
_ccdc_geom_bond_type
C12   O4    A    
C16   C21   A    
C40   H18   S    
C34   O7    A    
Cu1   Cu2   S    
C19   C20   A    
C16   H6    S    
C7    C8    A    
C14   H4    S    
C33   H10   S    
C12   O3    A    
C37   C38   A    
C6    H19   S    
C28   C29   A    
C5    C6    A    
C35   N2    A    
C18   C19   A    
C23   C26   S    
C36   H11   S    
C1    O2    A    
C10   H21   S    
C16   C17   A    
C9    C10   A    
C37   H16   S    
C1    C22   S    
C21   C22   A    
C23   O5    A    
C8    C38   S    
C27   H23   S    
C17   C18   A    
Cu1   O3    S    
C7    C12   S    
C4    C34   S    
C9    H20   S    
C23   O6    A    
C24   C25   A    
C32   N1    A    
C3    C8    A    
C39   C40   A    
C28   H12   S    
Cu1   N2    S    
C29   H13   S    
C25   C26   A    
C30   H14   S    
Cu2   O4    S    
C25   H9    S    
C29   C30   A    
C31   C32   A    
C2    H1    S    
C39   H17   S    
C1    O1    A    
C11   H2    S    
C17   H22   S    
C3    H24   S    
Cu1   O1    S    
Cu1   O7    S    
Cu2   O2    S    
C22   C24   A    
C3    C4    A    
Cu2   N1    S    
C2    C36   A    
C31   N2    A    
C30   C31   A    
C36   C37   A    
Cu2   O8    S    
C27   C32   A    
C24   H5    S    
C4    C5    A    
C6    C7    A    
C35   H15   S    
C9    C15   A    
C13   H3    S    
C11   C13   A    
C19   H8    S    
C38   C39   A    
C20   C26   A    
C33   N1    A    
Cu2   O6    S    
C33   C35   A    
C5    C15   S    
C10   C11   A    
C34   O8    A    
C2    C40   A    
C20   C21   A    
C27   C28   A    
C14   C15   A    
C13   C14   A    
C18   H7    S    
Cu1   O5    S    
