data_str_m3_o41_o41_f0_fof.sym.45
_audit_creation_date              2012-12-10T16:39:35-0500
_audit_creation_method            fapswitch 2.2
_symmetry_space_group_name_H-M    P1
_symmetry_Int_Tables_number       1
_space_group_crystal_system       triclinic
_cell_length_a                    16.922693
_cell_length_b                    16.865028
_cell_length_c                    16.59101
_cell_angle_alpha                 65.583365
_cell_angle_beta                  65.753398
_cell_angle_gamma                 66.744531
_cell_volume                      3784.05121787

loop_
_atom_site_label
_atom_site_type_symbol
_atom_type_description
_atom_site_fract_x
_atom_site_fract_y
_atom_site_fract_z
_atom_type_partial_charge
C1    C     C_R   0.314830 0.018814 0.419593 -0.023482
C2    C     C_R   0.308215 0.439351 0.007864 -0.022513
C3    C     C_R   0.538544 0.407385 0.007189 -0.025761
C4    C     C_R   0.017977 0.452016 0.586322 0.000756
C5    C     C_R   0.981993 0.547992 0.413688 0.000760
C6    C     C_R   0.056172 0.673718 0.537253 0.027612
C7    C     C_R   0.943811 0.326285 0.462751 0.027606
C8    C     C_R   0.454500 0.991380 0.450346 0.064972
C9    C     C_R   0.545502 0.008607 0.549658 0.064974
C10   C     C_R   0.972335 0.459226 0.460542 0.073168
C11   C     C_R   0.027637 0.540781 0.539467 0.073169
C12   C     C_R   0.448158 0.448591 0.007658 0.053187
C13   C     C_R   0.551838 0.551405 0.992354 0.053188
C14   C     C_R   0.961872 0.179414 0.438208 0.951733
C15   C     C_R   0.685172 0.981172 0.580412 -0.023477
C16   C     C_R   0.038127 0.820586 0.561792 0.951718
C17   C     C_R   0.175911 0.431901 0.979249 0.918676
C18   C     C_R   0.824089 0.568099 0.020752 0.918676
C19   C     C_R   0.439141 0.958375 0.180188 0.934811
C20   C     C_R   0.560860 0.041623 0.819812 0.934811
C21   C     C_R   0.568498 0.824376 0.019687 0.924717
C22   C     C_R   0.431501 0.175623 0.980313 0.924725
C23   C     C_R   0.038777 0.561908 0.820216 0.915102
C24   C     C_R   0.961221 0.438092 0.179784 0.915109
C25   C     C_R   0.825258 0.013055 0.572590 0.955674
C26   C     C_R   0.938657 0.460897 0.329898 -0.012880
C27   C     C_R   0.174744 0.986939 0.427412 0.955672
C28   C     C_R   0.408580 0.980647 0.402730 -0.020253
C29   C     C_R   0.591422 0.019341 0.597275 -0.020253
C30   C     C_R   0.951965 0.415399 0.417663 -0.009957
C31   C     C_R   0.048014 0.584606 0.582342 -0.009961
C32   C     C_R   0.398441 0.399142 0.007038 -0.006143
C33   C     C_R   0.601555 0.600855 0.992971 -0.006143
C34   C     C_R   0.269303 0.986040 0.387957 -0.090676
C35   C     C_R   0.730699 0.013950 0.612046 -0.090682
C36   C     C_R   0.936819 0.409678 0.280348 -0.073115
C37   C     C_R   0.061328 0.539106 0.670105 -0.012879
C38   C     C_R   0.063175 0.590323 0.719652 -0.073112
C39   C     C_R   0.392675 0.265266 0.990240 -0.093155
C40   C     C_R   0.607324 0.734733 0.009763 -0.093156
C41   C     C_R   0.592236 0.064242 0.718477 -0.079533
C42   C     C_R   0.407767 0.935752 0.281523 -0.079534
C43   C     C_R   0.734533 0.606291 0.011298 -0.097417
C44   C     C_R   0.265465 0.393708 0.988705 -0.097416
C45   C     C_R   0.060458 0.721862 0.589031 -0.070996
C46   C     C_R   0.939536 0.278138 0.410969 -0.071001
C47   C     C_R   0.453952 0.120109 0.666933 0.422486
C48   C     C_R   0.437221 0.307845 0.010791 -0.021224
C49   C     C_R   0.546052 0.879885 0.333065 0.422491
C50   C     C_R   0.061391 0.709969 0.442095 0.436713
C51   C     C_R   0.938584 0.290036 0.557911 0.436698
C52   C     C_R   0.734973 0.478034 0.969839 0.426453
C53   C     C_R   0.265023 0.521962 0.030172 0.426450
C54   C     C_R   0.273612 0.090360 0.460731 0.411721
C55   C     C_R   0.726391 0.909625 0.539274 0.411697
C56   C     C_R   0.517156 0.263243 0.037613 0.422749
C57   C     C_R   0.482840 0.736754 0.962396 0.422751
C58   C     C_R   0.926523 0.555732 0.295601 0.458065
C59   C     C_R   0.562776 0.692153 0.989216 -0.021225
C60   C     C_R   0.073456 0.444272 0.704403 0.458063
C61   C     C_R   0.317176 0.945252 0.318967 -0.256615
C62   C     C_R   0.682826 0.054740 0.681034 -0.256615
C63   C     C_R   0.931067 0.322145 0.323486 -0.271979
C64   C     C_R   0.068931 0.677853 0.676513 -0.271990
C65   C     C_R   0.309787 0.309984 0.976181 -0.230888
C66   C     C_R   0.690212 0.690015 0.023820 -0.230884
C67   C     C_R   0.676875 0.889137 0.500874 -0.115352
C68   C     C_R   0.323125 0.110844 0.499137 -0.115366
C69   C     C_R   0.040108 0.402825 0.670519 -0.113146
C70   C     C_R   0.543762 0.066881 0.663692 0.003415
C71   C     C_R   0.959861 0.597183 0.329490 -0.113146
C72   C     C_R   0.424995 0.686227 0.980448 -0.149051
C73   C     C_R   0.574999 0.313769 0.019565 -0.149052
C74   C     C_R   0.585799 0.874980 0.397058 -0.140138
C75   C     C_R   0.414204 0.125010 0.602944 -0.140157
C76   C     C_R   0.316868 0.579274 0.010020 -0.152824
C77   C     C_R   0.683126 0.420722 0.989994 -0.152825
C78   C     C_R   0.974545 0.324989 0.595611 -0.109285
C79   C     C_R   0.025420 0.675020 0.404400 -0.109283
C80   C     C_R   0.707312 0.811796 0.469640 0.372023
C81   C     C_R   0.456241 0.933111 0.336309 0.003413
C82   C     C_R   0.292682 0.188179 0.530379 0.372069
C83   C     C_R   0.028029 0.314481 0.717460 0.394153
C84   C     C_R   0.971932 0.685530 0.282554 0.394131
C85   C     C_R   0.333021 0.726305 0.984720 0.364695
C86   C     C_R   0.666973 0.273690 0.015296 0.364696
C87   C     C_R   0.661537 0.804903 0.419079 0.391214
C88   C     C_R   0.338461 0.195082 0.580928 0.391231
C89   C     C_R   0.279069 0.672820 0.999899 0.361142
C90   C     C_R   0.720925 0.327174 0.000118 0.361145
C91   C     C_R   0.997200 0.275523 0.679406 0.381916
C92   C     C_R   0.691782 0.560646 0.992144 -0.022513
C93   C     C_R   0.002757 0.724490 0.320610 0.381910
C94   C     C_R   0.543864 0.938622 0.447237 -0.031065
C95   C     C_R   0.456139 0.061366 0.552767 -0.031063
C96   C     C_R   0.988774 0.411874 0.547390 0.012362
C97   C     C_R   0.011195 0.588135 0.452620 0.012366
C98   C     C_R   0.409037 0.540622 0.002385 -0.024844
C99   C     C_R   0.590958 0.459373 0.997628 -0.024842
C100  C     C_R   0.589515 0.946573 0.497754 -0.035553
C101  C     C_R   0.410487 0.053413 0.502252 -0.035561
C102  C     C_R   0.461451 0.592611 0.992824 -0.025761
Cl1   Cl    Cl    0.314941 0.302624 0.592505 -0.402633
Cl2   Cl    Cl    0.281184 0.840931 0.982473 -0.392830
Cl3   Cl    Cl    0.960129 0.746209 0.170041 -0.335090
Cl4   Cl    Cl    0.039834 0.253805 0.829972 -0.335088
Cl5   Cl    Cl    0.393811 0.181124 0.749080 -0.474230
Cl6   Cl    Cl    0.606197 0.818879 0.250911 -0.474219
Cl7   Cl    Cl    0.145769 0.766958 0.366338 -0.514575
Cl8   Cl    Cl    0.854209 0.233041 0.633658 -0.514582
Cl9   Cl    Cl    0.833200 0.473613 0.873314 -0.523753
Cl10  Cl    Cl    0.166794 0.526380 0.126696 -0.523749
Cl11  Cl    Cl    0.165795 0.159117 0.451535 -0.563832
Cl12  Cl    Cl    0.685052 0.697365 0.407494 -0.402650
Cl13  Cl    Cl    0.834225 0.840880 0.548447 -0.563861
Cl14  Cl    Cl    0.517001 0.164543 0.134517 -0.523662
Cl15  Cl    Cl    0.482993 0.835452 0.865491 -0.523664
Cl16  Cl    Cl    0.842956 0.621526 0.237459 -0.427701
Cl17  Cl    Cl    0.157029 0.378471 0.762536 -0.427690
Cl18  Cl    Cl    0.999701 0.840630 0.268268 -0.383532
Cl19  Cl    Cl    0.000246 0.159386 0.731757 -0.383523
Cl20  Cl    Cl    0.832829 0.273590 0.005415 -0.396562
Cl21  Cl    Cl    0.167162 0.726405 0.994611 -0.396563
Cl22  Cl    Cl    0.208947 0.286550 0.494105 -0.495246
Cl23  Cl    Cl    0.791025 0.713394 0.505955 -0.495235
Cl24  Cl    Cl    0.718811 0.159063 0.017544 -0.392819
H1    H     H_    0.282450 0.930204 0.286920 0.219056
H2    H     H_    0.717552 0.069790 0.713080 0.219061
H3    H     H_    0.929366 0.284633 0.284820 0.196855
H4    H     H_    0.070639 0.715364 0.715177 0.196852
H5    H     H_    0.277918 0.277824 0.957908 0.225950
H6    H     H_    0.722082 0.722177 0.042090 0.225953
O1    O     O_R   0.982940 0.138950 0.510160 -0.552812
O2    O     O_R   0.982940 0.510160 0.138950 -0.557806
O3    O     O_R   0.861050 0.017060 0.489840 -0.596264
O4    O     O_R   0.138950 0.982940 0.510160 -0.596279
O5    O     O_R   0.867700 0.025880 0.612340 -0.607470
O6    O     O_R   0.132300 0.974120 0.387660 -0.607473
O7    O     O_R   0.025880 0.612340 0.867700 -0.630711
O8    O     O_R   0.974120 0.387660 0.132300 -0.630711
O9    O     O_R   0.612340 0.867700 0.025880 -0.599566
O10   O     O_R   0.387660 0.132300 0.974120 -0.599568
O11   O     O_R   0.387660 0.974120 0.132300 -0.629695
O12   O     O_R   0.017060 0.861050 0.489840 -0.552807
O13   O     O_R   0.612340 0.025880 0.867700 -0.629694
O14   O     O_R   0.132300 0.387660 0.974120 -0.593463
O15   O     O_R   0.867700 0.612340 0.025880 -0.593460
O16   O     O_R   0.974120 0.132300 0.387660 -0.637366
O17   O     O_R   0.025880 0.867700 0.612340 -0.637370
O18   O     O_R   0.138950 0.510160 0.982940 -0.595923
O19   O     O_R   0.861050 0.489840 0.017060 -0.595920
O20   O     O_R   0.510160 0.982940 0.138950 -0.543389
O21   O     O_R   0.489840 0.017060 0.861050 -0.543395
O22   O     O_R   0.489840 0.861050 0.017060 -0.596856
O23   O     O_R   0.510160 0.138950 0.982940 -0.596856
O24   O     O_R   0.017060 0.489840 0.861050 -0.557811
Zn1   Zn    Zn3+2 0.004880 0.004880 0.583590 1.161271
Zn2   Zn    Zn3+2 0.995120 0.995120 0.416410 1.161284
Zn3   Zn    Zn3+2 0.004880 0.583590 0.004880 1.186767
Zn4   Zn    Zn3+2 0.995120 0.416410 0.995120 1.186771
Zn5   Zn    Zn3+2 0.583590 0.004880 0.004880 1.183421
Zn6   Zn    Zn3+2 0.416410 0.995120 0.995120 1.183415

loop_
_geom_bond_atom_site_label_1
_geom_bond_atom_site_label_2
_ccdc_geom_bond_type
O9    Zn5   S    
C6    C45   A    
C86   Cl24  S    
C32   C48   A    
C74   C94   A    
C17   O18   A    
O15   Zn3   S    
C50   C79   A    
C72   C85   A    
C75   C95   A    
C14   C46   S    
O23   Zn5   S    
C21   C40   S    
C24   C36   S    
O13   Zn5   S    
C27   O4    A    
C23   O7    A    
C16   O12   A    
C79   C93   A    
C80   C87   A    
C58   C71   A    
C57   C59   A    
O14   Zn4   S    
C80   Cl23  S    
C76   C98   A    
C54   Cl11  S    
C14   O16   A    
C58   Cl16  S    
C60   Cl17  S    
C2    C32   A    
C15   C35   A    
O6    Zn2   S    
C87   Cl12  S    
C3    C12   A    
C4    C96   A    
C78   C96   A    
C1    C28   A    
C21   O22   A    
C15   C29   A    
C16   O17   A    
C93   Cl18  S    
C10   C96   A    
C74   C87   A    
C35   C62   A    
C36   C63   A    
C8    C101  A    
C9    C95   A    
O11   Zn6   S    
C12   C98   A    
O20   Zn5   S    
C19   C42   S    
C9    C29   A    
C76   C89   A    
C63   H3    S    
O2    Zn3   S    
C11   C31   A    
C33   C59   A    
C40   C59   A    
C40   C66   A    
C23   O24   A    
C12   C32   A    
C90   Cl20  S    
C44   C65   A    
C42   C81   A    
C41   C62   A    
C3    C73   A    
C82   Cl22  S    
C4    C69   A    
C65   H5    S    
C79   C97   A    
C1    C34   A    
C20   C41   S    
C49   Cl6   S    
C66   H6    S    
C22   O23   A    
C27   C34   S    
C77   C90   A    
C27   O6    A    
O18   Zn3   S    
C7    C46   A    
O24   Zn4   S    
C8    C94   A    
C68   C101  A    
C18   O15   A    
C86   C90   A    
C33   C92   A    
C2    C44   A    
C85   C89   A    
C52   C77   A    
C89   Cl21  S    
C52   Cl9   S    
C98   C102  A    
C34   C61   A    
C24   O8    A    
C31   C37   A    
C49   C81   A    
C15   C55   A    
C13   C99   A    
C77   C99   A    
C25   O5    A    
C1    C54   A    
C47   C70   A    
C13   C33   A    
C37   C38   A    
C69   C83   A    
C7    C51   A    
C10   C30   A    
C94   C100  A    
C22   O10   A    
C19   O20   A    
C56   Cl14  S    
C61   H1    S    
O16   Zn2   S    
C6    C50   A    
C4    C11   A    
C26   C58   A    
C42   C61   A    
C85   Cl2   S    
C67   C100  A    
C25   C35   S    
O4    Zn1   S    
C53   Cl10  S    
C26   C36   A    
C64   H4    S    
C26   C30   A    
C9    C100  A    
C47   Cl5   S    
C8    C28   A    
C52   C92   A    
C53   C76   A    
C84   Cl3   S    
O12   Zn2   S    
C18   O19   A    
C88   Cl1   S    
C57   Cl15  S    
C71   C84   A    
C24   O2    A    
C48   C56   A    
C19   O11   A    
C56   C73   A    
C28   C81   A    
C49   C74   A    
O22   Zn6   S    
C67   C80   A    
C5    C97   A    
C20   O21   A    
C47   C75   A    
C2    C53   A    
C16   C45   S    
O10   Zn6   S    
C55   C67   A    
C14   O1    A    
C78   C91   A    
C51   Cl8   S    
C23   C38   S    
C83   C91   A    
C39   C65   A    
C45   C64   A    
C43   C92   A    
C83   Cl4   S    
O5    Zn1   S    
O21   Zn6   S    
C11   C97   A    
C68   C82   A    
O19   Zn4   S    
C17   O14   A    
C17   C44   S    
C21   O9    A    
C5    C10   A    
C5    C71   A    
C18   C43   S    
O8    Zn4   S    
C62   H2    S    
C55   Cl13  S    
C46   C63   A    
C72   C102  A    
C60   C69   A    
C43   C66   A    
C82   C88   A    
C22   C39   S    
C6    C31   A    
C29   C70   A    
O1    Zn1   S    
C84   C93   A    
C50   Cl7   S    
C57   C72   A    
C25   O3    A    
C73   C86   A    
C51   C78   A    
C37   C60   A    
O7    Zn3   S    
C3    C99   A    
C75   C88   A    
C54   C68   A    
C7    C30   A    
C91   Cl19  S    
O3    Zn2   S    
C38   C64   A    
C20   O13   A    
C41   C70   A    
C13   C102  A    
O17   Zn1   S    
C95   C101  A    
C39   C48   A    
