data_str_m2_o10_o29_f0_pcu.sym.111
_audit_creation_date              2012-12-10T16:51:11-0500
_audit_creation_method            fapswitch 2.2
_symmetry_space_group_name_H-M    P1
_symmetry_Int_Tables_number       1
_space_group_crystal_system       triclinic
_cell_length_a                    27.77525
_cell_length_b                    8.641143
_cell_length_c                    7.413264
_cell_angle_alpha                 102.733654
_cell_angle_beta                  93.99253
_cell_angle_gamma                 92.112527
_cell_volume                      1728.79066542

loop_
_atom_site_label
_atom_site_type_symbol
_atom_type_description
_atom_site_fract_x
_atom_site_fract_y
_atom_site_fract_z
_atom_type_partial_charge
C1    C     C_R   0.496277 0.199771 0.454278 0.825350
C2    C     C_R   0.503148 0.799751 0.545183 0.852967
C3    C     C_R   0.102527 0.508685 0.520421 -0.113313
C4    C     C_R   0.897624 0.498561 0.490662 -0.126344
C5    C     C_R   0.125988 0.365654 0.466934 -0.014048
C6    C     C_R   0.874128 0.641868 0.542018 0.002090
C7    C     C_R   0.098792 0.222288 0.407640 -0.155364
C8    C     C_R   0.901293 0.785189 0.602158 -0.165176
C9    C     C_R   0.130521 0.653778 0.577054 -0.118614
C10   C     C_R   0.869646 0.353319 0.433456 -0.100896
C11   C     C_R   0.354786 0.503917 0.510128 -0.028394
C12   C     C_R   0.645258 0.498922 0.491095 -0.040841
C13   C     C_R   0.972410 0.356422 0.453727 -0.008754
C14   C     C_R   0.027721 0.651004 0.561728 -0.019804
C15   C     C_R   0.976372 0.648567 0.555868 0.089026
C16   C     C_R   0.023754 0.358850 0.457977 0.084764
C17   C     C_R   0.948971 0.501162 0.498739 0.065313
C18   C     C_R   0.051158 0.506191 0.514579 0.063094
C19   C     C_R   0.943704 0.212707 0.409629 -0.341180
C20   C     C_R   0.056579 0.794469 0.610169 -0.321486
C21   C     C_R   0.892956 0.208814 0.389561 0.478656
C22   C     C_R   0.106992 0.797080 0.625543 0.455601
C23   C     C_R   0.407513 0.500840 0.503054 0.800788
C24   C     C_R   0.592492 0.499803 0.497132 0.775416
C25   C     C_R   0.048834 0.218648 0.401900 -0.228091
C26   C     C_R   0.951256 0.788865 0.609607 -0.258716
C27   C     C_2   0.488456 0.032185 0.434916 0.113743
C28   C     C_2   0.511659 0.965564 0.560942 0.161930
C29   C     C_R   0.176446 0.369014 0.470415 0.513147
C30   C     C_R   0.823668 0.638830 0.536681 0.519028
C31   C     C_R   0.181365 0.650519 0.579983 0.558619
C32   C     C_R   0.818696 0.357466 0.426237 0.568988
C33   C     C_R   0.284025 0.532968 0.687029 -0.122233
C34   C     C_R   0.725014 0.513446 0.651279 -0.122640
C35   C     C_R   0.334066 0.529883 0.681361 -0.224074
C36   C     C_R   0.675036 0.513596 0.655911 -0.235657
C37   C     C_R   0.324649 0.481719 0.345128 -0.212226
C38   C     C_R   0.666404 0.483748 0.321553 -0.234581
C39   C     C_R   0.274723 0.484747 0.351308 -0.109302
C40   C     C_R   0.716516 0.483265 0.317339 -0.119087
C41   C     C_R   0.254305 0.509971 0.521938 0.367596
C42   C     C_R   0.745827 0.498158 0.482243 0.366670
Cu1   Cu    Cu3+1 0.505380 0.517380 0.684380 0.946045
Cu2   Cu    Cu3+1 0.494620 0.482620 0.315620 0.946779
H1    H     H_    0.339559 0.461675 0.211247 0.152325
H2    H     H_    0.644322 0.472416 0.192541 0.159125
H3    H     H_    0.462138 0.378890 0.948554 0.228736
H4    H     H_    0.537729 0.621617 0.051533 0.214837
H5    H     H_    0.251774 0.467467 0.223589 0.124484
H6    H     H_    0.732613 0.471868 0.186415 0.129881
H7    H     H_    0.116047 0.111326 0.362951 0.203079
H8    H     H_    0.883993 0.896255 0.645348 0.211540
H9    H     H_    0.659806 0.525605 0.788570 0.158367
H10   H     H_    0.356438 0.547845 0.810657 0.155444
H11   H     H_    0.747649 0.525035 0.779000 0.126401
H12   H     H_    0.268302 0.552321 0.819291 0.125550
H13   H     H_    0.959907 0.100657 0.397429 0.132067
H14   H     H_    0.041411 0.909225 0.634188 0.151815
N1    N     N_R   0.202876 0.509780 0.526471 -0.473750
N2    N     N_R   0.797253 0.498340 0.479101 -0.479381
N3    N     N_2   0.486510 0.456430 0.038510 -0.211914
N4    N     N_2   0.513490 0.543570 0.961490 -0.224491
O1    O     O_R   0.503500 0.286120 0.619780 -0.549356
O2    O     O_R   0.496500 0.713880 0.380220 -0.586075
O3    O     O_R   0.494410 0.256780 0.308360 -0.596552
O4    O     O_R   0.505590 0.743220 0.691640 -0.588847
O5    O     O_R   0.434810 0.514700 0.655690 -0.603433
O6    O     O_R   0.565190 0.485300 0.344310 -0.589827
O7    O     O_R   0.425720 0.485350 0.344280 -0.584136
O8    O     O_R   0.574280 0.514650 0.655720 -0.586712
O9    O     O_2   0.199076 0.232596 0.417657 -0.545734
O10   O     O_2   0.801001 0.775273 0.588920 -0.538765
O11   O     O_2   0.790550 0.222464 0.368892 -0.479353
O12   O     O_2   0.209269 0.786252 0.633419 -0.501007
O13   O     O_3   0.865245 0.065565 0.349066 -0.556562
C43   C     C_3   0.883755 0.947936 0.210410 0.059912
H15   H     H_    0.912747 0.887689 0.274620 0.156763
H16   H     H_    0.898445 0.999024 0.098492 0.122351
C44   C     C_3   0.843128 0.823988 0.122429 -0.270306
H17   H     H_    0.819613 0.801720 0.230243 0.260627
H18   H     H_    0.820496 0.870163 0.018384 0.234410
C45   C     C_3   0.863101 0.666589 0.028800 -0.928741
H19   H     H_    0.890143 0.686213 0.931944 0.269631
H20   H     H_    0.833215 0.585036 0.950465 0.253548
H21   H     H_    0.880715 0.609494 0.134571 0.260376
O14   O     O_3   0.132764 0.942582 0.668368 -0.549729
C46   C     C_3   0.131853 0.010118 0.860104 0.113056
H22   H     H_    0.151032 0.935580 0.944065 0.153823
H23   H     H_    0.094132 0.021840 0.901514 0.081530
C47   C     C_3   0.156276 0.177290 0.905556 -0.351475
H24   H     H_    0.138452 0.250010 0.816651 0.218638
H25   H     H_    0.151634 0.234571 0.052440 0.183169
C48   C     C_3   0.210198 0.174890 0.877385 -0.640285
H26   H     H_    0.228928 0.108781 0.971761 0.247067
H27   H     H_    0.226098 0.298500 0.908430 0.189364
H28   H     H_    0.216113 0.118329 0.731634 0.319876
H29   H     H_    0.031166 0.103183 0.347687 0.137108
H30   H     H_    0.968842 0.904683 0.661465 0.142177
O15   O     O_3   0.448516 0.951913 0.324660 -0.628090
C49   C     C_3   0.452967 0.941265 0.133276 0.119563
H31   H     H_    0.450797 0.813271 0.063121 0.178887
H32   H     H_    0.488046 0.991077 0.099982 0.149641
C50   C     C_3   0.410403 0.020010 0.053976 -0.352771
H33   H     H_    0.375999 0.959144 0.075440 0.229235
H34   H     H_    0.410257 0.146538 0.128285 0.233639
C51   C     C_3   0.412881 0.011680 0.847294 -0.866615
H35   H     H_    0.446055 0.077628 0.824043 0.264431
H36   H     H_    0.381021 0.067011 0.794100 0.257289
H37   H     H_    0.412850 0.886113 0.769437 0.261801
O16   O     O_3   0.546750 0.047801 0.693722 -0.608176
C52   C     C_3   0.593170 0.027936 0.626099 0.045233
H38   H     H_    0.608298 0.146455 0.616316 0.170744
H39   H     H_    0.593389 0.947928 0.485161 0.095001
C53   C     C_3   0.626088 0.962977 0.762835 -0.369901
H40   H     H_    0.627763 0.045062 0.901853 0.231710
H41   H     H_    0.610876 0.845236 0.774846 0.224305
C54   C     C_3   0.677153 0.944716 0.699754 -0.808617
H42   H     H_    0.676453 0.861089 0.562161 0.264108
H43   H     H_    0.700006 0.896752 0.801428 0.266834
H44   H     H_    0.693481 0.061730 0.690379 0.266315

loop_
_geom_bond_atom_site_label_1
_geom_bond_atom_site_label_2
_ccdc_geom_bond_type
C46   H22   S    
C48   H26   S    
C8    C26   A    
C23   O7    A    
C52   H38   S    
C34   C42   A    
C43   C44   S    
Cu1   Cu2   S    
C53   H40   S    
C24   O8    A    
C39   C41   A    
Cu2   O2    S    
C27   O15   S    
C19   C21   A    
C43   H16   S    
C54   H43   S    
C9    C22   A    
C51   H35   S    
C31   N1    A    
C3    C18   A    
C23   O5    A    
C11   C37   A    
C14   C18   A    
O16   C52   S    
C15   C26   A    
C36   H9    S    
C46   C47   S    
C47   H25   S    
C50   H34   S    
C29   N1    A    
C30   N2    A    
C1    O3    A    
C12   C36   A    
C8    H8    S    
C33   H12   S    
C40   C42   A    
C34   H11   S    
C48   H27   S    
C35   H10   S    
Cu2   O3    S    
C1    O1    A    
C2    O2    A    
C5    C29   A    
C10   C21   A    
C13   C19   A    
Cu1   O1    S    
C14   C20   A    
C43   H15   S    
C41   N1    S    
C4    C6    A    
C54   H44   S    
C42   N2    S    
C32   O11   S    
C5    C7    A    
C9    C31   A    
O14   C46   S    
C31   O12   S    
C6    C8    A    
C28   O16   S    
C49   C50   S    
C19   H13   S    
C53   H41   S    
O13   C43   S    
C3    C9    A    
H4    N4    S    
O15   C49   S    
C49   H32   S    
Cu2   O7    S    
C52   H39   S    
C16   C18   A    
C26   H30   S    
C4    C17   A    
C25   H29   S    
C6    C30   A    
C20   C22   A    
C48   H28   S    
C45   H20   S    
C46   H23   S    
Cu2   O6    S    
C52   C53   S    
C32   N2    A    
C37   H1    S    
C50   H33   S    
C47   C48   S    
C44   H18   S    
C16   C25   A    
C15   C17   A    
C12   C24   S    
C39   H5    S    
C4    C10   A    
C3    C5    A    
H3    N3    S    
C44   C45   S    
C30   O10   S    
C2    O4    A    
Cu2   N3    S    
Cu1   O8    S    
C45   H21   S    
C21   O13   S    
C7    C25   A    
C13   C17   A    
C33   C41   A    
C11   C35   A    
C7    H7    S    
C37   C39   A    
C54   H42   S    
C38   C40   A    
C47   H24   S    
C51   H36   S    
Cu1   O4    S    
C40   H6    S    
C11   C23   S    
C49   H31   S    
C33   C35   A    
C50   C51   S    
C34   C36   A    
C22   O14   S    
C12   C38   A    
N3    N4    D    
C38   H2    S    
C53   C54   S    
C24   O6    A    
C44   H17   S    
C10   C32   A    
Cu1   O5    S    
C45   H19   S    
C13   C16   A    
C27   C28   D    
C1    C27   S    
C14   C15   A    
C2    C28   S    
C20   H14   S    
Cu1   N4    S    
C29   O9    S    
C51   H37   S    
