data_str_m3_o40_o41_f0_fof.sym.220
_audit_creation_date              2012-12-10T16:37:59-0500
_audit_creation_method            fapswitch 2.2
_symmetry_space_group_name_H-M    P1
_symmetry_Int_Tables_number       1
_space_group_crystal_system       triclinic
_cell_length_a                    28.17058
_cell_length_b                    18.33595
_cell_length_c                    16.870861
_cell_angle_alpha                 89.99992
_cell_angle_beta                  61.145864
_cell_angle_gamma                 90.0
_cell_volume                      7632.49860097

loop_
_atom_site_label
_atom_site_type_symbol
_atom_type_description
_atom_site_fract_x
_atom_site_fract_y
_atom_site_fract_z
_atom_type_partial_charge
C1    C     C_R   0.700524 0.264977 0.677286 0.886859
C2    C     C_R   0.299476 0.735023 0.322714 0.886859
C3    C     C_R   0.299476 0.264977 0.322714 0.886858
C4    C     C_R   0.700524 0.735023 0.677286 0.886858
C5    C     C_R   0.200524 0.764977 0.677286 0.886859
C6    C     C_R   0.799476 0.235023 0.322714 0.886859
C7    C     C_R   0.799476 0.764976 0.322714 0.886858
C8    C     C_R   0.200524 0.235023 0.677286 0.886858
C9    C     C_R   0.916386 0.500000 0.452375 0.066830
C10   C     C_R   0.083614 0.500000 0.547624 0.066830
C11   C     C_R   0.416386 1.000000 0.452376 0.066830
C12   C     C_R   0.583614 0.000000 0.547624 0.066830
C13   C     C_R   0.077622 0.368535 0.558858 -0.099123
C14   C     C_R   0.922378 0.631465 0.441141 -0.099123
C15   C     C_R   0.922378 0.368535 0.441141 -0.099121
C16   C     C_R   0.077622 0.631465 0.558858 -0.099121
C17   C     C_R   0.577622 0.868535 0.558859 -0.099123
C18   C     C_R   0.422378 0.131465 0.441142 -0.099123
C19   C     C_R   0.422378 0.868535 0.441142 -0.099121
C20   C     C_R   0.577622 0.131465 0.558859 -0.099121
C21   C     C_R   0.717527 0.260112 0.957623 -0.051083
C22   C     C_R   0.282473 0.739888 0.042376 -0.051083
C23   C     C_R   0.282473 0.260112 0.042376 -0.051082
C24   C     C_R   0.717527 0.739888 0.957624 -0.051082
C25   C     C_R   0.217527 0.760112 0.957623 -0.051083
C26   C     C_R   0.782473 0.239888 0.042376 -0.051083
C27   C     C_R   0.782473 0.760112 0.042376 -0.051082
C28   C     C_R   0.217527 0.239888 0.957624 -0.051082
C29   C     C_R   0.764740 0.216776 0.914946 -0.202160
C30   C     C_R   0.235260 0.783224 0.085054 -0.202160
C31   C     C_R   0.235259 0.216777 0.085054 -0.202162
C32   C     C_R   0.764741 0.783223 0.914945 -0.202162
C33   C     C_R   0.264740 0.716776 0.914946 -0.202160
C34   C     C_R   0.735260 0.283224 0.085054 -0.202160
C35   C     C_R   0.735259 0.716777 0.085054 -0.202162
C36   C     C_R   0.264741 0.283223 0.914945 -0.202162
C37   C     C_R   0.798960 0.210506 0.955127 0.167019
C38   C     C_R   0.201040 0.789494 0.044873 0.167019
C39   C     C_R   0.201040 0.210506 0.044873 0.167019
C40   C     C_R   0.798960 0.789494 0.955127 0.167019
C41   C     C_R   0.298960 0.710506 0.955127 0.167019
C42   C     C_R   0.701040 0.289494 0.044873 0.167019
C43   C     C_R   0.701040 0.710506 0.044873 0.167019
C44   C     C_R   0.298960 0.289494 0.955127 0.167019
C45   C     C_R   0.638368 0.315387 0.956211 0.133648
C46   C     C_R   0.361632 0.684613 0.043789 0.133648
C47   C     C_R   0.361632 0.315387 0.043789 0.133648
C48   C     C_R   0.638367 0.684613 0.956211 0.133648
C49   C     C_R   0.138368 0.815387 0.956211 0.133648
C50   C     C_R   0.861632 0.184613 0.043789 0.133648
C51   C     C_R   0.861632 0.815387 0.043789 0.133648
C52   C     C_R   0.138367 0.184613 0.956211 0.133648
C53   C     C_R   0.612994 0.339648 0.904877 -0.131133
C54   C     C_R   0.387006 0.660352 0.095123 -0.131133
C55   C     C_R   0.387006 0.339648 0.095122 -0.131132
C56   C     C_R   0.612994 0.660352 0.904878 -0.131132
C57   C     C_R   0.112994 0.839648 0.904877 -0.131133
C58   C     C_R   0.887006 0.160352 0.095123 -0.131133
C59   C     C_R   0.887006 0.839648 0.095122 -0.131132
C60   C     C_R   0.112994 0.160352 0.904878 -0.131132
C61   C     C_R   0.631604 0.316183 0.817294 -0.295024
C62   C     C_R   0.368396 0.683817 0.182705 -0.295024
C63   C     C_R   0.368396 0.316182 0.182705 -0.295023
C64   C     C_R   0.631604 0.683818 0.817295 -0.295023
C65   C     C_R   0.131604 0.816183 0.817294 -0.295024
C66   C     C_R   0.868396 0.183817 0.182705 -0.295024
C67   C     C_R   0.868396 0.816182 0.182705 -0.295023
C68   C     C_R   0.131604 0.183818 0.817295 -0.295023
C69   C     C_R   0.676219 0.271314 0.776069 -0.043264
C70   C     C_R   0.323781 0.728686 0.223930 -0.043264
C71   C     C_R   0.323781 0.271313 0.223930 -0.043264
C72   C     C_R   0.676219 0.728687 0.776070 -0.043264
C73   C     C_R   0.176219 0.771314 0.776069 -0.043264
C74   C     C_R   0.823781 0.228686 0.223930 -0.043264
C75   C     C_R   0.823781 0.771313 0.223930 -0.043264
C76   C     C_R   0.176219 0.228687 0.776070 -0.043264
C77   C     C_R   0.701924 0.244710 0.826443 -0.176496
C78   C     C_R   0.298076 0.755290 0.173556 -0.176496
C79   C     C_R   0.298076 0.244710 0.173557 -0.176496
C80   C     C_R   0.701924 0.755290 0.826443 -0.176496
C81   C     C_R   0.201924 0.744710 0.826443 -0.176496
C82   C     C_R   0.798076 0.255290 0.173556 -0.176496
C83   C     C_R   0.798076 0.744710 0.173557 -0.176496
C84   C     C_R   0.201924 0.255290 0.826443 -0.176496
C85   C     C_R   0.690633 0.129543 0.537570 0.903154
C86   C     C_R   0.309367 0.870456 0.462429 0.903154
C87   C     C_R   0.309367 0.129544 0.462429 0.903155
C88   C     C_R   0.690633 0.870456 0.537571 0.903154
C89   C     C_R   0.190633 0.629544 0.537570 0.903154
C90   C     C_R   0.809367 0.370456 0.462429 0.903154
C91   C     C_R   0.809367 0.629544 0.462429 0.903155
C92   C     C_R   0.190633 0.370456 0.537571 0.903155
C93   C     C_R   0.686119 0.273681 0.913183 -0.013754
C94   C     C_R   0.313880 0.726319 0.086817 -0.013754
C95   C     C_R   0.313881 0.273680 0.086817 -0.013754
C96   C     C_R   0.686119 0.726320 0.913183 -0.013754
C97   C     C_R   0.186119 0.773681 0.913183 -0.013754
C98   C     C_R   0.813880 0.226319 0.086817 -0.013754
C99   C     C_R   0.813881 0.773680 0.086817 -0.013754
C100  C     C_R   0.186119 0.226320 0.913183 -0.013754
C101  C     C_R   0.617309 0.329181 0.049602 -0.201721
C102  C     C_R   0.382691 0.670819 0.950398 -0.201721
C103  C     C_R   0.382691 0.329180 0.950398 -0.201720
C104  C     C_R   0.617309 0.670819 0.049602 -0.201720
C105  C     C_R   0.117309 0.829181 0.049602 -0.201721
C106  C     C_R   0.882691 0.170819 0.950398 -0.201721
C107  C     C_R   0.882691 0.829180 0.950398 -0.201720
C108  C     C_R   0.117309 0.170820 0.049602 -0.201720
C109  C     C_R   0.648386 0.318176 0.092237 -0.113158
C110  C     C_R   0.351613 0.681824 0.907763 -0.113158
C111  C     C_R   0.351614 0.318174 0.907762 -0.113158
C112  C     C_R   0.648386 0.681826 0.092238 -0.113158
C113  C     C_R   0.148387 0.818176 0.092237 -0.113158
C114  C     C_R   0.851613 0.181824 0.907763 -0.113158
C115  C     C_R   0.851614 0.818174 0.907762 -0.113158
C116  C     C_R   0.148386 0.181826 0.092238 -0.113158
C117  C     C_R   0.741028 0.188328 0.796469 0.588748
C118  C     C_R   0.258972 0.811672 0.203531 0.588748
C119  C     C_R   0.258971 0.188328 0.203532 0.588749
C120  C     C_R   0.741029 0.811672 0.796468 0.588750
C121  C     C_R   0.241028 0.688328 0.796469 0.588748
C122  C     C_R   0.758972 0.311672 0.203531 0.588748
C123  C     C_R   0.758971 0.688328 0.203532 0.588750
C124  C     C_R   0.241029 0.311672 0.796468 0.588749
C125  C     C_R   0.772850 0.176032 0.838122 0.524557
C126  C     C_R   0.227150 0.823968 0.161878 0.524557
C127  C     C_R   0.227150 0.176033 0.161879 0.524558
C128  C     C_R   0.772850 0.823967 0.838121 0.524557
C129  C     C_R   0.272850 0.676032 0.838122 0.524557
C130  C     C_R   0.727150 0.323968 0.161878 0.524557
C131  C     C_R   0.727150 0.676033 0.161879 0.524557
C132  C     C_R   0.272850 0.323967 0.838120 0.524558
C133  C     C_R   0.072457 0.102527 0.936060 0.898283
C134  C     C_R   0.927543 0.897473 0.063940 0.898283
C135  C     C_R   0.927542 0.102527 0.063940 0.898284
C136  C     C_R   0.072458 0.897473 0.936060 0.898284
C137  C     C_R   0.572457 0.602527 0.936060 0.898283
C138  C     C_R   0.427543 0.397472 0.063940 0.898283
C139  C     C_R   0.427542 0.602527 0.063940 0.898284
C140  C     C_R   0.572458 0.397473 0.936060 0.898284
C141  C     C_R   0.538554 0.132450 0.530378 -0.156248
C142  C     C_R   0.461446 0.867550 0.469622 -0.156248
C143  C     C_R   0.461445 0.132450 0.469623 -0.156246
C144  C     C_R   0.538554 0.867550 0.530378 -0.156246
C145  C     C_R   0.038554 0.632450 0.530378 -0.156248
C146  C     C_R   0.961446 0.367550 0.469622 -0.156248
C147  C     C_R   0.961446 0.632450 0.469622 -0.156246
C148  C     C_R   0.038555 0.367550 0.530377 -0.156246
C149  C     C_R   0.518568 0.198688 0.516315 0.547030
C150  C     C_R   0.481432 0.801312 0.483686 0.547031
C151  C     C_R   0.481432 0.198688 0.483686 0.547028
C152  C     C_R   0.518567 0.801312 0.516315 0.547029
C153  C     C_R   0.018568 0.698688 0.516314 0.547031
C154  C     C_R   0.981432 0.301312 0.483685 0.547030
C155  C     C_R   0.981432 0.698688 0.483685 0.547029
C156  C     C_R   0.018568 0.301312 0.516314 0.547028
C157  C     C_R   0.480030 0.066197 0.486181 -0.053615
C158  C     C_R   0.519970 0.933803 0.513819 -0.053615
C159  C     C_R   0.519970 0.066198 0.513820 -0.053617
C160  C     C_R   0.480030 0.933802 0.486180 -0.053617
C161  C     C_R   0.980030 0.566197 0.486180 -0.053615
C162  C     C_R   0.019970 0.433803 0.513819 -0.053615
C163  C     C_R   0.019970 0.566198 0.513819 -0.053617
C164  C     C_R   0.980030 0.433802 0.486180 -0.053617
C165  C     C_R   0.959443 0.500000 0.473387 0.100706
C166  C     C_R   0.040557 0.500000 0.526612 0.100706
C167  C     C_R   0.459442 1.000000 0.473388 0.100706
C168  C     C_R   0.540557 0.000000 0.526613 0.100706
C169  C     C_R   0.894396 0.433512 0.443383 -0.021570
C170  C     C_R   0.105604 0.566488 0.556617 -0.021570
C171  C     C_R   0.105604 0.433512 0.556617 -0.021570
C172  C     C_R   0.894396 0.566488 0.443383 -0.021570
C173  C     C_R   0.394396 0.933512 0.443383 -0.021570
C174  C     C_R   0.605604 0.066488 0.556617 -0.021570
C175  C     C_R   0.605604 0.933512 0.556617 -0.021570
C176  C     C_R   0.394396 0.066488 0.443383 -0.021570
C177  C     C_R   0.845544 0.434467 0.436715 -0.216929
C178  C     C_R   0.154456 0.565533 0.563285 -0.216929
C179  C     C_R   0.154456 0.434467 0.563285 -0.216928
C180  C     C_R   0.845544 0.565533 0.436715 -0.216928
C181  C     C_R   0.345544 0.934467 0.436715 -0.216929
C182  C     C_R   0.654456 0.065533 0.563285 -0.216929
C183  C     C_R   0.654456 0.934467 0.563285 -0.216928
C184  C     C_R   0.345544 0.065533 0.436715 -0.216928
C185  C     C_R   0.826794 0.500000 0.420307 0.306924
C186  C     C_R   0.173206 0.500000 0.579692 0.306923
C187  C     C_R   0.326794 0.000000 0.420307 0.306923
C188  C     C_R   0.673206 1.000000 0.579692 0.306924
H1    H     H_    0.084636 0.318059 0.584356 0.218733
H2    H     H_    0.915364 0.681941 0.415644 0.218733
H3    H     H_    0.915364 0.318059 0.415643 0.218732
H4    H     H_    0.084636 0.681941 0.584356 0.218732
H5    H     H_    0.584636 0.818059 0.584356 0.218733
H6    H     H_    0.415364 0.181941 0.415644 0.218733
H7    H     H_    0.415364 0.818059 0.415644 0.218732
H8    H     H_    0.584636 0.181941 0.584357 0.218732
H9    H     H_    0.612879 0.336841 0.778709 0.194456
H10   H     H_    0.387121 0.663159 0.221291 0.194456
H11   H     H_    0.387121 0.336840 0.221290 0.194456
H12   H     H_    0.612879 0.663160 0.778710 0.194456
H13   H     H_    0.112879 0.836841 0.778709 0.194456
H14   H     H_    0.887121 0.163159 0.221291 0.194456
H15   H     H_    0.887121 0.836840 0.221290 0.194456
H16   H     H_    0.112879 0.163160 0.778710 0.194456
H17   H     H_    0.576000 0.346078 0.092755 0.179241
H18   H     H_    0.424000 0.653922 0.907245 0.179241
H19   H     H_    0.424001 0.346077 0.907244 0.179239
H20   H     H_    0.575999 0.653922 0.092756 0.179239
H21   H     H_    0.076000 0.846078 0.092755 0.179241
H22   H     H_    0.924000 0.153922 0.907245 0.179241
H23   H     H_    0.924001 0.846077 0.907244 0.179239
H24   H     H_    0.075999 0.153922 0.092756 0.179239
H25   H     H_    0.629247 0.329087 0.163978 0.216743
H26   H     H_    0.370753 0.670913 0.836022 0.216743
H27   H     H_    0.370754 0.329085 0.836021 0.216742
H28   H     H_    0.629246 0.670915 0.163979 0.216742
H29   H     H_    0.129247 0.829087 0.163978 0.216743
H30   H     H_    0.870753 0.170913 0.836022 0.216743
H31   H     H_    0.870754 0.829085 0.836021 0.216742
H32   H     H_    0.129246 0.170915 0.163979 0.216742
O1    O     O_R   0.746490 0.236330 0.638080 -0.561341
O2    O     O_R   0.253510 0.763670 0.361920 -0.561341
O3    O     O_R   0.253510 0.236330 0.361920 -0.561342
O4    O     O_R   0.746490 0.763670 0.638080 -0.561342
O5    O     O_R   0.246490 0.736330 0.638080 -0.561341
O6    O     O_R   0.753510 0.263670 0.361920 -0.561341
O7    O     O_R   0.753510 0.736330 0.361920 -0.561342
O8    O     O_R   0.246490 0.263670 0.638080 -0.561342
O9    O     O_R   0.674170 0.186160 0.516270 -0.652520
O10   O     O_R   0.325830 0.813840 0.483730 -0.652520
O11   O     O_R   0.325830 0.186160 0.483730 -0.652521
O12   O     O_R   0.674170 0.813840 0.516270 -0.652521
O13   O     O_R   0.174170 0.686160 0.516270 -0.652520
O14   O     O_R   0.825830 0.313840 0.483730 -0.652520
O15   O     O_R   0.825830 0.686160 0.483730 -0.652521
O16   O     O_R   0.174170 0.313840 0.516270 -0.652521
O17   O     O_R   0.739960 0.127620 0.525000 -0.540400
O18   O     O_R   0.260040 0.872380 0.475000 -0.540400
O19   O     O_R   0.260040 0.127620 0.475000 -0.540400
O20   O     O_R   0.739960 0.872380 0.525000 -0.540400
O21   O     O_R   0.239960 0.627620 0.525000 -0.540400
O22   O     O_R   0.760040 0.372380 0.475000 -0.540400
O23   O     O_R   0.760040 0.627620 0.475000 -0.540400
O24   O     O_R   0.239960 0.372380 0.525000 -0.540400
O25   O     O_R   0.680700 0.294870 0.629350 -0.641232
O26   O     O_R   0.319300 0.705130 0.370650 -0.641232
O27   O     O_R   0.319300 0.294870 0.370650 -0.641232
O28   O     O_R   0.680700 0.705130 0.629350 -0.641232
O29   O     O_R   0.180700 0.794870 0.629350 -0.641232
O30   O     O_R   0.819300 0.205130 0.370650 -0.641232
O31   O     O_R   0.819300 0.794870 0.370650 -0.641232
O32   O     O_R   0.180700 0.205130 0.629350 -0.641232
O33   O     O_R   0.062020 0.072840 0.007170 -0.621107
O34   O     O_R   0.937980 0.927160 0.992830 -0.621107
O35   O     O_R   0.937980 0.072840 0.992830 -0.621107
O36   O     O_R   0.062020 0.927160 0.007170 -0.621107
O37   O     O_R   0.562020 0.572840 0.007170 -0.621107
O38   O     O_R   0.437980 0.427160 0.992830 -0.621107
O39   O     O_R   0.437980 0.572840 0.992830 -0.621107
O40   O     O_R   0.562020 0.427160 0.007170 -0.621107
O41   O     O_R   0.947860 0.073950 0.109290 -0.612264
O42   O     O_R   0.052140 0.926050 0.890710 -0.612264
O43   O     O_R   0.052140 0.073950 0.890710 -0.612263
O44   O     O_R   0.947860 0.926050 0.109290 -0.612263
O45   O     O_R   0.447860 0.573950 0.109290 -0.612264
O46   O     O_R   0.552140 0.426050 0.890710 -0.612264
O47   O     O_R   0.552140 0.573950 0.890710 -0.612263
O48   O     O_R   0.447860 0.426050 0.109290 -0.612263
Zn1   Zn    Zn3+2 0.792340 0.208750 0.507670 1.145794
Zn2   Zn    Zn3+2 0.207660 0.791250 0.492330 1.145794
Zn3   Zn    Zn3+2 0.207660 0.208750 0.492330 1.145793
Zn4   Zn    Zn3+2 0.792340 0.791250 0.507670 1.145793
Zn5   Zn    Zn3+2 0.292340 0.708750 0.507670 1.145794
Zn6   Zn    Zn3+2 0.707660 0.291250 0.492330 1.145794
Zn7   Zn    Zn3+2 0.707660 0.708750 0.492330 1.145793
Zn8   Zn    Zn3+2 0.292340 0.291250 0.507670 1.145793
Zn9   Zn    Zn3+2 0.505960 0.500000 0.080520 1.002949
Zn10  Zn    Zn3+2 0.494040 0.500000 0.919480 1.002949
Zn11  Zn    Zn3+2 0.005960 1.000000 0.080520 1.002949
Zn12  Zn    Zn3+2 0.994040 0.000000 0.919480 1.002949
F1    F     F_    0.036389 0.236514 0.531020 -0.612031
F2    F     F_    0.963611 0.763486 0.468980 -0.612031
F3    F     F_    0.963609 0.236514 0.468982 -0.612030
F4    F     F_    0.036391 0.763486 0.531017 -0.612031
F5    F     F_    0.536389 0.736514 0.531020 -0.612031
F6    F     F_    0.463610 0.263486 0.468980 -0.612031
F7    F     F_    0.463609 0.736514 0.468983 -0.612031
F8    F     F_    0.536391 0.263486 0.531018 -0.612030
Cl1   Cl    Cl    0.782869 0.500000 0.372199 -0.387701
Cl2   Cl    Cl    0.217131 0.500000 0.627800 -0.387701
Cl3   Cl    Cl    0.282869 0.000000 0.372199 -0.387701
Cl4   Cl    Cl    0.717131 1.000000 0.627800 -0.387701
F9    F     F_    0.744125 0.138224 0.734892 -0.551614
F10   F     F_    0.255875 0.861776 0.265108 -0.551614
F11   F     F_    0.255875 0.138223 0.265108 -0.551614
F12   F     F_    0.744125 0.861776 0.734892 -0.551614
F13   F     F_    0.244125 0.638224 0.734892 -0.551614
F14   F     F_    0.755875 0.361776 0.265108 -0.551614
F15   F     F_    0.755875 0.638223 0.265108 -0.551614
F16   F     F_    0.244125 0.361777 0.734892 -0.551614
F17   F     F_    0.807183 0.118222 0.808397 -0.581333
F18   F     F_    0.192817 0.881778 0.191603 -0.581333
F19   F     F_    0.192815 0.118224 0.191606 -0.581333
F20   F     F_    0.807185 0.881776 0.808394 -0.581333
F21   F     F_    0.307183 0.618222 0.808397 -0.581333
F22   F     F_    0.692817 0.381778 0.191603 -0.581333
F23   F     F_    0.692815 0.618224 0.191606 -0.581333
F24   F     F_    0.307185 0.381776 0.808394 -0.581333

loop_
_geom_bond_atom_site_label_1
_geom_bond_atom_site_label_2
_ccdc_geom_bond_type
C85   C182  S    
C9    C169  A    
C34   C42   A    
C181  C187  A    
O46   Zn10  S    
C27   C99   A    
C170  C178  A    
C12   C174  A    
C42   C109  A    
C111  H27   S    
C24   C96   A    
C156  F1    S    
C106  H22   S    
C62   C70   A    
C1    O1    A    
O18   Zn2   S    
O7    Zn7   S    
C129  F21   S    
C147  C155  A    
C143  C151  A    
C90   C177  S    
C11   C167  A    
C82   C98   A    
O12   Zn7   S    
C76   C84   A    
C73   C81   A    
C161  C163  A    
C162  C164  A    
O9    Zn6   S    
C6    O30   A    
C84   C100  A    
C85   O9    A    
C133  O33   A    
C37   C114  A    
C130  F22   S    
C27   C35   A    
C10   C171  A    
C21   C29   A    
O48   Zn9   S    
C92   O16   A    
C117  F9    S    
C23   C31   A    
C24   C32   A    
O3    Zn3   S    
O4    Zn4   S    
C146  C154  A    
C62   H10   S    
C88   O12   A    
C63   C71   A    
C64   H12   S    
O10   Zn5   S    
C36   C44   A    
C140  O40   A    
C175  C183  A    
C176  C184  A    
C15   H3    S    
C48   C96   A    
O5    Zn5   S    
O29   Zn2   S    
C123  F15   S    
C137  O37   A    
C148  C162  A    
C1    O25   A    
C183  C188  A    
O40   Zn9   S    
C108  C116  A    
C21   C93   A    
C78   C94   A    
C9    C165  A    
C86   O18   A    
C5    O5    A    
C67   H15   S    
C49   C97   A    
C21   C42   A    
C40   C115  A    
C51   C107  A    
C24   C43   A    
C16   C145  A    
C82   C122  A    
C161  C165  A    
C17   C175  A    
C18   C176  A    
C138  O38   A    
O37   Zn9   S    
C29   C125  A    
C68   H16   S    
C69   C77   A    
C31   C127  A    
C45   C93   A    
C174  C182  A    
C71   C79   A    
C8    O8    A    
C105  H21   S    
C179  C186  A    
C30   C38   A    
C11   C176  A    
C7    O7    A    
C17   C144  A    
C105  C113  A    
C18   C143  A    
C78   C118  A    
C103  H19   S    
C36   C132  A    
O43   Zn12  S    
C66   C74   A    
C91   O15   A    
C8    C76   S    
C49   C57   A    
C124  C132  A    
C89   O13   A    
C52   C60   A    
C59   C67   A    
C53   C61   A    
C141  C159  A    
C20   C174  A    
C23   C95   A    
C55   C63   A    
C86   C181  S    
C56   C64   A    
C116  H32   S    
C35   C43   A    
C125  F17   S    
C139  O45   A    
C45   C53   A    
C22   C94   A    
C171  C179  A    
C114  H30   S    
C169  C177  A    
C108  H24   S    
C50   C98   A    
C87   O19   A    
C119  F11   S    
C120  F12   S    
O28   Zn7   S    
C20   H8    S    
C65   C73   A    
O13   Zn2   S    
C104  C112  A    
C145  C163  A    
C146  C164  A    
C14   C147  A    
C52   C100  A    
C7    O31   A    
O25   Zn6   S    
C178  C186  A    
C25   C38   A    
C54   C139  S    
C46   C94   A    
C27   C40   A    
C10   C166  A    
C57   C65   A    
C91   C180  S    
C182  C188  A    
C89   C178  S    
C102  H18   S    
C28   C36   A    
C25   C97   A    
C90   O22   A    
C140  O46   A    
C67   C75   A    
C29   C37   A    
C186  Cl2   S    
O23   Zn7   S    
C133  O43   A    
C131  F23   S    
C8    O32   A    
C3    O3    A    
C22   C30   A    
C20   C141  A    
C118  F10   S    
O31   Zn4   S    
C15   C146  A    
O32   Zn3   S    
C58   C135  S    
C68   C76   A    
O6    Zn6   S    
O47   Zn10  S    
C184  C187  A    
C83   C123  A    
C32   C128  A    
C72   C80   A    
C56   C137  S    
O11   Zn8   S    
C150  C152  A    
C112  H28   S    
C5    C73   S    
C14   H2    S    
C13   C171  A    
C150  F7    S    
O24   Zn8   S    
O30   Zn1   S    
C117  C125  A    
C25   C33   A    
C119  C127  A    
O35   Zn12  S    
O36   Zn11  S    
C157  C167  A    
C30   C126  A    
C158  C168  A    
C164  C165  A    
C132  F24   S    
C22   C41   A    
C107  H23   S    
C101  C109  A    
C88   O20   A    
C2    O2    A    
O44   Zn11  S    
C177  C185  A    
C103  C111  A    
O21   Zn5   S    
O33   Zn11  S    
C188  Cl4   S    
C162  C166  A    
O34   Zn12  S    
C79   C119  A    
O38   Zn10  S    
C121  F13   S    
C153  C155  A    
C154  C156  A    
C124  F16   S    
C172  C180  A    
C173  C181  A    
C157  C159  A    
C83   C99   A    
C153  F4    S    
C158  C160  A    
C154  F3    S    
C3    O27   A    
C74   C82   A    
C6    C74   S    
C47   C103  A    
C136  O42   A    
C86   O10   A    
C5    O29   A    
C163  C166  A    
C147  C161  A    
C38   C113  A    
C152  F5    S    
C49   C105  A    
C54   C62   A    
C28   C39   A    
O15   Zn4   S    
O45   Zn9   S    
O16   Zn3   S    
C1    C69   S    
C23   C44   A    
C50   C58   A    
C3    C71   S    
C19   C173  A    
C79   C95   A    
C92   C179  S    
C126  F18   S    
O42   Zn12  S    
C46   C54   A    
C185  Cl1   S    
C45   C101  A    
C19   C142  A    
C149  F8    S    
C102  C110  A    
C61   H9    S    
C35   C131  A    
C4    C72   S    
O14   Zn1   S    
C33   C129  A    
C134  O44   A    
C59   C134  S    
C123  C131  A    
O26   Zn5   S    
C121  C129  A    
C120  C128  A    
C26   C37   A    
C10   C170  A    
C109  H25   S    
C33   C41   A    
C142  C150  A    
C149  C151  A    
C2    O26   A    
C75   C83   A    
C138  O48   A    
C6    O6    A    
C77   C93   A    
C85   O17   A    
C104  H20   S    
C187  Cl3   S    
C44   C111  A    
C16   C170  A    
C60   C68   A    
C144  C152  A    
C39   C116  A    
O22   Zn6   S    
C81   C121  A    
C50   C106  A    
C9    C172  A    
O17   Zn1   S    
C148  C156  A    
C135  O35   A    
O27   Zn8   S    
C2    C70   S    
C60   C133  S    
C110  H26   S    
C80   C120  A    
C19   H7    S    
C70   C78   A    
C53   C140  S    
C137  O47   A    
C17   H5    S    
C141  C149  A    
C46   C102  A    
C15   C169  A    
C55   C138  S    
C106  C114  A    
C77   C117  A    
C127  F19   S    
C128  F20   S    
C48   C104  A    
C13   H1    S    
C159  C168  A    
C90   O14   A    
C160  C167  A    
C4    O28   A    
C16   H4    S    
C26   C34   A    
C31   C39   A    
O41   Zn11  S    
C57   C136  S    
C80   C96   A    
C145  C153  A    
C28   C100  A    
C32   C40   A    
C52   C108  A    
C115  H31   S    
C113  H29   S    
C58   C66   A    
C143  C157  A    
C51   C99   A    
C11   C173  A    
C18   H6    S    
C134  O34   A    
C14   C172  A    
C87   C184  S    
C88   C183  S    
C7    C75   S    
C4    O4    A    
C122  F14   S    
C66   H14   S    
C107  C115  A    
C101  H17   S    
C26   C98   A    
C12   C175  A    
C91   O23   A    
C135  O41   A    
C41   C110  A    
C89   O21   A    
C51   C59   A    
C43   C112  A    
C144  C158  A    
C151  F6    S    
O1    Zn1   S    
C47   C55   A    
C61   C69   A    
C48   C56   A    
C136  O36   A    
C142  C160  A    
C12   C168  A    
C139  O39   A    
C84   C124  A    
O19   Zn3   S    
O20   Zn4   S    
C155  F2    S    
C92   O24   A    
C81   C97   A    
C87   O11   A    
C63   H11   S    
C64   C72   A    
O8    Zn8   S    
C180  C185  A    
O2    Zn2   S    
C65   H13   S    
C34   C130  A    
C47   C95   A    
O39   Zn10  S    
C118  C126  A    
C13   C148  A    
C122  C130  A    
