data_str_m4_o1_o24_f0_acs.sym.208
_audit_creation_date              2013-03-05T15:45:46-0500
_audit_creation_method            fapswitch 2.2
_symmetry_space_group_name_H-M    P1
_symmetry_Int_Tables_number       1
_space_group_crystal_system       triclinic
_cell_length_a                    18.835869
_cell_length_b                    10.952703
_cell_length_c                    18.819356
_cell_angle_alpha                 89.906746
_cell_angle_beta                  90.656358
_cell_angle_gamma                 90.055964
_cell_volume                      3882.24070366

loop_
_atom_site_label
_atom_site_type_symbol
_atom_site_description
_atom_site_fract_x
_atom_site_fract_y
_atom_site_fract_z
_atom_type_partial_charge
O1    O     O_R   0.214270 0.709000 0.827470 -0.527043
O2    O     O_R   0.785730 0.709000 0.172530 -0.517108
O3    O     O_R   0.714270 0.209000 0.827470 -0.523650
O4    O     O_R   0.285730 0.209000 0.172530 -0.528903
O5    O     O_R   0.236160 0.958490 0.823130 -0.483664
O6    O     O_R   0.763840 0.958490 0.176870 -0.489425
O7    O     O_R   0.736160 0.458490 0.823130 -0.492949
O8    O     O_R   0.263840 0.458490 0.176870 -0.486374
C1    C     C_R   0.273783 0.037875 0.855374 0.582560
C2    C     C_R   0.727551 0.041192 0.145859 0.558434
C3    C     C_R   0.772457 0.541109 0.854167 0.548077
C4    C     C_R   0.226176 0.537908 0.144611 0.577201
O9    O     O_R   0.332080 0.075470 0.831280 -0.526636
O10   O     O_R   0.667920 0.075470 0.168720 -0.521386
O11   O     O_R   0.832080 0.575470 0.831280 -0.528177
O12   O     O_R   0.167920 0.575470 0.168720 -0.529881
O13   O     O_R   0.446300 0.918110 0.826620 -0.512762
O14   O     O_R   0.553700 0.918110 0.173380 -0.509400
O15   O     O_R   0.946300 0.418110 0.826620 -0.511452
O16   O     O_R   0.053700 0.418110 0.173380 -0.511656
C5    C     C_R   0.469851 0.821272 0.855758 0.561003
C6    C     C_R   0.531945 0.822144 0.143583 0.594231
C7    C     C_R   0.968079 0.322056 0.856400 0.595192
C8    C     C_R   0.030180 0.321323 0.144218 0.565764
O17   O     O_R   0.457110 0.716200 0.831760 -0.453286
O18   O     O_R   0.542890 0.716200 0.168240 -0.462546
O19   O     O_R   0.957110 0.216200 0.831760 -0.462956
O20   O     O_R   0.042890 0.216200 0.168240 -0.452141
O21   O     O_R   0.320980 0.624310 0.823030 -0.494887
O22   O     O_R   0.679020 0.624310 0.176970 -0.501671
O23   O     O_R   0.820980 0.124310 0.823030 -0.509768
O24   O     O_R   0.179020 0.124310 0.176970 -0.497999
C9    C     C_R   0.260151 0.636158 0.851585 0.549957
C10   C     C_R   0.739157 0.638112 0.147535 0.546256
C11   C     C_R   0.760827 0.138077 0.852464 0.531744
C12   C     C_R   0.239789 0.136364 0.148352 0.544850
O25   O     O_R   0.213890 0.710430 0.665540 -0.508127
O26   O     O_R   0.786110 0.710430 0.334460 -0.490334
O27   O     O_R   0.713890 0.210430 0.665540 -0.487211
O28   O     O_R   0.286110 0.210430 0.334460 -0.489475
O29   O     O_R   0.235810 0.959820 0.673020 -0.444508
O30   O     O_R   0.764190 0.959820 0.326980 -0.470104
O31   O     O_R   0.735810 0.459820 0.673020 -0.435301
O32   O     O_R   0.264190 0.459820 0.326980 -0.437182
C13   C     C_R   0.272439 0.043626 0.644643 0.590182
C14   C     C_R   0.727597 0.043788 0.355202 0.579413
C15   C     C_R   0.769774 0.549951 0.647326 0.565202
C16   C     C_R   0.230318 0.549429 0.352281 0.575219
O33   O     O_R   0.331700 0.076900 0.669350 -0.530015
O34   O     O_R   0.668300 0.076900 0.330650 -0.527837
O35   O     O_R   0.831700 0.576900 0.669350 -0.533698
O36   O     O_R   0.168300 0.576900 0.330650 -0.532081
O37   O     O_R   0.445950 0.919440 0.676520 -0.513147
O38   O     O_R   0.554050 0.919440 0.323480 -0.513271
O39   O     O_R   0.945950 0.419440 0.676520 -0.505187
O40   O     O_R   0.054050 0.419440 0.323480 -0.507033
C17   C     C_R   0.469086 0.823421 0.646271 0.551401
C18   C     C_R   0.530170 0.823424 0.353251 0.550293
C19   C     C_R   0.969376 0.323620 0.646545 0.570380
C20   C     C_R   0.031182 0.323362 0.353783 0.566908
O41   O     O_R   0.456730 0.717630 0.669840 -0.496654
O42   O     O_R   0.543270 0.717630 0.330160 -0.503303
O43   O     O_R   0.956730 0.217630 0.669840 -0.494245
O44   O     O_R   0.043270 0.217630 0.330160 -0.494717
O45   O     O_R   0.320620 0.625640 0.672920 -0.508964
O46   O     O_R   0.679380 0.625640 0.327080 -0.499240
O47   O     O_R   0.820620 0.125640 0.672920 -0.518071
O48   O     O_R   0.179380 0.125640 0.327080 -0.517514
C21   C     C_R   0.261132 0.641145 0.641634 0.550553
C22   C     C_R   0.724708 0.691256 0.363225 0.553880
C23   C     C_R   0.759721 0.134213 0.644716 0.546296
C24   C     C_R   0.240481 0.133609 0.355079 0.547776
Cr1   Cr    Cr6+3 0.229630 0.835900 0.747350 1.108739
Cr2   Cr    Cr6+3 0.770370 0.835900 0.252650 1.094710
Cr3   Cr    Cr6+3 0.729630 0.335900 0.747350 1.110586
Cr4   Cr    Cr6+3 0.270370 0.335900 0.252650 1.117885
Cr5   Cr    Cr6+3 0.387410 0.989850 0.750850 1.041561
Cr6   Cr    Cr6+3 0.612590 0.989850 0.249150 1.035441
Cr7   Cr    Cr6+3 0.887410 0.489850 0.750850 1.039614
Cr8   Cr    Cr6+3 0.112590 0.489850 0.249150 1.044735
Cr9   Cr    Cr6+3 0.385800 0.677120 0.749340 1.094223
Cr10  Cr    Cr6+3 0.614200 0.677120 0.250660 1.080938
Cr11  Cr    Cr6+3 0.885800 0.177120 0.749340 1.076390
Cr12  Cr    Cr6+3 0.114200 0.177120 0.250660 1.091959
O49   O     O_3   0.334280 0.834290 0.749180 -0.289903
O50   O     O_3   0.665720 0.834290 0.250820 -0.306982
O51   O     O_3   0.834280 0.334290 0.749180 -0.280780
O52   O     O_3   0.165720 0.334290 0.250820 -0.288009
C25   C     C_3   0.506688 0.947599 0.021652 -0.153831
C26   C     C_3   0.556501 0.888591 0.965902 -0.168941
C27   C     C_3   0.943985 0.389567 0.033856 -0.167169
C28   C     C_3   0.994200 0.447404 0.977884 -0.153679
C29   C     C_3   0.441300 0.887344 0.984947 -0.144359
C30   C     C_3   0.564835 0.774130 0.014252 -0.139249
C31   C     C_3   0.934827 0.274956 0.985940 -0.139726
C32   C     C_3   0.059191 0.386214 0.014763 -0.145867
H1    H     H_    0.390120 0.932287 0.971801 0.144206
H2    H     H_    0.615655 0.728359 0.027677 0.141521
H3    H     H_    0.883690 0.229942 0.972707 0.142411
H4    H     H_    0.110735 0.430114 0.027745 0.143348
H5    H     H_    0.509271 0.043192 0.041029 0.149732
H6    H     H_    0.600248 0.935146 0.937548 0.142362
H7    H     H_    0.900597 0.437056 0.062073 0.145180
H8    H     H_    0.992272 0.542925 0.958149 0.149271
C33   C     C_3   0.491712 0.827536 0.930442 -0.003470
C34   C     C_3   0.514062 0.832510 0.068493 0.009888
C35   C     C_3   0.985982 0.332192 0.931479 0.010783
C36   C     C_3   0.008375 0.327652 0.069511 -0.003322
C37   C     C_3   0.499654 0.715375 0.978823 0.224741
C38   C     C_3   0.450632 0.774008 0.032454 0.216128
C39   C     C_3   0.049025 0.272777 0.967695 0.215806
C40   C     C_3   0.999626 0.215318 0.021568 0.224023
C41   C     C_R   0.295169 0.514456 0.958488 -0.074036
C42   C     C_R   0.700418 0.524116 0.038907 -0.144036
C43   C     C_R   0.799338 0.023863 0.961177 -0.144590
C44   C     C_R   0.205131 0.013896 0.041723 -0.071675
H9    H     H_    0.335791 0.466807 0.929261 0.168347
H10   H     H_    0.659517 0.476487 0.067985 0.149083
H11   H     H_    0.839989 0.975868 0.932115 0.147443
H12   H     H_    0.164999 0.965214 0.071221 0.167555
C45   C     C_R   0.290177 0.498098 0.031758 -0.049350
C46   C     C_R   0.704351 0.509949 0.965406 -0.105067
C47   C     C_R   0.795405 0.009661 0.034677 -0.104553
C48   C     C_R   0.210159 0.997199 0.968493 -0.048603
H13   H     H_    0.325643 0.434534 0.058111 0.163277
H14   H     H_    0.668878 0.446248 0.939203 0.172611
H15   H     H_    0.830584 0.945488 0.060907 0.172820
H16   H     H_    0.175246 0.932359 0.942474 0.161506
C49   C     C_R   0.240013 0.564982 0.070470 0.079785
C50   C     C_R   0.755518 0.574928 0.926760 0.030275
C51   C     C_R   0.744558 0.075107 0.073278 0.030274
C52   C     C_R   0.259753 0.065149 0.929425 0.078528
C53   C     C_R   0.193075 0.643401 0.034962 -0.120519
C54   C     C_R   0.801995 0.654368 0.962089 -0.142646
C55   C     C_R   0.698378 0.154998 0.037930 -0.142593
C56   C     C_R   0.306061 0.145107 0.964550 -0.120140
H17   H     H_    0.152682 0.694290 0.062773 0.150394
H18   H     H_    0.842450 0.705089 0.934081 0.144204
H19   H     H_    0.658177 0.206045 0.065928 0.145040
H20   H     H_    0.345984 0.196903 0.936444 0.150583
C57   C     C_R   0.195428 0.654222 0.962529 -0.133477
C58   C     C_R   0.800150 0.664327 0.034709 -0.145684
C59   C     C_R   0.700149 0.164901 0.965305 -0.144207
C60   C     C_R   0.303695 0.156364 0.036962 -0.133291
H21   H     H_    0.157432 0.715271 0.937594 0.145316
H22   H     H_    0.838132 0.725371 0.059646 0.150449
H23   H     H_    0.662359 0.226258 0.940331 0.150785
H24   H     H_    0.341233 0.218523 0.061617 0.145387
C61   C     C_R   0.248264 0.594236 0.923821 0.039921
C62   C     C_R   0.748704 0.601395 0.073909 0.007763
C63   C     C_R   0.751294 0.101506 0.926144 0.009390
C64   C     C_R   0.251503 0.095023 0.076028 0.040164
C65   C     C_R   0.494407 0.719406 0.535276 -0.110434
C66   C     C_R   0.498663 0.719782 0.462845 -0.115110
C67   C     C_R   0.999993 0.220450 0.537059 -0.092242
C68   C     C_R   0.006325 0.220025 0.464945 -0.088294
H25   H     H_    0.490141 0.631390 0.561200 0.202617
H26   H     H_    0.500997 0.632085 0.436575 0.205724
H27   H     H_    0.996532 0.132776 0.563323 0.217806
H28   H     H_    0.012206 0.132251 0.439435 0.214421
C69   C     C_R   0.504909 0.829987 0.425747 0.024048
C70   C     C_R   0.491902 0.829534 0.572911 0.024646
C71   C     C_R   0.008595 0.329845 0.427052 0.029396
C72   C     C_R   0.993758 0.330620 0.573861 0.023925
C73   C     C_R   0.502622 0.941234 0.462603 -0.149250
C74   C     C_R   0.495916 0.941019 0.536305 -0.150238
C75   C     C_R   0.003846 0.441556 0.463199 -0.129102
C76   C     C_R   0.995890 0.441931 0.536772 -0.131993
H29   H     H_    0.507667 0.027397 0.434850 0.138522
H30   H     H_    0.492797 0.027082 0.564309 0.137088
H31   H     H_    0.007397 0.527593 0.435003 0.151471
H32   H     H_    0.989679 0.528113 0.564139 0.150155
C77   C     C_R   0.202838 0.673861 0.527478 -0.139062
C78   C     C_R   0.779906 0.727026 0.480267 -0.146109
C79   C     C_R   0.684554 0.096187 0.542408 -0.124171
C80   C     C_R   0.315784 0.099015 0.457730 -0.122306
H33   H     H_    0.161349 0.726664 0.552257 0.199268
H34   H     H_    0.817932 0.787774 0.456075 0.192668
H35   H     H_    0.637360 0.117184 0.572485 0.166061
H36   H     H_    0.362744 0.123594 0.428116 0.172481
C81   C     C_R   0.203613 0.671124 0.455010 -0.169764
C82   C     C_R   0.788261 0.697565 0.551150 -0.165425
C83   C     C_R   0.679890 0.093650 0.469987 -0.147768
C84   C     C_R   0.319821 0.097589 0.530183 -0.150958
H37   H     H_    0.160784 0.716877 0.426722 0.166665
H38   H     H_    0.833557 0.735514 0.579443 0.163687
H39   H     H_    0.627734 0.106501 0.446476 0.162071
H40   H     H_    0.371403 0.114872 0.554083 0.163698
C85   C     C_R   0.253157 0.598341 0.420250 0.017313
C86   C     C_R   0.743494 0.610922 0.582733 0.012339
C87   C     C_R   0.740509 0.071846 0.428896 0.019704
C88   C     C_R   0.259468 0.071004 0.570762 0.017693
C89   C     C_R   0.310908 0.546323 0.458516 0.196184
C90   C     C_R   0.682335 0.569868 0.545268 0.198296
C91   C     C_R   0.806905 0.050830 0.461759 0.176586
C92   C     C_R   0.194048 0.043708 0.537206 0.187273
C93   C     C_R   0.310503 0.552185 0.532456 -0.121545
C94   C     C_R   0.675163 0.599190 0.473258 -0.114781
C95   C     C_R   0.810992 0.054351 0.535418 -0.128568
C96   C     C_R   0.190543 0.046978 0.463498 -0.126089
H41   H     H_    0.354188 0.513160 0.562752 0.170632
H42   H     H_    0.630569 0.563017 0.443181 0.170571
H43   H     H_    0.862570 0.045276 0.560951 0.168720
H44   H     H_    0.139553 0.033656 0.437417 0.166686
C97   C     C_R   0.255395 0.612877 0.566965 -0.016920
C98   C     C_R   0.726370 0.671646 0.439840 -0.027143
C99   C     C_R   0.750541 0.083270 0.575084 -0.014970
C100  C     C_R   0.250404 0.081352 0.424430 -0.015637
N1    N     N_R   0.369548 0.488747 0.423509 0.076872
O53   O     O_R   0.405293 0.402423 0.455245 -0.347609
O54   O     O_R   0.393437 0.533526 0.364284 -0.323380
N2    N     N_R   0.628305 0.497784 0.578633 0.076535
O55   O     O_R   0.595041 0.413317 0.542819 -0.340313
O56   O     O_R   0.603969 0.530114 0.640248 -0.327170
N3    N     N_R   0.870188 0.029816 0.421604 0.062895
O57   O     O_R   0.919403 0.957468 0.446317 -0.369893
O58   O     O_R   0.882159 0.092127 0.364015 -0.323040
N4    N     N_R   0.130917 0.017472 0.576686 0.063577
O59   O     O_R   0.083503 0.942466 0.551122 -0.371004
O60   O     O_R   0.116730 0.078598 0.634055 -0.324239
N5    N     N_R   0.499239 0.588069 0.956293 0.093886
O61   O     O_R   0.461231 0.507941 0.989810 -0.343008
O62   O     O_R   0.543816 0.551477 0.908605 -0.343589
N6    N     N_R   0.393416 0.718961 0.072601 0.082678
O63   O     O_R   0.406814 0.627207 0.114574 -0.293605
O64   O     O_R   0.334272 0.778687 0.079406 -0.381313
N7    N     N_R   0.105669 0.216448 0.927546 0.083558
O65   O     O_R   0.091608 0.123199 0.887058 -0.291901
O66   O     O_R   0.164289 0.276967 0.918269 -0.377607
N8    N     N_R   0.999315 0.088248 0.044788 0.094567
O67   O     O_R   0.038318 0.007737 0.012999 -0.342276
O68   O     O_R   0.954315 0.052551 0.092408 -0.342313

loop_
_geom_bond_atom_site_label_1
_geom_bond_atom_site_label_2
_geom_bond_distance
_ccdc_geom_bond_type
C18   O42   1.263742 A    
O17   Cr9   2.084839 S    
O4    C12   1.256817 A    
C53   H17   1.083686 S    
C73   C74   1.394193 A    
O39   C19   1.273922 A    
O20   Cr12  2.084341 S    
O29   C13   1.268608 A    
C58   H22   1.082351 S    
C66   C69   1.398950 A    
C93   C97   1.399757 A    
C39   C40   1.519260 S    
C79   C99   1.387645 A    
C14   C87   1.438939 S    
C56   H20   1.083711 S    
C38   N6    1.453175 S    
N6    O63   1.300350 A    
C78   C82   1.379214 A    
N8    O68   1.300024 A    
O26   C22   1.299343 A    
C10   C62   1.456561 S    
O1    C9    1.257192 A    
O27   Cr3   2.083857 S    
C24   C100  1.434608 S    
O46   C22   1.302019 A    
O7    C3    1.272329 A    
C80   H36   1.084349 S    
C81   H37   1.084161 S    
C89   C93   1.393200 A    
C88   C92   1.410210 A    
C46   C50   1.406183 A    
C25   H5    1.110083 S    
C66   H26   1.082167 S    
C65   C70   1.400876 A    
C51   C55   1.396844 A    
C31   C40   1.532090 S    
N3    O58   1.301589 A    
O30   C14   1.270500 A    
C31   H3    1.107632 S    
C52   C56   1.397111 A    
C1    C52   1.452972 S    
O47   C23   1.261912 A    
C94   C98   1.402286 A    
C30   H2    1.107447 S    
O21   C9    1.277890 A    
O8    Cr4   1.960068 S    
C20   C71   1.449538 S    
O23   Cr11  1.945064 S    
C48   C52   1.407006 A    
C82   H38   1.083431 S    
C34   C38   1.509752 S    
O32   Cr4   1.955170 S    
C1    O9    1.261287 A    
C2    C51   1.454130 S    
C26   H6    1.109999 S    
O25   Cr1   2.083857 S    
C19   C72   1.449765 S    
C28   C35   1.542432 S    
C29   C33   1.551980 S    
C45   H13   1.081262 S    
C70   C74   1.403414 A    
C3    O11   1.264161 A    
O41   Cr9   2.064640 S    
O44   Cr12  2.066248 S    
C17   C70   1.452041 S    
C4    O12   1.261769 A    
C68   C71   1.398202 A    
O28   Cr4   2.080933 S    
C25   C34   1.542485 S    
C94   H42   1.082634 S    
C84   C88   1.406690 A    
C93   H41   1.083492 S    
C8    C36   1.461736 S    
O6    Cr2   1.960068 S    
C7    O19   1.265315 A    
O3    Cr3   2.071567 S    
Cr4   O52   1.971142 S    
C91   N3    1.437569 S    
O2    Cr2   2.075236 S    
C60   H24   1.082277 S    
C29   C38   1.537649 S    
C48   H16   1.081392 S    
C36   C40   1.534543 S    
O2    C10   1.258588 A    
C23   C99   1.433694 S    
O42   Cr10  2.066248 S    
C60   C64   1.404277 A    
C77   C81   1.364419 A    
C96   C100  1.403881 A    
C78   H34   1.080994 S    
Cr8   O52   1.976832 S    
C95   H43   1.083485 S    
C50   C54   1.397336 A    
C11   C63   1.455713 S    
C89   N1    1.439120 S    
O34   Cr6   2.080521 S    
Cr7   O51   1.975236 S    
Cr9   O49   1.976932 S    
C26   C30   1.554882 S    
C86   C90   1.416963 A    
C91   C95   1.388067 A    
C28   C32   1.552431 S    
C73   H29   1.082493 S    
O24   Cr12  1.947114 S    
C32   C39   1.537593 S    
O11   Cr7   2.073487 S    
O30   Cr2   1.955170 S    
C43   C47   1.394484 A    
C4    C49   1.452419 S    
O22   C10   1.275370 A    
C57   C61   1.404356 A    
O48   Cr12  1.962606 S    
C41   C61   1.398633 A    
C72   C76   1.404602 A    
C2    O10   1.264936 A    
C45   C49   1.406789 A    
C27   C28   1.557230 S    
C81   C85   1.396932 A    
O16   Cr8   1.961337 S    
O15   C7    1.258112 A    
C12   C64   1.454431 S    
C15   O35   1.268112 A    
C44   C64   1.398821 A    
Cr10  O50   1.975289 S    
C87   C91   1.407813 A    
C67   H27   1.081548 S    
C25   C29   1.552432 S    
O13   C5    1.271175 A    
C44   H12   1.082475 S    
C84   H40   1.082606 S    
O48   C24   1.263287 A    
O12   Cr8   2.070333 S    
C46   H14   1.081229 S    
C43   C63   1.401007 A    
C71   C75   1.404320 A    
N3    O57   1.301499 A    
O5    C1    1.271648 A    
N5    O61   1.299201 A    
C83   H39   1.082029 S    
C96   H44   1.083417 S    
C54   C58   1.372039 A    
O39   Cr7   1.951367 S    
O25   C21   1.257658 A    
C13   C88   1.440077 S    
C47   H15   1.081226 S    
N7    O65   1.300466 A    
C13   O33   1.258111 A    
O8    C4    1.272049 A    
C7    C35   1.453259 S    
C95   C99   1.405349 A    
N1    O53   1.301605 A    
C41   C45   1.394441 A    
C92   C96   1.388362 A    
O36   Cr8   2.080521 S    
O7    Cr3   1.963081 S    
O47   Cr11  1.963265 S    
Cr2   O50   1.971142 S    
O15   Cr7   1.960345 S    
Cr1   O49   1.971176 S    
C16   C85   1.448241 S    
C42   H10   1.083081 S    
C31   C35   1.546373 S    
C49   C53   1.397143 A    
Cr3   O51   1.971176 S    
O14   Cr6   1.961337 S    
N7    O66   1.300612 A    
N2    O56   1.301507 A    
O21   Cr9   1.945064 S    
C74   H30   1.082672 S    
C43   H11   1.083096 S    
O9    Cr5   2.073487 S    
O37   Cr5   1.951367 S    
C8    O20   1.258461 A    
C41   H9    1.082452 S    
C92   N4    1.437871 S    
O18   Cr10  2.084341 S    
C42   C62   1.401466 A    
O3    C11   1.258726 A    
C3    C50   1.455077 S    
C29   H1    1.108114 S    
C59   H23   1.082315 S    
C75   C76   1.394409 A    
C37   N5    1.458022 S    
O31   Cr3   1.951848 S    
C79   C83   1.365069 A    
O38   C18   1.274784 A    
C76   H32   1.083098 S    
C19   O43   1.263639 A    
C80   C84   1.364828 A    
C5    O17   1.258816 A    
C30   C34   1.546333 S    
O37   C17   1.276128 A    
O22   Cr10  1.947114 S    
O28   C24   1.265844 A    
C47   C51   1.406340 A    
O14   C6    1.258158 A    
C35   C39   1.509832 S    
C27   C36   1.537062 S    
O5    Cr1   1.963081 S    
Cr12  O52   1.975289 S    
C26   C33   1.537212 S    
C27   H7    1.110009 S    
N6    O64   1.300128 A    
Cr11  O51   1.976932 S    
C54   H18   1.083742 S    
C79   H35   1.084364 S    
O24   C12   1.277212 A    
C17   O41   1.262403 A    
C83   C87   1.407174 A    
C68   H28   1.081616 S    
C57   H21   1.082456 S    
C67   C72   1.397986 A    
C22   C98   1.457386 S    
O26   Cr2   2.080933 S    
C14   O34   1.257354 A    
C30   C37   1.532033 S    
C21   C97   1.442238 S    
O40   Cr8   1.948714 S    
C75   H31   1.083099 S    
N4    O60   1.301758 A    
C20   O44   1.262969 A    
C55   H19   1.083767 S    
C39   N7    1.452996 S    
C80   C100  1.388887 A    
C15   C86   1.467266 S    
O19   Cr11  2.084839 S    
C25   C26   1.557185 S    
O1    Cr1   2.071567 S    
C56   C60   1.369732 A    
O32   C16   1.267578 A    
C9    C61   1.453887 S    
C37   C38   1.519332 S    
O13   Cr5   1.960345 S    
C58   C62   1.404202 A    
N4    O59   1.301533 A    
C90   C94   1.397275 A    
C33   C37   1.534320 S    
Cr5   O49   1.975236 S    
O45   C21   1.271202 A    
C32   H4    1.107926 S    
C59   C63   1.404477 A    
C55   C59   1.371654 A    
N1    O54   1.301746 A    
O33   Cr5   2.079173 S    
O23   C11   1.276057 A    
O10   Cr6   2.070333 S    
C65   H25   1.083063 S    
N8    O67   1.299338 A    
O35   Cr7   2.079173 S    
O4    Cr4   2.075236 S    
C90   N2    1.436939 S    
C6    C34   1.453259 S    
O6    C2    1.272262 A    
C28   H8    1.110108 S    
C40   N8    1.458099 S    
O29   Cr1   1.951848 S    
C42   C46   1.394997 A    
C85   C89   1.417205 A    
C16   O36   1.268952 A    
O40   C20   1.273146 A    
N2    O55   1.301521 A    
C27   C31   1.555112 S    
N5    O62   1.300066 A    
Cr6   O50   1.976832 S    
C6    O18   1.265235 A    
O43   Cr11  2.064640 S    
C67   C68   1.363739 A    
C78   C98   1.395112 A    
O27   C23   1.267243 A    
O45   Cr9   1.963265 S    
C32   C36   1.551907 S    
C77   C97   1.400427 A    
C53   C57   1.369320 A    
C82   C86   1.404616 A    
O38   Cr6   1.948714 S    
C77   H33   1.082940 S    
C44   C48   1.394827 A    
C18   C69   1.451981 S    
O31   C15   1.273546 A    
O16   C8    1.271465 A    
C69   C73   1.403968 A    
C5    C33   1.461743 S    
O46   Cr10  1.962606 S    
C65   C66   1.366375 A    
