data_str_m9_o3_o18_f0_sra.sym.49
_audit_creation_date              2012-12-11T16:44:20-0500
_audit_creation_method            fapswitch 2.2
_symmetry_space_group_name_H-M    P1
_symmetry_Int_Tables_number       1
_space_group_crystal_system       triclinic
_cell_length_a                    27.136699
_cell_length_b                    7.212977
_cell_length_c                    22.770225
_cell_angle_alpha                 90.100982
_cell_angle_beta                  101.27323
_cell_angle_gamma                 89.800829
_cell_volume                      4370.94031039

loop_
_atom_site_label
_atom_site_type_symbol
_atom_type_description
_atom_site_fract_x
_atom_site_fract_y
_atom_site_fract_z
_atom_type_partial_charge
O1    O     O_R   0.707300 0.594030 0.176840 -0.531929
O2    O     O_R   0.292700 0.405970 0.823160 -0.531930
O3    O     O_R   0.792700 0.094030 0.323160 -0.532201
O4    O     O_R   0.207300 0.905970 0.676840 -0.532201
O5    O     O_R   0.697330 0.262360 0.295660 -0.536845
O6    O     O_R   0.302670 0.737640 0.704340 -0.536845
O7    O     O_R   0.802670 0.762360 0.204340 -0.539670
O8    O     O_R   0.197330 0.237640 0.795660 -0.539668
C1    C     C_R   0.684969 0.432682 0.311719 0.681989
C2    C     C_R   0.315031 0.567318 0.688281 0.681989
C3    C     C_R   0.815395 0.932247 0.188463 0.682506
C4    C     C_R   0.184606 0.067753 0.811537 0.682504
O9    O     O_R   0.701410 0.264250 0.175600 -0.535057
O10   O     O_R   0.298590 0.735750 0.824400 -0.535056
O11   O     O_R   0.798590 0.764250 0.324400 -0.535654
O12   O     O_R   0.201410 0.235750 0.675600 -0.535654
O13   O     O_R   0.796800 0.094950 0.202240 -0.538748
O14   O     O_R   0.203200 0.905050 0.797760 -0.538747
O15   O     O_R   0.703200 0.594950 0.297760 -0.534184
O16   O     O_R   0.296800 0.405050 0.702240 -0.534184
C5    C     C_R   0.689800 0.432592 0.153493 0.693754
C6    C     C_R   0.310200 0.567408 0.846507 0.693753
C7    C     C_R   0.810225 0.932390 0.346529 0.695530
C8    C     C_R   0.189775 0.067610 0.653471 0.695530
O17   O     O_3   0.781290 0.427390 0.258880 -0.375275
O18   O     O_3   0.218710 0.572610 0.741120 -0.375273
O19   O     O_3   0.718710 0.927390 0.241120 -0.370314
O20   O     O_3   0.281290 0.072610 0.758880 -0.370315
V1    V     V_3+5 0.744190 0.152150 0.248350 1.414163
V2    V     V_3+5 0.255810 0.847850 0.751650 1.414164
V3    V     V_3+5 0.755810 0.652150 0.251650 1.411501
V4    V     V_3+5 0.244190 0.347850 0.748350 1.411506
C9    C     C_R   0.155008 0.063384 0.594887 -0.079664
C10   C     C_R   0.844992 0.936616 0.405113 -0.079665
C11   C     C_R   0.344916 0.561910 0.905071 -0.077995
C12   C     C_R   0.655083 0.438090 0.094929 -0.077995
C13   C     C_R   0.139890 0.132687 0.488518 0.175423
C14   C     C_R   0.860109 0.867315 0.511482 0.175422
C15   C     C_R   0.359016 0.615707 0.012342 0.174709
C16   C     C_R   0.640984 0.384296 0.987658 0.174706
C17   C     C_R   0.172347 0.120888 0.544276 -0.158929
C18   C     C_R   0.827653 0.879114 0.455724 -0.158928
C19   C     C_R   0.326861 0.608930 0.956279 -0.160291
C20   C     C_R   0.673139 0.391072 0.043720 -0.160289
C21   C     C_R   0.104213 0.017436 0.590252 -0.222118
C22   C     C_R   0.895787 0.982564 0.409748 -0.222119
C23   C     C_R   0.396081 0.521640 0.909369 -0.221874
C24   C     C_R   0.603919 0.478359 0.090631 -0.221875
C25   C     C_R   0.069392 0.030829 0.534713 0.051081
C26   C     C_R   0.930608 0.969172 0.465286 0.051082
C27   C     C_R   0.430549 0.529698 0.965256 0.051471
C28   C     C_R   0.569451 0.470302 0.034743 0.051471
C29   C     C_R   0.088158 0.088887 0.483486 0.121389
C30   C     C_R   0.911842 0.911115 0.516514 0.121388
C31   C     C_R   0.411092 0.576989 0.017113 0.121924
C32   C     C_R   0.588908 0.423013 0.982886 0.121923
C33   C     C_R   0.016599 0.990941 0.528534 0.073154
C34   C     C_R   0.983401 0.009060 0.471465 0.073154
C35   C     C_R   0.483608 0.494203 0.971240 0.073473
C36   C     C_R   0.516392 0.505797 0.028760 0.073473
C37   C     C_R   0.004138 0.065818 0.422339 -0.193046
C38   C     C_R   0.995862 0.934185 0.577661 -0.193045
C39   C     C_R   0.494997 0.551938 0.078500 -0.193769
C40   C     C_R   0.505003 0.448063 0.921500 -0.193770
C41   C     C_R   0.054904 0.104099 0.428227 -0.199093
C42   C     C_R   0.945096 0.895904 0.571773 -0.199092
C43   C     C_R   0.443974 0.586208 0.072777 -0.199404
C44   C     C_R   0.556026 0.413794 0.927223 -0.199404
H1    H     H_    0.067679 0.147309 0.388273 0.139029
H2    H     H_    0.932321 0.852694 0.611727 0.139030
H3    H     H_    0.430683 0.621162 0.113214 0.138851
H4    H     H_    0.569317 0.378840 0.886786 0.138851
H5    H     H_    0.982100 0.083006 0.377981 0.123737
H6    H     H_    0.017900 0.916997 0.622019 0.123737
H7    H     H_    0.516682 0.563458 0.123242 0.123126
H8    H     H_    0.483318 0.436543 0.876757 0.123126
C45   C     C_R   0.865825 0.790298 0.117636 -0.172631
C46   C     C_R   0.134192 0.209675 0.882383 -0.172638
C47   C     C_R   0.652950 0.563964 0.398937 -0.162526
C48   C     C_R   0.347050 0.436036 0.601063 -0.162527
C49   C     C_R   0.901339 0.805073 0.080753 -0.188119
C50   C     C_R   0.098671 0.194918 0.919257 -0.188170
C51   C     C_R   0.616471 0.576657 0.434520 -0.181016
C52   C     C_R   0.383529 0.423343 0.565480 -0.181017
H9    H     H_    0.908491 0.686601 0.054361 0.127339
H10   H     H_    0.091530 0.313361 0.945663 0.127359
H11   H     H_    0.623288 0.666259 0.473479 0.122440
H12   H     H_    0.376712 0.333741 0.526520 0.122439
C53   C     C_R   0.927105 0.971759 0.077205 0.101830
C54   C     C_R   0.072887 0.028273 0.922785 0.101860
C55   C     C_R   0.571640 0.474943 0.420377 0.103410
C56   C     C_R   0.428360 0.525057 0.579623 0.103410
C57   C     C_R   0.917086 0.125617 0.111537 0.183237
C58   C     C_R   0.082909 0.874416 0.888458 0.183261
C59   C     C_R   0.563959 0.357597 0.369274 0.190800
C60   C     C_R   0.436041 0.642403 0.630726 0.190800
C61   C     C_R   0.880836 0.110343 0.147788 -0.167807
C62   C     C_R   0.119155 0.889693 0.852202 -0.167814
C63   C     C_R   0.601822 0.341112 0.335099 -0.176868
C64   C     C_R   0.398178 0.658888 0.664901 -0.176869
H13   H     H_    0.873167 0.229403 0.173705 0.129091
H14   H     H_    0.126818 0.770654 0.826277 0.129094
H15   H     H_    0.595916 0.251424 0.296103 0.122153
H16   H     H_    0.404084 0.748576 0.703896 0.122153
C65   C     C_R   0.854732 0.943350 0.151163 -0.084582
C66   C     C_R   0.145268 0.056655 0.848837 -0.084580
C67   C     C_R   0.646264 0.444424 0.349369 -0.073487
C68   C     C_R   0.353736 0.555576 0.650631 -0.073486
C69   C     C_R   0.014982 0.952174 0.060328 -0.194132
C70   C     C_R   0.985011 0.047897 0.939663 -0.194089
C71   C     C_R   0.527969 0.338655 0.496868 -0.203509
C72   C     C_R   0.472031 0.661345 0.503132 -0.203509
C73   C     C_R   0.051267 0.967610 0.024155 0.173800
C74   C     C_R   0.948729 0.032509 0.975843 0.173807
C75   C     C_R   0.493807 0.346203 0.536037 0.179646
C76   C     C_R   0.506193 0.653797 0.463963 0.179646
C77   C     C_R   0.036076 0.015929 0.963172 0.039703
C78   C     C_R   0.963914 0.984108 0.036814 0.039768
C79   C     C_R   0.465531 0.509692 0.539381 0.031079
C80   C     C_R   0.534469 0.490308 0.460619 0.031080
H17   H     H_    0.026428 0.915829 0.107205 0.127532
H18   H     H_    0.973569 0.084282 0.892793 0.127531
H19   H     H_    0.549872 0.213856 0.494500 0.136563
H20   H     H_    0.450127 0.786144 0.505500 0.136562
C81   C     C_3   0.105742 0.931674 0.050831 -0.787210
H21   H     H_    0.120015 0.815163 0.026854 0.211295
H22   H     H_    0.128155 0.057815 0.046704 0.212479
H23   H     H_    0.111225 0.894763 0.099026 0.203867
C82   C     C_3   0.894273 0.068682 0.949200 -0.787350
H24   H     H_    0.871826 0.942613 0.953270 0.212519
H25   H     H_    0.880036 0.185099 0.973238 0.211305
H26   H     H_    0.888805 0.105857 0.901030 0.203901
C83   C     C_3   0.488826 0.181009 0.574654 -0.803600
H27   H     H_    0.515596 0.068804 0.568771 0.212493
H28   H     H_    0.496639 0.222982 0.622507 0.216863
H29   H     H_    0.450275 0.123743 0.562701 0.209401
C84   C     C_3   0.511174 0.818991 0.425346 -0.803601
H30   H     H_    0.503361 0.777018 0.377493 0.216863
H31   H     H_    0.484403 0.931197 0.431229 0.212493
H32   H     H_    0.549724 0.876257 0.437299 0.209402
H33   H     H_    0.906830 0.023433 0.368765 0.103372
H34   H     H_    0.093170 0.976565 0.631235 0.103372
H35   H     H_    0.592407 0.511748 0.132039 0.102081
H36   H     H_    0.407592 0.488249 0.867961 0.102081
H37   H     H_    0.788408 0.841983 0.451381 0.103859
H38   H     H_    0.211592 0.158019 0.548619 0.103860
H39   H     H_    0.712719 0.358703 0.047784 0.108242
H40   H     H_    0.287281 0.641299 0.952215 0.108240
C85   C     C_3   0.161361 0.195155 0.435450 -0.813692
H41   H     H_    0.202323 0.223018 0.447860 0.209420
H42   H     H_    0.155757 0.085579 0.400488 0.208938
H43   H     H_    0.142589 0.325205 0.416822 0.211875
C86   C     C_3   0.838638 0.804848 0.564550 -0.813689
H44   H     H_    0.797676 0.776986 0.552141 0.209420
H45   H     H_    0.857411 0.674799 0.583179 0.211875
H46   H     H_    0.844243 0.914426 0.599512 0.208939
C87   C     C_3   0.336813 0.666727 0.066086 -0.811169
H47   H     H_    0.295678 0.692031 0.053798 0.211188
H48   H     H_    0.343036 0.552107 0.099221 0.208931
H49   H     H_    0.354576 0.795505 0.086944 0.211509
C88   C     C_3   0.663187 0.333278 0.933913 -0.811164
H50   H     H_    0.704322 0.307974 0.946202 0.211192
H51   H     H_    0.645424 0.204499 0.913055 0.211509
H52   H     H_    0.656964 0.447898 0.900778 0.208932
H53   H     H_    0.846326 0.660048 0.118910 0.131754
H54   H     H_    0.153709 0.339885 0.881128 0.131750
H55   H     H_    0.686947 0.645279 0.410805 0.117416
H56   H     H_    0.313053 0.354721 0.589195 0.117416
C89   C     C_3   0.944497 0.306033 0.109550 -0.815852
H57   H     H_    0.985442 0.283988 0.125402 0.216762
H58   H     H_    0.937751 0.359097 0.062931 0.211830
H59   H     H_    0.931827 0.413265 0.138433 0.207689
C90   C     C_3   0.055521 0.693978 0.890479 -0.815894
H60   H     H_    0.062253 0.641070 0.937116 0.211860
H61   H     H_    0.014577 0.715913 0.874592 0.216764
H62   H     H_    0.068228 0.586691 0.861646 0.207704
C91   C     C_3   0.515716 0.253719 0.348028 -0.825581
H63   H     H_    0.523985 0.103684 0.345342 0.218463
H64   H     H_    0.488071 0.272726 0.377480 0.221232
H65   H     H_    0.498018 0.302956 0.302595 0.211409
C92   C     C_3   0.484284 0.746281 0.651972 -0.825580
H66   H     H_    0.511929 0.727274 0.622520 0.221233
H67   H     H_    0.476015 0.896316 0.654657 0.218462
H68   H     H_    0.501982 0.697044 0.697405 0.211409

loop_
_geom_bond_atom_site_label_1
_geom_bond_atom_site_label_2
_ccdc_geom_bond_type
C58   C90   S    
O17   V3    S    
C51   H11   S    
C25   C29   A    
O1    C5    A    
C87   H47   S    
O19   V1    S    
C9    C21   A    
C89   H57   S    
C63   H15   S    
C49   C53   A    
C10   C18   A    
C56   C60   A    
C60   C92   S    
C48   C52   A    
C11   C23   A    
C88   H50   S    
C25   C33   A    
C33   C38   A    
C5    C12   S    
C42   H2    S    
C90   H60   S    
O7    C3    A    
C6    C11   S    
C84   H31   S    
C57   C89   S    
C35   C40   A    
C26   C30   A    
C36   C39   A    
C40   C44   A    
O9    V1    S    
C56   C79   S    
C14   C18   A    
C85   H42   S    
O4    C8    A    
C59   C63   A    
C90   H62   S    
C73   C81   S    
C58   C62   A    
C45   H53   S    
O1    V3    S    
C20   H39   S    
O13   V1    S    
O2    V4    S    
O3    V1    S    
C19   H40   S    
C28   C36   A    
C2    C68   S    
C59   C91   S    
C64   H16   S    
C15   C31   A    
C17   H38   S    
C2    O16   A    
C16   C32   A    
C3    C65   S    
C81   H23   S    
C10   C22   A    
C45   C49   A    
C86   H45   S    
C11   C19   A    
C70   C74   A    
C16   C20   A    
C43   H3    S    
C44   H4    S    
C82   H26   S    
C13   C29   A    
C7    C10   S    
C34   C37   A    
O11   C7    A    
O15   V3    S    
C35   C36   A    
C87   H48   S    
C15   C87   S    
C53   C57   A    
C89   H58   S    
O10   V2    S    
C70   C77   A    
C88   H51   S    
C1    O15   A    
C69   C78   A    
C54   C58   A    
C22   H33   S    
O5    V1    S    
C90   H61   S    
C47   C67   A    
C84   H32   S    
C39   C43   A    
C64   C68   A    
O7    V3    S    
C38   C42   A    
C71   H19   S    
C26   C34   A    
C54   C77   S    
C92   H67   S    
O18   V4    S    
C15   C19   A    
C75   C83   S    
C37   H5    S    
O3    C7    A    
C92   H66   S    
C23   H36   S    
C4    C66   S    
C76   C80   A    
C24   H35   S    
C71   C80   A    
O8    V4    S    
O5    C1    A    
C62   H14   S    
C83   H29   S    
C46   C50   A    
C31   C43   A    
C14   C30   A    
C21   C25   A    
O8    C4    A    
C91   H65   S    
C61   H13   S    
C40   H8    S    
O9    C5    A    
C86   H46   S    
O11   V3    S    
C74   C78   A    
C46   H54   S    
C73   C77   A    
O6    V2    S    
C87   H49   S    
C75   C79   A    
C81   H21   S    
C89   H59   S    
C85   H43   S    
C27   C35   A    
C51   C55   A    
C57   C61   A    
C72   C76   A    
C88   H52   S    
C29   C41   A    
C81   H22   S    
C82   H24   S    
O16   V4    S    
C92   H68   S    
C48   C68   A    
C3    O13   A    
C55   C80   S    
C52   H12   S    
C13   C85   S    
C50   C54   A    
O6    C2    A    
C72   C79   A    
C23   C27   A    
C72   H20   S    
C30   C42   A    
C69   C73   A    
O12   V4    S    
C63   C67   A    
C84   H30   S    
C22   C26   A    
C8    C9    S    
C62   C66   A    
C46   C66   A    
C9    C17   A    
O10   C6    A    
O20   V2    S    
C61   C65   A    
C16   C88   S    
C32   C44   A    
O2    C6    A    
C70   H18   S    
C50   H10   S    
C69   H17   S    
C33   C34   A    
C83   H27   S    
C39   H7    S    
C41   H1    S    
C60   C64   A    
C45   C65   A    
C74   C82   S    
C91   H64   S    
C21   H34   S    
C12   C24   A    
C27   C31   A    
C13   C17   A    
O4    V2    S    
C12   C20   A    
O14   V2    S    
C55   C59   A    
C47   C51   A    
C37   C41   A    
C24   C28   A    
C53   C78   S    
O12   C8    A    
C91   H63   S    
C76   C84   S    
C4    O14   A    
C83   H28   S    
C1    C67   S    
C38   H6    S    
C71   C75   A    
C52   C56   A    
C14   C86   S    
C47   H55   S    
C86   H44   S    
C85   H41   S    
C18   H37   S    
C48   H56   S    
C49   H9    S    
C28   C32   A    
C82   H25   S    
