data_str_m3_o10_o14_f0_pcu.sym.75
_audit_creation_date              2012-12-10T16:50:11-0500
_audit_creation_method            fapswitch 2.2
_symmetry_space_group_name_H-M    P1
_symmetry_Int_Tables_number       1
_space_group_crystal_system       triclinic
_cell_length_a                    7.795902
_cell_length_b                    8.556264
_cell_length_c                    10.632732
_cell_angle_alpha                 92.355319
_cell_angle_beta                  84.398888
_cell_angle_gamma                 93.811455
_cell_volume                      703.868224242

loop_
_atom_site_label
_atom_site_type_symbol
_atom_type_description
_atom_site_fract_x
_atom_site_fract_y
_atom_site_fract_z
_atom_type_partial_charge
C1    C     C_R   0.545751 0.794842 0.500706 0.956565
C2    C     C_R   0.454303 0.205707 0.508761 0.970531
C3    C     C_R   0.499016 0.489396 0.260329 0.924172
C4    C     C_R   0.381602 0.218341 0.860229 -0.175990
C5    C     C_R   0.345310 0.075309 0.917423 -0.175579
C6    C     C_R   0.382043 0.059636 0.041126 -0.193500
C7    C     C_R   0.449219 0.188864 0.110510 0.175929
C8    C     C_R   0.464726 0.340267 0.058040 0.052696
C9    C     C_3   0.710962 0.142886 0.198727 -0.732959
C10   C     C_R   0.445235 0.351018 0.929049 0.065509
C11   C     C_R   0.495014 0.494162 0.871476 -0.058255
C12   C     C_R   0.544452 0.628929 0.939357 -0.225475
C13   C     C_R   0.543361 0.623793 0.067962 -0.213045
C14   C     C_R   0.502892 0.481904 0.126875 -0.091688
C15   C     C_2   0.569819 0.958723 0.507565 -0.381998
C16   C     C_2   0.430212 0.042499 0.519004 -0.418025
C17   C     C_R   0.500131 0.504441 0.739493 0.849388
H1    H     H_    0.580227 0.738460 0.892878 0.141515
H2    H     H_    0.466074 0.065105 0.268720 0.218328
H3    H     H_    0.766118 0.126671 0.289133 0.241141
H4    H     H_    0.776901 0.249272 0.155042 0.252690
H5    H     H_    0.737143 0.038970 0.135179 0.221387
H6    H     H_    0.986539 0.619602 0.595609 0.190934
H7    H     H_    0.358273 0.224186 0.762330 0.148313
H8    H     H_    0.296594 0.974512 0.863710 0.153751
H9    H     H_    0.366941 0.944572 0.081050 0.141974
H10   H     H_    0.575738 0.730289 0.121878 0.138138
H11   H     H_    0.701704 0.009915 0.498786 0.178328
H12   H     H_    0.298303 0.991359 0.529282 0.182124
H13   H     H_    0.013414 0.380373 0.404372 0.189434
N1    N     N_2   0.950330 0.457950 0.466250 -0.173183
N2    N     N_2   0.049670 0.542050 0.533750 -0.171470
N3    N     N_2   0.526592 0.159466 0.221703 -0.314956
O1    O     O_R   0.389250 0.738570 0.508280 -0.613791
O2    O     O_R   0.678390 0.711630 0.486650 -0.630415
O3    O     O_R   0.355400 0.513470 0.694050 -0.622104
O4    O     O_R   0.644540 0.486530 0.672420 -0.619187
O5    O     O_R   0.321610 0.288370 0.513350 -0.634997
O6    O     O_R   0.610750 0.261430 0.491720 -0.602919
O7    O     O_R   0.355460 0.513470 0.327580 -0.624909
O8    O     O_R   0.644600 0.486530 0.305950 -0.603163
Zn1   Zn    Zn3+2 0.306930 0.517990 0.514440 0.940270
Zn2   Zn    Zn3+2 0.693070 0.482010 0.485560 0.944489

loop_
_geom_bond_atom_site_label_1
_geom_bond_atom_site_label_2
_ccdc_geom_bond_type
O4    Zn2   S    
C8    C14   A    
C11   C12   A    
C6    C7    A    
C1    C15   S    
C17   O3    A    
C2    C16   S    
C2    O5    A    
C9    H3    S    
O3    Zn1   S    
N1    N2    D    
O1    Zn1   S    
H13   N1    S    
H6    N2    S    
O7    Zn1   S    
C16   H12   S    
C7    C8    A    
C17   O4    A    
C13   C14   A    
C9    N3    S    
O8    Zn2   S    
C9    H4    S    
C15   H11   S    
C6    H9    S    
C3    C14   S    
N1    Zn2   S    
C5    H8    S    
C1    O1    A    
O5    Zn1   S    
C5    C6    A    
C4    H7    S    
C9    H5    S    
C10   C11   A    
C7    N3    S    
C4    C10   A    
C15   C16   D    
O2    Zn2   S    
C12   C13   A    
C1    O2    A    
C8    C10   A    
H2    N3    S    
C12   H1    S    
N2    Zn1   S    
C3    O8    A    
O6    Zn2   S    
C3    O7    A    
C2    O6    A    
C13   H10   S    
C4    C5    A    
C11   C17   S    
