data_str_m9_o10_o29_f0_sra.sym.97
_audit_creation_date              2012-12-11T14:08:48-0500
_audit_creation_method            fapswitch 2.2
_symmetry_space_group_name_H-M    P1
_symmetry_Int_Tables_number       1
_space_group_crystal_system       triclinic
_cell_length_a                    28.068774
_cell_length_b                    7.183837
_cell_length_c                    17.338072
_cell_angle_alpha                 89.995982
_cell_angle_beta                  101.854966
_cell_angle_gamma                 90.000278
_cell_volume                      3421.50616132

loop_
_atom_site_label
_atom_site_type_symbol
_atom_type_description
_atom_site_fract_x
_atom_site_fract_y
_atom_site_fract_z
_atom_type_partial_charge
O1    O     O_R   0.000700 0.436510 0.857920 -0.518188
O2    O     O_R   0.999300 0.563490 0.142080 -0.553035
O3    O     O_R   0.999300 0.936510 0.642080 -0.518273
O4    O     O_R   0.000700 0.063490 0.357920 -0.553202
O5    O     O_R   0.930080 0.766380 0.721890 -0.543599
O6    O     O_R   0.069920 0.233620 0.278110 -0.542622
O7    O     O_R   0.069920 0.266380 0.778110 -0.543597
O8    O     O_R   0.930080 0.733620 0.221890 -0.542588
C1    C     C_R   0.910708 0.598184 0.707085 0.769833
C2    C     C_R   0.089153 0.401900 0.291376 0.789855
C3    C     C_R   0.089294 0.098180 0.792910 0.769531
C4    C     C_R   0.910848 0.901906 0.208637 0.789581
O9    O     O_R   0.996180 0.766230 0.862310 -0.546269
O10   O     O_R   0.003820 0.233770 0.137690 -0.538539
O11   O     O_R   0.003820 0.266230 0.637690 -0.546069
O12   O     O_R   0.996180 0.733770 0.362310 -0.538324
O13   O     O_R   0.065870 0.936460 0.783500 -0.534222
O14   O     O_R   0.934130 0.063540 0.216500 -0.520262
O15   O     O_R   0.934130 0.436460 0.716500 -0.534143
O16   O     O_R   0.065870 0.563540 0.283500 -0.519989
C5    C     C_R   0.998568 0.596151 0.894153 0.792546
C6    C     C_R   0.000756 0.404433 0.105481 0.687643
C7    C     C_R   0.001425 0.096168 0.605843 0.792713
C8    C     C_R   0.999230 0.904437 0.394515 0.687746
O17   O     O_3   0.022790 0.603020 0.723980 -0.377959
O18   O     O_3   0.977210 0.396980 0.276020 -0.382670
O19   O     O_3   0.977210 0.103020 0.776020 -0.377956
O20   O     O_3   0.022790 0.896980 0.223980 -0.382555
V1    V     V_3+5 0.995770 0.877900 0.754830 1.561675
V2    V     V_3+5 0.004230 0.122100 0.245170 1.517660
V3    V     V_3+5 0.004230 0.377900 0.745170 1.561899
V4    V     V_3+5 0.995770 0.622100 0.254830 1.518109
C9    C     C_2   0.996777 0.083401 0.519126 -0.188863
C10   C     C_2   0.007025 0.921873 0.481811 -0.241586
C11   C     C_2   0.003211 0.583335 0.980865 -0.188600
C12   C     C_2   0.992940 0.421845 0.018180 -0.241511
C13   C     C_R   0.685148 0.056102 0.042149 0.673516
C14   C     C_R   0.316682 0.950789 0.955558 0.646933
C15   C     C_R   0.314860 0.556757 0.458075 0.673610
C16   C     C_R   0.683300 0.450948 0.544415 0.646947
O21   O     O_2   0.715763 0.146630 0.004556 -0.487035
O22   O     O_2   0.285853 0.847367 0.987918 -0.464975
O23   O     O_2   0.284277 0.647646 0.495607 -0.487059
O24   O     O_2   0.714108 0.347357 0.512086 -0.465103
N1    N     N_R   0.703080 0.974924 0.114591 -0.541569
N2    N     N_R   0.298039 0.055428 0.890336 -0.561977
N3    N     N_R   0.296901 0.475334 0.385701 -0.541588
N4    N     N_R   0.701966 0.555690 0.609588 -0.561987
C17   C     C_R   0.672569 0.981021 0.167563 0.698665
C18   C     C_R   0.327716 0.151988 0.851226 0.637891
C19   C     C_R   0.327380 0.481305 0.332679 0.698804
C20   C     C_R   0.672309 0.652438 0.648667 0.637909
C21   C     C_R   0.778128 0.863224 0.214197 0.470116
C22   C     C_R   0.219848 0.941298 0.813014 0.456998
C23   C     C_R   0.221929 0.362536 0.286245 0.470002
C24   C     C_R   0.780136 0.441558 0.686993 0.457016
C25   C     C_R   0.828692 0.878386 0.236798 -0.242629
C26   C     C_R   0.169186 0.950425 0.791651 -0.257202
C27   C     C_R   0.171366 0.377397 0.263496 -0.242388
C28   C     C_R   0.830799 0.450617 0.708380 -0.257218
C29   C     C_R   0.835236 0.897033 0.099880 -0.103171
C30   C     C_R   0.168731 0.221862 0.876023 -0.062549
C31   C     C_R   0.164694 0.398097 0.400299 -0.103214
C32   C     C_R   0.831301 0.721751 0.623843 -0.062401
C33   C     C_R   0.783498 0.883360 0.077974 -0.125466
C34   C     C_R   0.220478 0.212822 0.897851 -0.126061
C35   C     C_R   0.216430 0.384532 0.422345 -0.125699
C36   C     C_R   0.779555 0.712773 0.601985 -0.126267
C37   C     C_R   0.754489 0.910212 0.136030 0.236968
C38   C     C_R   0.245811 0.072428 0.865337 0.237031
C39   C     C_R   0.245495 0.410590 0.364318 0.237109
C40   C     C_R   0.754197 0.572575 0.634575 0.236961
C41   C     C_R   0.602314 0.028309 0.061628 -0.064486
C42   C     C_R   0.398451 0.053679 0.948630 -0.060880
C43   C     C_R   0.397671 0.528739 0.438529 -0.064512
C44   C     C_R   0.601550 0.554060 0.551339 -0.060931
C45   C     C_R   0.634326 0.062254 0.010241 -0.032851
C46   C     C_R   0.367461 0.951189 0.988243 -0.080468
C47   C     C_R   0.365686 0.562871 0.489939 -0.032909
C48   C     C_R   0.632518 0.451411 0.511750 -0.080428
C49   C     C_R   0.614234 0.105193 0.930040 -0.036679
C50   C     C_R   0.388837 0.850804 0.057487 -0.068186
C51   C     C_R   0.385806 0.605992 0.570109 -0.036730
C52   C     C_R   0.611118 0.350932 0.442550 -0.068146
C53   C     C_R   0.621693 0.989281 0.141171 -0.048446
C54   C     C_R   0.378440 0.151454 0.879052 -0.045983
C55   C     C_R   0.378261 0.489571 0.359011 -0.048417
C56   C     C_R   0.621584 0.651962 0.620867 -0.045897
C57   C     C_R   0.857416 0.907760 0.181026 -0.110371
C58   C     C_R   0.143061 0.090288 0.821398 -0.137335
C59   C     C_R   0.142579 0.407750 0.319097 -0.110486
C60   C     C_R   0.856945 0.590310 0.678567 -0.137337
C61   C     C_R   0.480886 0.147513 0.935043 0.027330
C62   C     C_R   0.519444 0.000343 0.086151 0.021804
C63   C     C_R   0.519134 0.648071 0.564949 0.027300
C64   C     C_R   0.480520 0.500615 0.413928 0.021819
C65   C     C_R   0.469277 0.975141 0.051854 0.074831
C66   C     C_R   0.531978 0.113479 0.958401 0.083933
C67   C     C_R   0.530694 0.475418 0.448191 0.074857
C68   C     C_R   0.468040 0.614049 0.541657 0.083983
C69   C     C_R   0.449561 0.058780 0.978465 0.035320
C70   C     C_R   0.551193 0.046425 0.035202 0.048402
C71   C     C_R   0.550437 0.559186 0.521537 0.035289
C72   C     C_R   0.448796 0.546844 0.464897 0.048481
C73   C     C_R   0.459419 0.261378 0.869655 -0.024650
C74   C     C_R   0.539644 0.980623 0.168315 -0.000368
C75   C     C_R   0.540623 0.762080 0.630266 -0.024648
C76   C     C_R   0.460289 0.480763 0.331782 -0.000491
C77   C     C_R   0.409020 0.255604 0.841020 -0.191595
C78   C     C_R   0.590269 0.970603 0.193953 -0.147042
C79   C     C_R   0.591025 0.756281 0.658872 -0.191474
C80   C     C_R   0.409659 0.470757 0.306196 -0.147050
O25   O     O_2   0.308050 0.250273 0.786126 -0.465564
O26   O     O_2   0.690586 0.999485 0.245231 -0.451369
O27   O     O_2   0.691998 0.750842 0.713715 -0.465605
O28   O     O_2   0.309321 0.499631 0.255011 -0.451357
C81   C     C_R   0.563887 0.131910 0.905938 -0.153391
C82   C     C_R   0.439077 0.859883 0.086415 -0.137872
C83   C     C_R   0.436158 0.632658 0.594153 -0.153580
C84   C     C_R   0.560875 0.360050 0.413647 -0.137831
H1    H     H_    0.150092 0.848935 0.750318 0.184802
H2    H     H_    0.846164 0.849019 0.297375 0.176703
H3    H     H_    0.849876 0.349226 0.749787 0.184916
H4    H     H_    0.153951 0.347236 0.202972 0.176811
H5    H     H_    0.393362 0.340837 0.790512 0.171714
H6    H     H_    0.605238 0.950970 0.256164 0.160002
H7    H     H_    0.606701 0.841618 0.709331 0.171579
H8    H     H_    0.394665 0.451029 0.244000 0.160069
H9    H     H_    0.549441 0.156178 0.843993 0.098949
H10   H     H_    0.454587 0.775547 0.137118 0.119173
H11   H     H_    0.450629 0.657048 0.656082 0.099030
H12   H     H_    0.545348 0.275648 0.362979 0.119176
C85   C     C_2   0.974563 0.250491 0.475298 0.404236
H13   H     H_    0.993048 0.324095 0.435472 0.099873
O29   O     O_2   0.936015 0.312129 0.486526 -0.505718
C86   C     C_2   0.032298 0.760604 0.525994 0.503939
H14   H     H_    0.020398 0.620240 0.509116 0.071885
O30   O     O_2   0.068239 0.783116 0.578372 -0.525924
C87   C     C_2   0.025474 0.750293 0.024710 0.404886
H15   H     H_    0.006917 0.824324 0.064323 0.099385
O31   O     O_2   0.064166 0.811169 0.013788 -0.505574
C88   C     C_2   0.967619 0.260649 0.974011 0.503283
H16   H     H_    0.979442 0.120236 0.990958 0.071626
O32   O     O_2   0.931717 0.283286 0.921571 -0.525800
C89   C     C_2   0.865785 0.884945 0.038972 0.368262
H17   H     H_    0.853201 0.810295 0.984345 0.049993
O33   O     O_2   0.905589 0.959799 0.048759 -0.548533
C90   C     C_2   0.141985 0.367247 0.910920 0.509019
H18   H     H_    0.155122 0.509718 0.915672 0.087090
O34   O     O_2   0.106010 0.327699 0.936936 -0.521214
C91   C     C_2   0.134088 0.386871 0.461153 0.368215
H19   H     H_    0.146688 0.313315 0.516047 0.049942
O35   O     O_2   0.094211 0.461217 0.451024 -0.548601
C92   C     C_2   0.858077 0.866941 0.588882 0.508725
H20   H     H_    0.844948 0.009420 0.584011 0.087075
O36   O     O_2   0.894071 0.827218 0.562951 -0.521292
C93   C     C_2   0.760495 0.813235 0.998236 0.549123
H21   H     H_    0.774144 0.853995 0.946622 0.088734
O37   O     O_2   0.725790 0.707186 0.989749 -0.481830
C94   C     C_2   0.249274 0.342990 0.956635 0.535207
H22   H     H_    0.286715 0.375179 0.954355 0.049337
O38   O     O_2   0.232515 0.409772 0.010103 -0.468242
C95   C     C_2   0.239366 0.314980 0.502210 0.549235
H23   H     H_    0.225726 0.356473 0.553737 0.088825
O39   O     O_2   0.274010 0.208609 0.510904 -0.481600
C96   C     C_2   0.750784 0.842805 0.543102 0.535558
H24   H     H_    0.713340 0.875075 0.545326 0.049265
O40   O     O_2   0.767569 0.909376 0.489616 -0.468137
C97   C     C_2   0.642850 0.110272 0.867011 0.555234
H25   H     H_    0.632027 0.203680 0.817249 0.045879
O41   O     O_2   0.676341 0.002054 0.866860 -0.457596
C98   C     C_2   0.360997 0.737975 0.104132 0.599197
H26   H     H_    0.369348 0.591313 0.113659 -0.001285
O42   O     O_2   0.330966 0.810587 0.136444 -0.423980
C99   C     C_2   0.357214 0.611338 0.633167 0.555177
H27   H     H_    0.368080 0.704783 0.682898 0.045787
O43   O     O_2   0.323692 0.503306 0.633375 -0.457475
C100  C     C_2   0.638938 0.237966 0.395927 0.599006
H28   H     H_    0.630574 0.091303 0.386453 -0.001301
O44   O     O_2   0.668968 0.310464 0.363577 -0.424074
Cl1   Cl    Cl    0.250419 0.761698 0.773972 -0.568354
Cl2   Cl    Cl    0.751830 0.708270 0.272852 -0.455304
Cl3   Cl    Cl    0.749534 0.262197 0.726133 -0.568091
Cl4   Cl    Cl    0.248393 0.207232 0.227958 -0.455687
C101  C     C_2   0.486092 0.409239 0.836249 0.360085
H29   H     H_    0.473778 0.452274 0.775414 0.035666
O45   O     O_2   0.520094 0.491870 0.877340 -0.515296
C102  C     C_2   0.511003 0.997635 0.231259 0.345779
H30   H     H_    0.526117 0.946995 0.290194 0.090668
O46   O     O_2   0.471896 0.078119 0.219892 -0.538468
C103  C     C_2   0.513970 0.910099 0.663606 0.360218
H31   H     H_    0.526304 0.953312 0.724409 0.035375
O47   O     O_2   0.479960 0.992650 0.622490 -0.515352
C104  C     C_2   0.488902 0.497637 0.268795 0.345664
H32   H     H_    0.473760 0.446954 0.209881 0.090774
O48   O     O_2   0.528015 0.578066 0.280100 -0.538494

loop_
_geom_bond_atom_site_label_1
_geom_bond_atom_site_label_2
_ccdc_geom_bond_type
O17   V3    S    
C67   C71   A    
O1    C5    A    
C93   H21   S    
C23   C27   A    
O19   V1    S    
O13   V1    S    
C97   H25   S    
O3    C7    A    
C11   C12   D    
C68   C72   A    
C48   C52   A    
O4    V2    S    
C21   C37   A    
C34   C94   S    
C100  H28   S    
C42   C69   A    
C99   O43   D    
C34   C38   A    
O7    C3    A    
C25   C57   A    
C32   C36   A    
O9    V1    S    
C95   O39   D    
O10   V2    S    
C14   O22   S    
N4    C20   A    
C51   C99   S    
C22   C26   A    
O4    C8    A    
C101  O45   D    
C51   C83   A    
C64   C67   A    
C32   C92   S    
O1    V3    S    
C52   C84   A    
O2    V4    S    
C73   C101  S    
C65   C82   A    
O3    V1    S    
C29   C89   S    
C12   C88   S    
C61   C73   A    
C25   H2    S    
C56   C79   A    
C1    O15   A    
C62   C74   A    
C95   H23   S    
C102  O46   D    
C63   C71   A    
C24   C40   A    
O2    C6    A    
C83   H11   S    
C23   Cl4   S    
C16   C48   A    
O14   V2    S    
C49   C97   S    
C81   H9    S    
C44   C56   A    
C92   O36   D    
C36   C40   A    
C11   C87   S    
C44   C71   A    
O11   C7    A    
C17   O26   S    
C67   C84   A    
C91   H19   S    
O15   V3    S    
O12   C8    A    
C30   C90   S    
C96   O40   D    
C97   O41   D    
C31   C59   A    
C96   H24   S    
N4    C40   S    
C1    C60   S    
C89   O33   D    
C29   C57   A    
C89   H17   S    
O5    V1    S    
C28   C60   A    
C31   C35   A    
O7    V3    S    
C30   C34   A    
N1    C37   S    
C103  H31   S    
O8    V4    S    
C17   C53   A    
C4    C57   S    
C20   C56   A    
C54   C77   A    
C90   H18   S    
C33   C93   S    
C53   C78   A    
C2    O16   A    
C80   H8    S    
C21   C25   A    
C63   C68   A    
C15   O23   S    
C55   C80   A    
C14   C46   A    
C62   C65   A    
C7    C9    S    
C66   C70   A    
C13   C45   A    
C8    C10   S    
C76   C80   A    
C102  H30   S    
C94   O38   D    
C93   O37   D    
C28   H3    S    
C103  O47   D    
C61   C69   A    
O5    C1    A    
C82   H10   S    
C29   C33   A    
C46   C50   A    
C100  O44   D    
C99   H27   S    
C22   C38   A    
C10   C86   S    
O8    C4    A    
C41   C53   A    
C9    C10   D    
C22   Cl1   S    
O9    C5    A    
C68   C83   A    
C27   C59   A    
C42   C54   A    
C52   C100  S    
C26   C58   A    
C31   C91   S    
C92   H20   S    
C63   C75   A    
C78   H6    S    
C50   C98   S    
C5    C11   S    
C49   C81   A    
C43   C55   A    
C41   C70   A    
O6    V2    S    
C2    C59   S    
C19   C55   A    
C79   H7    S    
C85   H13   S    
C88   O32   D    
N3    C39   S    
C13   N1    A    
C104  O48   D    
N2    C38   S    
C98   H26   S    
C66   C81   A    
C15   N3    A    
O16   V4    S    
C20   O27   S    
C77   H5    S    
C27   H4    S    
C16   N4    A    
C73   C77   A    
C3    O13   A    
C26   H1    S    
C41   C45   A    
C84   H12   S    
C75   C79   A    
C9    C85   S    
C44   C48   A    
C90   O34   D    
C86   H14   S    
O6    C2    A    
N3    C19   A    
C87   H15   S    
O11   V3    S    
O18   V4    S    
C24   Cl3   S    
O12   V4    S    
C6    C12   S    
N2    C18   A    
C19   O28   S    
C18   O25   S    
C94   H22   S    
O10   C6    A    
C64   C72   A    
C74   C102  S    
C21   Cl2   S    
C47   C51   A    
C87   O31   D    
C3    C58   S    
C101  H29   S    
C43   C72   A    
C43   C47   A    
C33   C37   A    
C30   C58   A    
O20   V2    S    
C98   O42   D    
C75   C103  S    
N1    C17   A    
C104  H32   S    
C35   C39   A    
C91   O35   D    
C13   O21   S    
C23   C39   A    
C14   N2    A    
C18   C54   A    
C86   O30   D    
C35   C95   S    
C16   O24   S    
C24   C28   A    
C62   C70   A    
C74   C78   A    
C45   C49   A    
C42   C46   A    
C4    O14   A    
C85   O29   D    
C50   C82   A    
C88   H16   S    
C64   C76   A    
C32   C60   A    
C76   C104  S    
C61   C66   A    
C65   C69   A    
C15   C47   A    
C36   C96   S    
