data_str_m12_o4_o9_f0_bcu.sym.108
_audit_creation_date              2013-03-05T15:55:03-0500
_audit_creation_method            fapswitch 2.2
_symmetry_space_group_name_H-M    P1
_symmetry_Int_Tables_number       1
_space_group_crystal_system       triclinic
_cell_length_a                    14.920336
_cell_length_b                    14.985953
_cell_length_c                    14.94303
_cell_angle_alpha                 109.826956
_cell_angle_beta                  109.597518
_cell_angle_gamma                 109.391346
_cell_volume                      2559.17917853

loop_
_atom_site_label
_atom_site_type_symbol
_atom_site_description
_atom_site_fract_x
_atom_site_fract_y
_atom_site_fract_z
_atom_type_partial_charge
C1    C     C_R   0.183319 0.274289 0.230553 -0.008183
H1    H     H_    0.117139 0.290792 0.205834 0.086075
N1    N     N_R   0.291070 0.347930 0.293870 -0.039631
C2    C     C_R   0.594864 0.502533 0.802720 -0.163343
H2    H     H_    0.655587 0.479265 0.830374 0.098257
N2    N     N_R   0.554050 0.497220 0.706150 -0.050142
C3    C     C_R   0.451801 0.184945 0.407487 -0.111024
H3    H     H_    0.411324 0.122179 0.323552 0.100270
N3    N     N_R   0.497240 0.291100 0.443210 -0.042174
C4    C     C_R   0.275147 0.546319 0.591392 -0.121535
H4    H     H_    0.295897 0.582434 0.676627 0.113787
N4    N     N_R   0.347890 0.554050 0.556810 -0.040877
C5    C     C_R   0.536717 0.275710 0.591530 -0.089162
H5    H     H_    0.569113 0.296165 0.676537 0.105012
N5    N     N_R   0.554050 0.347900 0.556830 -0.051982
C6    C     C_R   0.184977 0.459240 0.407464 -0.047713
H6    H     H_    0.123771 0.418077 0.323327 0.099548
N6    N     N_R   0.291070 0.497250 0.443190 -0.047324
C7    C     C_R   0.502821 0.592878 0.803992 -0.086101
H7    H     H_    0.475163 0.649077 0.832197 0.150192
N7    N     N_R   0.497240 0.554030 0.706140 -0.039096
C8    C     C_R   0.275027 0.183814 0.228925 -0.124749
H8    H     H_    0.293084 0.119480 0.200921 0.101524
N8    N     N_R   0.347890 0.291110 0.293870 -0.047105
C9    C     C_R   0.171766 0.171315 0.197271 0.073515
C10   C     C_R   0.566544 0.564367 0.866910 0.055862
C11   C     C_R   0.469565 0.172123 0.497674 0.100020
C12   C     C_R   0.170829 0.484160 0.497529 0.067586
C13   C     C_R   0.399673 0.703906 0.408071 -0.138087
H9    H     H_    0.333187 0.667232 0.325969 0.147835
N9    N     N_R   0.445950 0.652100 0.443170 -0.047328
C14   C     C_R   0.795580 0.487406 0.588118 -0.098154
H10   H     H_    0.846202 0.508978 0.670799 0.126846
N10   N     N_R   0.708930 0.502750 0.556810 -0.049337
C15   C     C_R   0.560624 0.469483 0.245918 -0.123158
H11   H     H_    0.617068 0.441286 0.238726 0.103723
N11   N     N_R   0.502760 0.445970 0.293860 -0.047900
C16   C     C_R   0.709380 0.799990 0.805412 -0.043568
N12   N     N_R   0.652110 0.708890 0.706130 -0.074779
C17   C     C_R   0.800474 0.709237 0.804561 0.035210
N13   N     N_R   0.708930 0.652070 0.706130 -0.083688
C18   C     C_R   0.453768 0.546636 0.230732 -0.075233
N14   N     N_R   0.445950 0.502780 0.293850 -0.052998
C19   C     C_R   0.496016 0.800433 0.589756 -0.091168
H12   H     H_    0.524996 0.857638 0.673373 0.123887
N15   N     N_R   0.502760 0.708900 0.556790 -0.046526
C20   C     C_R   0.703515 0.399631 0.406503 -0.120854
H13   H     H_    0.666851 0.341640 0.320719 0.113026
N16   N     N_R   0.652110 0.445950 0.443190 -0.045956
Ni1   Ni    Ni4+2 0.369690 0.500010 0.369700 0.264659
Ni2   Ni    Ni4+2 0.630310 0.499990 0.630300 0.207155
Ni3   Ni    Ni4+2 0.500000 0.369720 0.369720 0.236460
Ni4   Ni    Ni4+2 0.500000 0.630280 0.630280 0.249935
C21   C     C_R   0.429198 0.797262 0.497339 0.033180
C22   C     C_R   0.792259 0.419305 0.495294 0.012170
C23   C     C_R   0.535484 0.536510 0.209074 -0.013570
C24   C     C_R   0.801494 0.800808 0.872741 -0.054315
H14   H     H_    0.005254 0.588373 0.149143 0.178801
C25   C     C_R   0.024955 0.614449 0.306275 -0.061486
H15   H     H_    0.058978 0.702104 0.340389 0.187298
C26   C     C_R   0.008837 0.566118 0.369580 -0.085656
C27   C     C_R   0.967040 0.451076 0.323133 0.014166
C28   C     C_R   0.937283 0.388102 0.212634 -0.054175
H16   H     H_    0.910224 0.301816 0.175866 0.151011
C29   C     C_R   0.950198 0.437261 0.150214 -0.132176
H17   H     H_    0.927901 0.387744 0.065837 0.130743
C30   C     C_R   0.994833 0.550254 0.197306 -0.159655
C31   C     C_R   0.866650 0.342951 0.387769 -0.130741
C32   C     C_R   0.866563 0.375630 0.487558 0.054049
C33   C     C_R   0.961130 0.406364 0.582562 0.080499
C34   C     C_R   0.058851 0.432208 0.580009 -0.200134
H18   H     H_    0.132307 0.455062 0.651273 0.136065
C35   C     C_R   0.064041 0.439914 0.490701 0.055431
C36   C     C_R   0.965769 0.399854 0.393456 -0.098647
C37   C     C_R   0.043048 0.520067 0.784611 -0.172841
H19   H     H_    0.103834 0.582848 0.782839 0.161301
C38   C     C_R   0.041415 0.543488 0.883053 0.019778
C39   C     C_R   0.958549 0.464565 0.883157 -0.219461
H20   H     H_    0.954358 0.480965 0.957441 0.142382
C40   C     C_R   0.880477 0.362945 0.787641 -0.169629
H21   H     H_    0.819345 0.303086 0.791807 0.172185
C41   C     C_R   0.881971 0.337828 0.688751 -0.081106
C42   C     C_R   0.962678 0.419297 0.686420 0.005960
C43   C     C_R   0.641903 0.536037 0.019232 0.141646
C44   C     C_R   0.604830 0.597489 0.981814 0.022977
C45   C     C_R   0.580951 0.668842 0.045616 -0.158309
H22   H     H_    0.559159 0.722907 0.022511 0.143531
C46   C     C_R   0.574414 0.662151 0.134151 -0.048479
H23   H     H_    0.553322 0.715180 0.181757 0.156608
C47   C     C_R   0.583661 0.578888 0.152210 0.004258
C48   C     C_R   0.631874 0.527076 0.105309 0.075660
C49   C     C_3   0.748692 0.552233 0.163428 -0.292536
C50   C     C_3   0.758656 0.561232 0.068995 -0.479424
H24   H     H_    0.753330 0.481018 0.167423 0.148832
H25   H     H_    0.816958 0.644012 0.089417 0.224758
H26   H     H_    0.767380 0.494248 0.018265 0.177237
C51   C     C_R   0.363031 0.876079 0.390698 0.160155
C52   C     C_R   0.391533 0.873436 0.488631 -0.063374
C53   C     C_R   0.404211 0.958615 0.579798 -0.075925
C54   C     C_R   0.423031 0.057638 0.580958 -0.131429
H27   H     H_    0.444401 0.128325 0.653974 0.161948
C55   C     C_R   0.422210 0.066740 0.490171 0.018283
C56   C     C_R   0.377021 0.971141 0.391123 0.116856
C57   C     C_3   0.412429 0.948926 0.306969 -0.486649
C58   C     C_3   0.399005 0.845387 0.307787 -0.458978
H28   H     H_    0.351578 0.932616 0.227091 0.207141
H29   H     H_    0.499244 0.009265 0.339136 0.221447
H30   H     H_    0.331929 0.769823 0.228214 0.221055
H31   H     H_    0.478786 0.847307 0.341852 0.203976
C59   C     C_R   0.971157 0.070095 0.119778 0.046327
C60   C     C_R   0.069999 0.069465 0.145452 0.021449
C61   C     C_R   0.068389 0.969970 0.122940 -0.137151
H32   H     H_    0.143244 0.966890 0.155287 0.125836
C62   C     C_R   0.968597 0.872032 0.051091 -0.091633
H33   H     H_    0.969406 0.796667 0.033845 0.160564
C63   C     C_R   0.874015 0.874643 0.993742 -0.024066
C64   C     C_R   0.871875 0.971152 0.042700 0.211459
C65   C     C_3   0.824877 0.991308 0.116908 -0.509138
C66   C     C_3   0.930893 0.099166 0.199303 -0.311938
H34   H     H_    0.753538 0.002208 0.081590 0.227251
H35   H     H_    0.807315 0.928710 0.142298 0.225808
H36   H     H_    0.919782 0.170645 0.209342 0.139224
C67   C     C_2   0.664835 0.870610 0.840521 0.937227
O1    O     O_2   0.713683 0.967439 0.868329 -0.628682
O2    O     O_R   0.565127 0.826261 0.838102 -0.846318
H37   H     H_    0.542851 0.882900 0.863416 0.333603
C68   C     C_2   0.871882 0.665164 0.835448 0.435074
H38   H     H_    0.839045 0.587911 0.833770 -0.009180
O3    O     O_2   0.967303 0.712905 0.858157 -0.572873
C69   C     C_2   0.358534 0.550337 0.161007 0.955385
O4    O     O_2   0.363112 0.589139 0.101828 -0.653581
O5    O     O_R   0.258676 0.500476 0.157246 -0.818572
H39   H     H_    0.198393 0.505862 0.106081 0.321210
C70   C     C_2   0.034527 0.636496 0.482853 0.485596
H40   H     H_    0.009711 0.600331 0.528191 0.036715
O6    O     O_2   0.083049 0.736418 0.526862 -0.559920
C71   C     C_2   0.767238 0.245123 0.284486 0.996707
O7    O     O_2   0.750389 0.232280 0.194076 -0.665907
O8    O     O_R   0.691006 0.167107 0.291778 -0.770086
H41   H     H_    0.626257 0.104263 0.216907 0.327669
C72   C     C_2   0.122521 0.652382 0.984120 1.056345
O9    O     O_2   0.205209 0.714244 0.990284 -0.623380
O10   O     O_R   0.103002 0.685812 0.071608 -0.859266
H42   H     H_    0.160532 0.763896 0.133296 0.315149
C73   C     C_2   0.800868 0.225368 0.592106 1.025772
O11   O     O_2   0.820176 0.186002 0.519555 -0.594260
O12   O     O_R   0.703739 0.162201 0.586485 -0.814899
H43   H     H_    0.656863 0.085823 0.519135 0.329324
C74   C     C_2   0.819849 0.656656 0.274766 0.629983
H44   H     H_    0.811436 0.655681 0.343833 -0.000988
O13   O     O_2   0.886246 0.741790 0.288896 -0.549835
C75   C     C_2   0.400266 0.946396 0.672937 0.594867
H45   H     H_    0.368539 0.865829 0.664698 0.014518
O14   O     O_2   0.430215 0.025608 0.759083 -0.560977
C76   C     C_2   0.997319 0.112179 0.309544 1.105730
O15   O     O_2   0.960113 0.044128 0.334052 -0.587989
O16   O     O_R   0.101596 0.205250 0.384997 -0.822652
H46   H     H_    0.138579 0.206552 0.456417 0.330296

loop_
_geom_bond_atom_site_label_1
_geom_bond_atom_site_label_2
_geom_bond_distance
_ccdc_geom_bond_type
N8    Ni3   1.848376 S    
C28   C29   1.393666 A    
C6    C12   1.377416 A    
O16   H46   1.013668 S    
C76   O16   1.397392 S    
C35   C36   1.419969 A    
C15   H11   1.079625 S    
C61   C62   1.389718 A    
C51   C52   1.398930 A    
N1    N8    1.386772 A    
C74   H44   1.084924 S    
C67   O1    1.222702 D    
N12   N13   1.386771 A    
C38   C39   1.399647 A    
C71   O8    1.399644 S    
N10   Ni2   1.856456 S    
C13   H9    1.074911 S    
C15   N11   1.329245 A    
C72   O10   1.397484 S    
C16   N12   1.340138 A    
C39   C40   1.394805 A    
C67   O2    1.395453 S    
C13   C21   1.364304 A    
C31   C36   1.396647 A    
O10   H42   1.013072 S    
C52   C53   1.417126 A    
C3    C11   1.375952 A    
C63   C64   1.398758 A    
C1    H1    1.073349 S    
C7    C10   1.383146 A    
C59   C60   1.397973 A    
C61   H32   1.081844 S    
C56   C57   1.499907 S    
C18   C23   1.403045 A    
C65   C66   1.508770 S    
O12   H43   1.013380 S    
O5    H39   1.014311 S    
C29   C30   1.390858 A    
C8    C9    1.375475 A    
C33   C34   1.396322 A    
C43   C48   1.388454 A    
N5    Ni2   1.853989 S    
N2    Ni2   1.856530 S    
C14   C22   1.388525 A    
C5    C11   1.388633 A    
N4    Ni4   1.848582 S    
C25   C30   1.392205 A    
C26   C27   1.423689 A    
C23   C47   1.454196 S    
C25   H15   1.082787 S    
C50   H25   1.112330 S    
C5    H5    1.080161 S    
C1    C9    1.379727 A    
C31   C71   1.488897 S    
C32   C33   1.414064 A    
N3    Ni3   1.863228 S    
C12   C35   1.460223 S    
C59   C64   1.399257 A    
C57   H28   1.111991 S    
C57   C58   1.501983 S    
C73   O12   1.398857 S    
N1    Ni1   1.853473 S    
C19   N15   1.341978 A    
C26   C70   1.486488 S    
C73   O11   1.222636 D    
C24   C63   1.483168 S    
C65   H34   1.111426 S    
C58   H30   1.110650 S    
C25   C26   1.406766 A    
C3    H3    1.066282 S    
C43   C44   1.395283 A    
C2    N2    1.326627 A    
C48   C49   1.503468 S    
C34   C35   1.402920 A    
N11   Ni3   1.863108 S    
C39   H20   1.080823 S    
C6    H6    1.060570 S    
C70   O6    1.221318 D    
C44   C45   1.403044 A    
N2    N7    1.386529 A    
N9    N15   1.378684 A    
C1    N1    1.338242 A    
C65   H35   1.112437 S    
C14   N10   1.344559 A    
N11   N14   1.386526 A    
C69   O5    1.399073 S    
C37   H19   1.083879 S    
C68   O3    1.220163 D    
C27   C28   1.409642 A    
C16   C24   1.397911 A    
C2    C10   1.373395 A    
C20   H13   1.075134 S    
N16   Ni3   1.848582 S    
C49   H24   1.112128 S    
C18   C69   1.485274 S    
C51   C56   1.366972 A    
C46   H23   1.081379 S    
C33   C42   1.488486 S    
C37   C38   1.402562 A    
C22   C32   1.478959 S    
C4    N4    1.338580 A    
C40   C41   1.405769 A    
C17   N13   1.335470 A    
C46   C47   1.402342 A    
C29   H17   1.082143 S    
C50   H26   1.111765 S    
C5    N5    1.338223 A    
O2    H37   1.013835 S    
C8    N8    1.334938 A    
C18   N14   1.333614 A    
N9    Ni1   1.853989 S    
C68   H38   1.084609 S    
C49   C74   1.513185 S    
C41   C73   1.487499 S    
C19   H12   1.071405 S    
N6    Ni1   1.856454 S    
C20   C22   1.377472 A    
C54   C55   1.405244 A    
C53   C75   1.481453 S    
C66   H36   1.105890 S    
C4    C12   1.394289 A    
C3    N3    1.319214 A    
C58   H31   1.112543 S    
N10   N16   1.378684 A    
C66   C76   1.514105 S    
C17   C24   1.395954 A    
C60   C61   1.402654 A    
C7    N7    1.338873 A    
C15   C23   1.392675 A    
C45   H22   1.082010 S    
C31   C32   1.403463 A    
C27   C36   1.498242 S    
C16   C67   1.470141 S    
C75   O14   1.221152 D    
C40   H21   1.083136 S    
C59   C66   1.504784 S    
C62   C63   1.405550 A    
O8    H41   1.013890 S    
N14   Ni1   1.856530 S    
C62   H33   1.075096 S    
C70   H40   1.083463 S    
C20   N16   1.322141 A    
C71   O7    1.220270 D    
C11   C55   1.446251 S    
C53   C54   1.408491 A    
C14   H10   1.068818 S    
C7    H7    1.078832 S    
C74   O13   1.221219 D    
C69   O4    1.219745 D    
N3    N5    1.378683 A    
C51   C58   1.502691 S    
C34   H18   1.083012 S    
C13   N9    1.320536 A    
C64   C65   1.499229 S    
N7    Ni4   1.863109 S    
C17   C68   1.458966 S    
C37   C42   1.409065 A    
C47   C48   1.396959 A    
N12   Ni4   1.848374 S    
C10   C44   1.447904 S    
N15   Ni4   1.863227 S    
C49   C50   1.512627 S    
C45   C46   1.392804 A    
C43   C50   1.494618 S    
C55   C56   1.395864 A    
C38   C72   1.482939 S    
C4    H4    1.080554 S    
C9    C60   1.450989 S    
C28   H16   1.076802 S    
C19   C21   1.379760 A    
H14   C30   1.078639 S    
C2    H2    1.081452 S    
C75   H45   1.085145 S    
C6    N6    1.320332 A    
C41   C42   1.422155 A    
N4    N6    1.378684 A    
C76   O15   1.223161 D    
C8    H8    1.073134 S    
C21   C52   1.453813 S    
C54   H27   1.082846 S    
C72   O9    1.223270 D    
N13   Ni2   1.853473 S    
C57   H29   1.111867 S    
