data_str_m3_o14_o18_f0_pcu.sym.214
_audit_creation_date              2012-12-10T17:44:33-0500
_audit_creation_method            fapswitch 2.2
_symmetry_space_group_name_H-M    P1
_symmetry_Int_Tables_number       1
_space_group_crystal_system       triclinic
_cell_length_a                    9.929867
_cell_length_b                    10.662945
_cell_length_c                    15.306247
_cell_angle_alpha                 93.243252
_cell_angle_beta                  68.276119
_cell_angle_gamma                 91.795531
_cell_volume                      1503.0433656

loop_
_atom_site_label
_atom_site_type_symbol
_atom_type_description
_atom_site_fract_x
_atom_site_fract_y
_atom_site_fract_z
_atom_type_partial_charge
C1    C     C_R   0.497397 0.739713 0.508784 0.874240
C2    C     C_R   0.440477 0.404222 0.899023 0.077103
C3    C     C_R   0.304071 0.348259 0.946624 0.130395
C4    C     C_R   0.549563 0.405801 0.937430 0.034809
C5    C     C_R   0.511176 0.378018 0.032615 0.043594
C6    C     C_R   0.377891 0.311700 0.077774 0.194230
C7    C     C_R   0.276131 0.298281 0.033975 -0.323611
C8    C     C_R   0.695736 0.435042 0.883653 -0.225868
C9    C     C_R   0.795722 0.457717 0.926379 -0.236077
C10   C     C_R   0.750356 0.461266 0.024433 0.129952
C11   C     C_R   0.606337 0.421928 0.078281 0.046103
C12   C     C_R   0.409862 0.490892 0.675481 0.874061
C13   C     C_R   0.843898 0.507224 0.070123 0.205157
C14   C     C_R   0.792960 0.514751 0.168494 -0.280821
C15   C     C_R   0.556220 0.441619 0.175954 -0.236000
C16   C     C_R   0.322967 0.893976 0.682835 -0.002832
C17   C     C_R   0.208442 0.961385 0.749267 -0.171201
C18   C     C_R   0.178766 0.081613 0.731968 -0.153936
C19   C     C_R   0.269933 0.138599 0.651496 -0.183518
C20   C     C_R   0.384118 0.070845 0.582166 0.092762
C21   C     C_R   0.400363 0.943061 0.593331 0.048347
C22   C     C_R   0.500678 0.873487 0.516297 -0.099353
C23   C     C_R   0.497750 0.260352 0.499715 0.861448
C24   C     C_R   0.599135 0.931899 0.438799 -0.189137
C25   C     C_R   0.596505 0.059700 0.434646 -0.216360
C26   C     C_R   0.488876 0.128039 0.504604 -0.086612
C27   C     C_R   0.794911 0.665122 0.624907 -0.159205
C28   C     C_R   0.829552 0.740594 0.690839 -0.188794
C29   C     C_R   0.966746 0.736003 0.694075 -0.194739
C30   C     C_R   0.071173 0.658080 0.630026 -0.152370
C31   C     C_R   0.038829 0.578733 0.563449 0.161451
C32   C     C_R   0.895194 0.580360 0.562229 0.158929
C33   C     C_R   0.960332 0.423619 0.439779 -0.116423
C34   C     C_R   0.590730 0.498434 0.323692 0.895109
C35   C     C_R   0.103524 0.424070 0.439496 -0.114849
C36   C     C_R   0.359919 0.456210 0.773782 -0.038250
C37   C     C_R   0.648319 0.485526 0.221082 -0.109919
C38   C     C_R   0.198483 0.342612 0.905416 -0.164916
C39   C     C_R   0.226642 0.396052 0.818832 -0.199222
C40   C     C_R   0.462218 0.463932 0.816359 -0.211034
H1    H     H_    0.174384 0.249455 0.068775 0.145118
H2    H     H_    0.677213 0.878048 0.380972 0.150145
H3    H     H_    0.148668 0.924556 0.817730 0.133929
H4    H     H_    0.091936 0.134342 0.784492 0.139934
H5    H     H_    0.249751 0.235829 0.645690 0.164062
H6    H     H_    0.676076 0.105332 0.375519 0.142635
H7    H     H_    0.932707 0.361147 0.390594 0.138897
H8    H     H_    0.689242 0.676133 0.624480 0.217324
H9    H     H_    0.749597 0.803491 0.739364 0.167586
H10   H     H_    0.442937 0.428888 0.217959 0.193262
H11   H     H_    0.992663 0.794253 0.745910 0.154701
H12   H     H_    0.175749 0.662574 0.634485 0.203565
H13   H     H_    0.183246 0.361974 0.390036 0.147233
H14   H     H_    0.864424 0.549684 0.203618 0.161054
H15   H     H_    0.906199 0.480595 0.882457 0.178979
H16   H     H_    0.094692 0.296850 0.939986 0.136129
H17   H     H_    0.146866 0.387146 0.786096 0.139086
H18   H     H_    0.560064 0.518119 0.783757 0.166425
H19   H     H_    0.735494 0.439008 0.807872 0.157743
N1    N     N_R   0.856800 0.501200 0.500850 -0.117457
N2    N     N_R   0.142390 0.501280 0.500880 -0.119027
O1    O     O_R   0.385310 0.683220 0.500000 -0.616398
O2    O     O_R   0.614640 0.683250 0.500010 -0.629415
O3    O     O_R   0.319840 0.499980 0.632240 -0.649642
O4    O     O_R   0.549160 0.500000 0.632250 -0.628778
O5    O     O_R   0.385360 0.316750 0.499990 -0.627231
O6    O     O_R   0.614690 0.316780 0.500000 -0.604162
O7    O     O_R   0.450840 0.500000 0.367750 -0.608125
O8    O     O_R   0.680160 0.500020 0.367760 -0.613489
Zn1   Zn    Zn3+2 0.346880 0.499980 0.499990 0.930098
Zn2   Zn    Zn3+2 0.653120 0.500020 0.500010 0.935381
N3    N     N_2   0.987275 0.549867 0.018172 -0.311881
H20   H     H_    0.059736 0.534584 0.050316 0.234818
C41   C     C_3   0.996583 0.677734 0.989182 -0.799384
H21   H     H_    0.110325 0.699796 0.943893 0.250271
H22   H     H_    0.962662 0.744239 0.051857 0.237750
H23   H     H_    0.926912 0.690562 0.948000 0.245764
C42   C     C_1   0.386749 0.803018 0.720867 0.088012
N4    N     N_1   0.438701 0.735488 0.755377 -0.252506
N5    N     N_2   0.349481 0.249137 0.162807 -0.326267
H24   H     H_    0.241140 0.231936 0.200667 0.217481
C43   C     C_3   0.438228 0.140336 0.153280 -0.777529
H25   H     H_    0.413306 0.101818 0.223549 0.238548
H26   H     H_    0.555204 0.166002 0.124351 0.249432
H27   H     H_    0.415301 0.066621 0.106185 0.243283

loop_
_geom_bond_atom_site_label_1
_geom_bond_atom_site_label_2
_ccdc_geom_bond_type
C27   H8    S    
N2    Zn1   S    
C16   C21   A    
N5    H24   S    
C35   H13   S    
C34   C37   S    
C24   H2    S    
C31   N2    A    
C19   C20   A    
C4    C8    A    
C1    O1    A    
C41   H22   S    
C23   O5    A    
C28   C29   A    
C5    C11   A    
C3    C7    A    
C8    H19   S    
C5    C6    A    
C12   O3    A    
C23   C26   S    
C39   H17   S    
O1    Zn1   S    
C18   C19   A    
C15   H10   S    
C23   O6    A    
O8    Zn2   S    
C15   C37   A    
C11   C15   A    
C3    C38   A    
C8    C9    A    
C41   H23   S    
C9    H15   S    
O3    Zn1   S    
C12   C36   S    
C9    C10   A    
O6    Zn2   S    
C1    C22   S    
C21   C22   A    
C1    O2    A    
C38   C39   A    
C40   H18   S    
C41   H21   S    
C36   C40   A    
C24   C25   A    
N3    C41   S    
C34   O7    A    
C42   N4    T    
C16   C17   A    
N1    Zn2   S    
C25   C26   A    
O4    Zn2   S    
C2    C4    A    
C17   H3    S    
C29   C30   A    
C18   H4    S    
C28   H9    S    
C6    N5    S    
C31   C32   A    
C30   C31   A    
C17   C18   A    
C35   N2    A    
C34   O8    A    
N5    C43   S    
C14   H14   S    
O2    Zn2   S    
C33   N1    A    
C43   H26   S    
C33   H7    S    
C22   C24   A    
C32   N1    A    
C29   H11   S    
C30   H12   S    
C27   C32   A    
C36   C39   A    
N3    H20   S    
C10   C13   A    
C19   H5    S    
C6    C7    A    
C13   N3    S    
C43   H27   S    
C12   O4    A    
C2    C3    A    
C14   C37   A    
O5    Zn1   S    
C20   C26   A    
C33   C35   A    
C16   C42   S    
C7    H1    S    
C10   C11   A    
C2    C40   A    
C4    C5    A    
C38   H16   S    
C20   C21   A    
O7    Zn1   S    
C43   H25   S    
C27   C28   A    
C13   C14   A    
C25   H6    S    
