data_str_m3_o14_o14_f0_pcu.sym.178
_audit_creation_date              2012-12-10T17:40:55-0500
_audit_creation_method            fapswitch 2.2
_symmetry_space_group_name_H-M    P1
_symmetry_Int_Tables_number       1
_space_group_crystal_system       triclinic
_cell_length_a                    14.893086
_cell_length_b                    15.293276
_cell_length_c                    9.899682
_cell_angle_alpha                 90.438608
_cell_angle_beta                  90.217027
_cell_angle_gamma                 89.509233
_cell_volume                      2254.62751081

loop_
_atom_site_label
_atom_site_type_symbol
_atom_type_description
_atom_site_fract_x
_atom_site_fract_y
_atom_site_fract_z
_atom_type_partial_charge
C1    C     C_R   0.385903 0.874811 0.500173 0.877977
C2    C     C_R   0.381883 0.121255 0.500237 0.865204
C3    C     C_R   0.885903 0.374811 0.500172 0.877975
C4    C     C_R   0.881882 0.621254 0.500237 0.865201
C5    C     C_R   0.239764 0.177676 0.431845 -0.165575
C6    C     C_R   0.280394 0.782303 0.382068 -0.219813
C7    C     C_R   0.739763 0.677675 0.431847 -0.165575
C8    C     C_R   0.780388 0.282310 0.382069 -0.219808
C9    C     C_R   0.675684 0.742112 0.431338 -0.190387
C10   C     C_R   0.708828 0.226988 0.384071 -0.169846
C11   C     C_R   0.175685 0.242113 0.431335 -0.190388
C12   C     C_R   0.208833 0.726982 0.384068 -0.169843
C13   C     C_R   0.692132 0.820232 0.499415 -0.097156
C14   C     C_R   0.676997 0.196291 0.507276 -0.142018
C15   C     C_R   0.192133 0.320232 0.499415 -0.097156
C16   C     C_R   0.176993 0.696294 0.507273 -0.142022
C17   C     C_R   0.336159 0.995103 0.138800 -0.265924
C18   C     C_R   0.836159 0.495103 0.138800 -0.265923
C19   C     C_R   0.254284 0.989344 0.068723 0.344768
C20   C     C_R   0.754284 0.489344 0.068723 0.344770
C21   C     C_R   0.254376 0.989888 0.927581 -0.008969
C22   C     C_R   0.754376 0.489888 0.927581 -0.008971
C23   C     C_R   0.336147 0.995998 0.859150 -0.198356
C24   C     C_R   0.836147 0.495997 0.859150 -0.198351
C25   C     C_R   0.419199 0.997739 0.927408 0.099717
C26   C     C_R   0.919199 0.497739 0.927408 0.099719
C27   C     C_R   0.419221 0.997524 0.071591 0.041492
C28   C     C_R   0.919221 0.497524 0.071591 0.041494
C29   C     C_R   0.577853 0.002635 0.072747 0.502043
C30   C     C_R   0.077853 0.502635 0.072747 0.502041
C31   C     C_R   0.615115 0.124628 0.501659 0.854345
C32   C     C_R   0.621648 0.882202 0.499854 0.869903
C33   C     C_R   0.115113 0.624629 0.501659 0.854345
C34   C     C_R   0.121648 0.382203 0.499854 0.869901
C35   C     C_R   0.577317 0.002587 0.928421 -0.247233
C36   C     C_R   0.077316 0.502587 0.928421 -0.247225
C37   C     C_R   0.424162 0.287812 0.627379 -0.179923
C38   C     C_R   0.352653 0.767544 0.745481 -0.152740
C39   C     C_R   0.924164 0.787814 0.627370 -0.179922
C40   C     C_R   0.852674 0.267529 0.745465 -0.152742
C41   C     C_R   0.441452 0.368185 0.689156 -0.108424
C42   C     C_R   0.315670 0.748013 0.870607 -0.146424
C43   C     C_R   0.941456 0.868188 0.689143 -0.108431
C44   C     C_R   0.815701 0.247987 0.870594 -0.146420
C45   C     C_R   0.876182 0.933851 0.688787 -0.130111
C46   C     C_R   0.725992 0.224739 0.878644 -0.159490
C47   C     C_R   0.376180 0.433849 0.688798 -0.130114
C48   C     C_R   0.225959 0.724767 0.878645 -0.159476
C49   C     C_R   0.793375 0.919281 0.626668 -0.177793
C50   C     C_R   0.676099 0.212892 0.760574 -0.158230
C51   C     C_R   0.293374 0.419280 0.626674 -0.177794
C52   C     C_R   0.176076 0.712911 0.760568 -0.158222
C53   C     C_R   0.774328 0.837575 0.565169 0.100235
C54   C     C_R   0.715872 0.224202 0.631656 0.110698
C55   C     C_R   0.274328 0.337575 0.565172 0.100236
C56   C     C_R   0.215859 0.724213 0.631655 0.110695
C57   C     C_R   0.340093 0.271451 0.565604 0.093463
C58   C     C_R   0.299477 0.764555 0.626298 0.116765
C59   C     C_R   0.840093 0.771452 0.565600 0.093466
C60   C     C_R   0.799488 0.264545 0.626291 0.116757
C61   C     C_R   0.320096 0.191565 0.500350 -0.090739
C62   C     C_R   0.325139 0.802501 0.502280 -0.113973
C63   C     C_R   0.820095 0.691565 0.500350 -0.090739
C64   C     C_R   0.825141 0.302501 0.502277 -0.113970
H1    H     H_    0.226100 0.116089 0.381126 0.151769
H2    H     H_    0.300076 0.809640 0.286034 0.173732
H3    H     H_    0.726098 0.616088 0.381131 0.151769
H4    H     H_    0.800062 0.309654 0.286037 0.173735
H5    H     H_    0.332400 0.999810 0.752353 0.256063
H6    H     H_    0.832400 0.499809 0.752353 0.256062
H7    H     H_    0.639885 0.004682 0.873317 0.151599
H8    H     H_    0.139885 0.504683 0.873317 0.151599
H9    H     H_    0.477489 0.239584 0.626853 0.136947
H10   H     H_    0.423042 0.784207 0.743313 0.164597
H11   H     H_    0.977490 0.739586 0.626842 0.136937
H12   H     H_    0.923061 0.284196 0.743288 0.164594
H13   H     H_    0.505998 0.379735 0.736241 0.162259
H14   H     H_    0.355909 0.753430 0.961546 0.142980
H15   H     H_    0.006003 0.879739 0.736222 0.162265
H16   H     H_    0.855947 0.253400 0.961526 0.142985
H17   H     H_    0.890044 0.996559 0.735531 0.146123
H18   H     H_    0.695469 0.214096 0.976182 0.145666
H19   H     H_    0.390041 0.496556 0.735545 0.146120
H20   H     H_    0.195429 0.714131 0.976180 0.145664
H21   H     H_    0.745476 0.972820 0.625695 0.151961
H22   H     H_    0.605998 0.197734 0.772976 0.163273
H23   H     H_    0.245476 0.472820 0.625699 0.151962
H24   H     H_    0.105974 0.697753 0.772959 0.163263
H25   H     H_    0.612252 0.730459 0.380343 0.155976
H26   H     H_    0.678417 0.208444 0.288539 0.182501
H27   H     H_    0.112254 0.230460 0.380339 0.155977
H28   H     H_    0.178430 0.708431 0.288534 0.182505
H29   H     H_    0.332250 0.998140 0.245751 0.211038
H30   H     H_    0.832250 0.498140 0.245751 0.211036
N1    N     N_R   0.498810 0.000000 0.142780 -0.118333
N2    N     N_R   0.998810 0.500000 0.142780 -0.118334
N3    N     N_R   0.498740 0.000000 0.857170 -0.122525
N4    N     N_R   0.998740 0.500000 0.857170 -0.122525
O1    O     O_R   0.408390 0.908380 0.614690 -0.639679
O2    O     O_R   0.408390 0.091620 0.614690 -0.636503
O3    O     O_R   0.908390 0.408380 0.614690 -0.639675
O4    O     O_R   0.908390 0.591620 0.614690 -0.636503
O5    O     O_R   0.408370 0.908380 0.385360 -0.649179
O6    O     O_R   0.408370 0.091620 0.385360 -0.635834
O7    O     O_R   0.908370 0.408380 0.385360 -0.649181
O8    O     O_R   0.908370 0.591620 0.385360 -0.635834
O9    O     O_R   0.591620 0.091610 0.614640 -0.648725
O10   O     O_R   0.591620 0.908390 0.614640 -0.627242
O11   O     O_R   0.091620 0.591610 0.614640 -0.648720
O12   O     O_R   0.091620 0.408390 0.614640 -0.627244
O13   O     O_R   0.591610 0.091610 0.385310 -0.561839
O14   O     O_R   0.591610 0.908390 0.385310 -0.562600
O15   O     O_R   0.091610 0.591610 0.385310 -0.561841
O16   O     O_R   0.091610 0.408390 0.385310 -0.562600
Zn1   Zn    Zn3+2 0.500010 0.000000 0.653130 0.927398
Zn2   Zn    Zn3+2 0.000010 0.500000 0.653130 0.927400
Zn3   Zn    Zn3+2 0.499980 0.000000 0.346870 0.988822
Zn4   Zn    Zn3+2 0.999980 0.500000 0.346870 0.988821
C65   C     C_2   0.168609 0.984396 0.851080 0.413128
H31   H     H_    0.105141 0.980969 0.904144 0.117393
O17   O     O_2   0.167623 0.983278 0.727685 -0.609799
C66   C     C_2   0.668609 0.484396 0.851080 0.413125
H32   H     H_    0.605141 0.480969 0.904145 0.117394
O18   O     O_2   0.667623 0.483277 0.727685 -0.609796
O19   O     O_3   0.657216 0.005247 0.144640 -0.733385
H33   H     H_    0.707946 0.007662 0.080223 0.308927
O20   O     O_3   0.157216 0.505247 0.144640 -0.733386
H34   H     H_    0.207946 0.507662 0.080223 0.308928
O21   O     O_3   0.173523 0.983939 0.136439 -0.795890
H35   H     H_    0.185106 0.981721 0.235057 0.335887
O22   O     O_3   0.673523 0.483939 0.136440 -0.795890
H36   H     H_    0.685106 0.481722 0.235058 0.335886

loop_
_geom_bond_atom_site_label_1
_geom_bond_atom_site_label_2
_ccdc_geom_bond_type
C19   O21   S    
C58   C62   A    
C40   C60   A    
C29   O19   S    
C23   H5    S    
C13   C32   S    
C27   N1    A    
C14   C31   S    
C1    C62   S    
C1    O1    A    
C53   C59   A    
C24   H6    S    
C54   C60   A    
C3    C64   S    
N1    Zn3   S    
C4    C63   S    
C50   C54   A    
C6    H2    S    
O10   Zn1   S    
N2    Zn4   S    
C19   C21   A    
C24   C26   A    
C38   C42   A    
C41   H13   S    
O14   Zn3   S    
C43   H15   S    
C7    H3    S    
C9    C13   A    
C30   N2    A    
O11   Zn2   S    
C46   H18   S    
C11   C15   A    
C36   H8    S    
C12   C16   A    
C4    O4    A    
C40   C44   A    
C47   H19   S    
N3    Zn1   S    
C1    O5    A    
C15   C34   S    
C51   C55   A    
C2    C61   S    
C3    O3    A    
C2    O2    A    
C38   C58   A    
O8    Zn4   S    
O5    Zn3   S    
O2    Zn1   S    
C31   O9    A    
C6    C12   A    
C44   C46   A    
C46   C50   A    
C22   C66   S    
C13   C53   A    
C65   O17   D    
C59   C63   A    
C17   C27   A    
C49   H21   S    
C44   H16   S    
C18   C28   A    
C5    H1    S    
C10   C14   A    
C9    H25   S    
C29   N1    A    
C39   C43   A    
C4    O8    A    
C3    O7    A    
C48   H20   S    
C60   C64   A    
C15   C55   A    
C16   C56   A    
C11   H27   S    
C16   C33   S    
N4    Zn2   S    
C45   C49   A    
C39   C59   A    
C41   C47   A    
C5    C61   A    
C42   C48   A    
C57   C61   A    
C43   C45   A    
C7    C63   A    
O16   Zn4   S    
C8    C64   A    
C25   N3    A    
C14   C54   A    
C26   N4    A    
C2    O6    A    
C8    H4    S    
C39   H11   S    
C21   C23   A    
O19   H33   S    
C18   H30   S    
C22   C24   A    
O7    Zn4   S    
C17   H29   S    
C20   O22   S    
C51   H23   S    
O22   H36   S    
O12   Zn2   S    
C42   H14   S    
O6    Zn3   S    
C38   H10   S    
C7    C9    A    
C37   H9    S    
C30   O20   S    
C32   O14   A    
C26   C28   A    
C12   H28   S    
C45   H17   S    
C20   C22   A    
C47   C51   A    
C65   H31   S    
C5    C11   A    
C30   C36   A    
C34   O16   A    
C29   C35   A    
C33   O15   A    
O13   Zn3   S    
C28   N2    A    
C6    C62   A    
C55   C57   A    
O21   H35   S    
C21   C65   S    
O1    Zn1   S    
C52   C56   A    
C49   C53   A    
C17   C19   A    
C56   C58   A    
O9    Zn1   S    
C18   C20   A    
C23   C25   A    
C37   C41   A    
C52   H24   S    
O4    Zn2   S    
C50   H22   S    
C35   H7    S    
O15   Zn4   S    
C40   H12   S    
C48   C52   A    
C33   O11   A    
C10   H26   S    
C8    C10   A    
C32   O10   A    
O3    Zn2   S    
C31   O13   A    
C36   N4    A    
C34   O12   A    
C66   H32   S    
C35   N3    A    
C66   O18   D    
C37   C57   A    
O20   H34   S    
C25   C27   A    
