data_str_m2_o1_o17_f0_pcu.sym.173
_audit_creation_date              2012-12-10T17:57:51-0500
_audit_creation_method            fapswitch 2.2
_symmetry_space_group_name_H-M    P1
_symmetry_Int_Tables_number       1
_space_group_crystal_system       triclinic
_cell_length_a                    10.959956
_cell_length_b                    9.661003
_cell_length_c                    15.035277
_cell_angle_alpha                 89.504254
_cell_angle_beta                  93.436141
_cell_angle_gamma                 91.068846
_cell_volume                      1588.81395101

loop_
_atom_site_label
_atom_site_type_symbol
_atom_type_description
_atom_site_fract_x
_atom_site_fract_y
_atom_site_fract_z
_atom_type_partial_charge
C1    C     C_R   0.262382 0.499102 0.500282 0.816842
C2    C     C_R   0.737475 0.501158 0.500826 0.807106
C3    C     C_R   0.277816 0.551496 0.033942 0.047316
C4    C     C_R   0.714761 0.625705 0.960415 0.075522
C5    C     C_R   0.057975 0.378515 0.477259 0.095206
C6    C     C_R   0.942349 0.613918 0.536998 0.109961
C7    C     C_R   0.930485 0.389691 0.462571 0.120499
C8    C     C_R   0.068100 0.616684 0.532204 0.126027
C9    C     C_R   0.871492 0.502541 0.499913 -0.203785
C10   C     C_R   0.128200 0.498085 0.502951 -0.186883
C11   C     C_R   0.435276 0.072333 0.435163 0.231636
C12   C     C_R   0.561898 0.927329 0.566305 0.207805
C13   C     C_R   0.563772 0.073397 0.565358 0.253485
C14   C     C_R   0.436070 0.926002 0.434504 0.214947
C15   C     C_R   0.502381 0.502019 0.328562 0.903343
C16   C     C_R   0.500672 0.499541 0.671404 0.810579
C17   C     C_R   0.612672 0.546707 0.817224 0.424951
C18   C     C_R   0.391858 0.505808 0.179080 0.367330
C19   C     C_R   0.504101 0.501471 0.769355 -0.308431
C20   C     C_R   0.503988 0.514342 0.230606 -0.293666
C21   C     C_R   0.396021 0.478854 0.814294 0.346377
C22   C     C_R   0.611667 0.564076 0.191217 0.339893
C23   C     C_R   0.392378 0.524541 0.902146 -0.055001
C24   C     C_R   0.608891 0.588822 0.097889 -0.066819
C25   C     C_R   0.501244 0.555708 0.952372 -0.149398
C26   C     C_R   0.499680 0.562037 0.046009 -0.134572
C27   C     C_R   0.611289 0.574402 0.909700 -0.015109
C28   C     C_R   0.388523 0.538827 0.087059 -0.025380
C29   C     C_R   0.280228 0.545200 0.940743 0.425752
C30   C     C_R   0.711120 0.640932 0.053627 0.427533
Cu1   Cu    Cu3+1 0.500000 0.640660 0.500000 0.901631
Cu2   Cu    Cu3+1 0.500000 0.359340 0.500000 0.934548
N1    N     N_R   0.500000 0.852070 0.500000 -0.244974
N2    N     N_R   0.500000 0.147930 0.500000 -0.236500
O1    O     O_R   0.319640 0.618740 0.499990 -0.605742
O2    O     O_R   0.680360 0.381260 0.500010 -0.566975
O3    O     O_R   0.680360 0.618740 0.500010 -0.621660
O4    O     O_R   0.319640 0.381260 0.499990 -0.583639
O5    O     O_R   0.499970 0.618800 0.370260 -0.617464
O6    O     O_R   0.500030 0.381200 0.629740 -0.600619
O7    O     O_R   0.500030 0.618800 0.629740 -0.597966
O8    O     O_R   0.499970 0.381200 0.370260 -0.587748
O9    O     O_3   0.720754 0.561177 0.774096 -0.579246
C31   C     C_3   0.769198 0.429052 0.758437 0.082051
H1    H     H_    0.835044 0.440491 0.705494 0.151024
H2    H     H_    0.698246 0.354095 0.733941 0.135076
C32   C     C_3   0.835967 0.367220 0.841202 -0.805355
H3    H     H_    0.772206 0.349278 0.894903 0.238460
H4    H     H_    0.874349 0.265929 0.824143 0.209224
H5    H     H_    0.912101 0.436508 0.865564 0.276069
O10   O     O_3   0.286061 0.468288 0.220172 -0.557747
C33   C     C_3   0.246661 0.334396 0.191683 0.097820
H6    H     H_    0.315030 0.256462 0.212621 0.135386
H7    H     H_    0.232364 0.325839 0.118256 0.145490
C34   C     C_3   0.125725 0.298280 0.231288 -0.770572
H8    H     H_    0.053885 0.369826 0.204859 0.259592
H9    H     H_    0.097514 0.190311 0.214113 0.200112
H10   H     H_    0.135547 0.308274 0.304514 0.270466
O11   O     O_3   0.313974 0.373233 0.789075 -0.558998
C35   C     C_3   0.239415 0.407695 0.713234 0.124307
H11   H     H_    0.276474 0.358101 0.655330 0.174131
H12   H     H_    0.232058 0.521023 0.701425 0.114475
C36   C     C_3   0.112678 0.345058 0.722950 -0.791963
H13   H     H_    0.077451 0.378549 0.786443 0.291310
H14   H     H_    0.049197 0.379092 0.667246 0.194203
H15   H     H_    0.116632 0.230257 0.723054 0.238520
O12   O     O_3   0.723778 0.560257 0.239410 -0.571233
C37   C     C_3   0.746902 0.685203 0.286306 0.117491
H16   H     H_    0.706586 0.679320 0.350937 0.177860
H17   H     H_    0.707763 0.777363 0.251552 0.117559
C38   C     C_3   0.884265 0.706233 0.305199 -0.728766
H18   H     H_    0.931308 0.723771 0.243041 0.285752
H19   H     H_    0.902192 0.796853 0.349335 0.188040
H20   H     H_    0.924006 0.613088 0.338119 0.243622
O13   O     O_3   0.174396 0.569094 0.888040 -0.585783
C39   C     C_3   0.183309 0.703767 0.850339 0.012911
H21   H     H_    0.266328 0.716783 0.811651 0.131488
H22   H     H_    0.186274 0.783710 0.903412 0.139929
C40   C     C_3   0.073501 0.730596 0.786187 -0.743683
H23   H     H_    0.991785 0.748028 0.823434 0.254159
H24   H     H_    0.090695 0.825151 0.745989 0.219502
H25   H     H_    0.055314 0.641809 0.740797 0.268163
O14   O     O_3   0.808307 0.706330 0.100274 -0.560174
C41   C     C_3   0.804508 0.851976 0.084913 0.045212
H26   H     H_    0.765718 0.903590 0.141958 0.146743
H27   H     H_    0.746949 0.884286 0.024896 0.119342
C42   C     C_3   0.933649 0.910068 0.076456 -0.822023
H28   H     H_    0.976446 0.862465 0.019426 0.233416
H29   H     H_    0.930343 0.023763 0.065315 0.210598
H30   H     H_    0.991199 0.889622 0.138215 0.249442
N3    N     N_3   0.164793 0.577119 0.073930 -0.512363
H31   H     H_    0.099876 0.503147 0.050786 0.237257
H32   H     H_    0.134117 0.674169 0.052258 0.226024
N4    N     N_3   0.822748 0.667026 0.917400 -0.521474
H33   H     H_    0.900147 0.636487 0.956187 0.248630
H34   H     H_    0.823963 0.774513 0.910135 0.216518
N5    N     N_3   0.115488 0.246150 0.470097 -0.584985
H35   H     H_    0.152691 0.220423 0.533611 0.233280
H36   H     H_    0.052123 0.166253 0.456158 0.232603
N6    N     N_3   0.890409 0.725918 0.582501 -0.551361
H37   H     H_    0.842345 0.684872 0.634738 0.242600
H38   H     H_    0.835867 0.784628 0.537734 0.248518
N7    N     N_3   0.861711 0.289661 0.407941 -0.553307
H39   H     H_    0.798536 0.343335 0.366437 0.247784
H40   H     H_    0.917896 0.248816 0.361347 0.211012
N8    N     N_3   0.131710 0.740751 0.562378 -0.556644
H41   H     H_    0.169240 0.791465 0.508475 0.246989
H42   H     H_    0.198823 0.717586 0.612244 0.220652
N9    N     N_3   0.372132 0.137567 0.361262 -0.570305
H43   H     H_    0.437255 0.163750 0.315862 0.221669
H44   H     H_    0.325766 0.223327 0.381661 0.292301
N10   N     N_3   0.622672 0.862218 0.641744 -0.551859
H45   H     H_    0.663145 0.772692 0.622284 0.276667
H46   H     H_    0.558380 0.840236 0.688691 0.234727
N11   N     N_3   0.632472 0.139068 0.637197 -0.574481
H47   H     H_    0.572980 0.171313 0.684148 0.238775
H48   H     H_    0.687807 0.217902 0.613689 0.253431
N12   N     N_3   0.371625 0.859617 0.360454 -0.564091
H49   H     H_    0.319858 0.775214 0.380727 0.272627
H50   H     H_    0.433715 0.832552 0.313862 0.229445

loop_
_geom_bond_atom_site_label_1
_geom_bond_atom_site_label_2
_ccdc_geom_bond_type
C34   H8    S    
C36   H14   S    
C11   N9    S    
C41   C42   S    
O9    C31   S    
C6    C9    A    
N10   H46   S    
N5    H35   S    
C32   H4    S    
C31   H1    S    
C35   C36   S    
Cu2   O2    S    
C35   H12   S    
C3    C28   A    
C19   C21   A    
C24   C26   A    
C21   O11   S    
N9    H44   S    
C11   C14   A    
N8    H41   S    
N11   H47   S    
C3    N3    S    
C30   O14   S    
C3    C29   A    
N12   H49   S    
C38   H20   S    
O14   C41   S    
C31   H2    S    
C37   H16   S    
C14   N12   S    
C39   C40   S    
Cu2   O4    S    
C18   C20   A    
C31   C32   S    
C23   C25   A    
C36   H15   S    
O11   C35   S    
C7    N7    S    
C14   N1    A    
N10   H45   S    
N5    H36   S    
C33   H7    S    
C18   O10   S    
C32   H5    S    
N12   H50   S    
C16   C19   S    
C15   C20   S    
Cu1   N1    S    
O10   C33   S    
C17   C27   A    
C32   H3    S    
C18   C28   A    
C39   H21   S    
N3    H31   S    
C5    C7    A    
C6    C8    A    
N11   H48   S    
C25   C26   A    
O12   C37   S    
C35   H11   S    
C6    N6    S    
O13   C39   S    
C17   O9    S    
N3    H32   S    
Cu1   Cu2   S    
N6    H38   S    
N7    H40   S    
C41   H26   S    
N4    H34   S    
C15   O5    A    
C13   N11   S    
C1    O4    A    
C16   O6    A    
C4    N4    S    
C37   H17   S    
C5    N5    S    
C34   H9    S    
Cu1   O1    S    
C40   H23   S    
C34   H10   S    
C20   C22   A    
C23   C29   A    
C12   N10   S    
C4    C27   A    
C33   H6    S    
C1    O1    A    
C40   H24   S    
C2    O2    A    
C7    C9    A    
Cu1   O7    S    
C11   N2    A    
C1    C10   S    
C15   O8    A    
C39   H22   S    
C8    N8    S    
C40   H25   S    
C33   C34   S    
C29   O13   S    
C25   C27   A    
C26   C28   A    
C21   C23   A    
C5    C10   A    
N9    H43   S    
C2    O3    A    
N8    H42   S    
C37   C38   S    
N6    H37   S    
C17   C19   A    
Cu1   O5    S    
C22   C24   A    
Cu2   O6    S    
N4    H33   S    
C24   C30   A    
C22   O12   S    
C36   H13   S    
Cu1   O3    S    
C13   N2    A    
C38   H18   S    
C12   C13   A    
C42   H28   S    
C8    C10   A    
C42   H30   S    
C38   H19   S    
N7    H39   S    
C42   H29   S    
Cu2   O8    S    
C41   H27   S    
C12   N1    A    
C2    C9    S    
C16   O7    A    
C4    C30   A    
Cu2   N2    S    
