data_str_m12_o9_o24_f0_bcu.sym.89
_audit_creation_date              2013-03-05T15:58:19-0500
_audit_creation_method            fapswitch 2.2
_symmetry_space_group_name_H-M    P1
_symmetry_Int_Tables_number       1
_space_group_crystal_system       triclinic
_cell_length_a                    14.813061
_cell_length_b                    14.881566
_cell_length_c                    15.127347
_cell_angle_alpha                 110.5261
_cell_angle_beta                  108.873088
_cell_angle_gamma                 108.236772
_cell_volume                      2590.56278023

loop_
_atom_site_label
_atom_site_type_symbol
_atom_site_description
_atom_site_fract_x
_atom_site_fract_y
_atom_site_fract_z
_atom_type_partial_charge
C1    C     C_R   0.912063 0.196607 0.997049 -0.143719
C2    C     C_R   0.023381 0.749062 0.936193 -0.119800
H1    H     H_    0.853586 0.169225 0.022287 0.102347
H2    H     H_    0.058918 0.762444 0.887289 0.097725
N1    N     N_R   0.947560 0.293820 0.002910 -0.040804
N2    N     N_R   0.052440 0.706180 0.997090 -0.042491
C3    C     C_R   0.298373 0.801528 0.207102 -0.160671
C4    C     C_R   0.685175 0.244349 0.776970 -0.127332
H3    H     H_    0.351590 0.828848 0.176403 0.143778
H4    H     H_    0.619331 0.223177 0.795180 0.142362
N3    N     N_R   0.208960 0.706170 0.152110 -0.039946
N4    N     N_R   0.791040 0.293830 0.847890 -0.043571
C5    C     C_R   0.223963 0.406568 0.974625 -0.133952
C6    C     C_R   0.787410 0.590813 0.094823 -0.146202
H5    H     H_    0.205257 0.321770 0.939283 0.107762
H6    H     H_    0.815391 0.674598 0.152738 0.105721
N5    N     N_R   0.154330 0.443160 0.946140 -0.040934
N6    N     N_R   0.845670 0.556840 0.053860 -0.040177
C7    C     C_R   0.056301 0.589836 0.313623 -0.138092
C8    C     C_R   0.002117 0.407828 0.700322 -0.165889
H7    H     H_    0.100379 0.673622 0.379153 0.104032
H8    H     H_    0.980105 0.324014 0.648443 0.099772
N7    N     N_R   0.002190 0.556820 0.208880 -0.042031
N8    N     N_R   0.997810 0.443180 0.791120 -0.037973
C9    C     C_R   0.314158 0.589893 0.067603 -0.150148
C10   C     C_R   0.698584 0.408701 0.003048 -0.148270
H9    H     H_    0.378454 0.673588 0.118428 0.164242
H10   H     H_    0.644640 0.324544 0.974917 0.156116
N9    N     N_R   0.210550 0.556810 0.002910 -0.043440
N10   N     N_R   0.789450 0.443190 0.997090 -0.040618
C11   C     C_R   0.974534 0.406266 0.218017 -0.109920
C12   C     C_R   0.084786 0.590310 0.786643 -0.135492
H11   H     H_    0.946747 0.321247 0.194591 0.113644
H12   H     H_    0.134693 0.674479 0.811871 0.117570
N11   N     N_R   0.945970 0.443180 0.152110 -0.041868
N12   N     N_R   0.054030 0.556820 0.847890 -0.040011
C13   C     C_R   0.209319 0.802519 0.301084 -0.111182
C14   C     C_R   0.781100 0.258574 0.689779 -0.109309
H13   H     H_    0.182248 0.830289 0.358734 0.104625
H14   H     H_    0.804253 0.256936 0.629079 0.103379
N13   N     N_R   0.151530 0.706170 0.208880 -0.041886
N14   N     N_R   0.848470 0.293830 0.791120 -0.041729
C15   C     C_R   0.003218 0.197712 0.905734 -0.136899
C16   C     C_R   0.927916 0.745323 0.024247 -0.127565
H15   H     H_    0.024317 0.170410 0.843002 0.109189
H16   H     H_    0.871057 0.749130 0.052872 0.127204
N15   N     N_R   0.004980 0.293810 0.946140 -0.040029
N16   N     N_R   0.995020 0.706190 0.053860 -0.043588
C17   C     C_R   0.945601 0.133922 0.935923 0.060174
C18   C     C_R   0.942264 0.772203 0.948636 0.053282
C19   C     C_R   0.301436 0.862842 0.300899 0.055419
C20   C     C_R   0.677662 0.219460 0.676494 0.037892
C21   C     C_R   0.323980 0.497157 0.052009 0.042865
C22   C     C_R   0.696262 0.499389 0.064712 0.036492
C23   C     C_R   0.037196 0.495376 0.320295 0.043965
C24   C     C_R   0.054374 0.497873 0.694549 0.062376
C25   C     C_R   0.932384 0.856232 0.834929 -0.215029
C26   C     C_R   0.832569 0.961584 0.917932 -0.223558
C27   C     C_R   0.156918 0.011723 0.743356 -0.246468
C28   C     C_R   0.804768 0.932256 0.181736 -0.263947
H17   H     H_    0.154403 0.984981 0.665773 0.156766
H18   H     H_    0.852173 0.991094 0.267353 0.140445
Ni1   Ni    Ni4+2 0.869690 0.369690 0.000000 0.224737
Ni2   Ni    Ni4+2 0.130310 0.630310 0.000000 0.218466
Ni3   Ni    Ni4+2 0.001390 0.369680 0.869810 0.213473
Ni4   Ni    Ni4+2 0.998610 0.630320 0.130190 0.218031
C29   C     C_R   0.058963 0.978606 0.746043 -0.251022
C30   C     C_R   0.851392 0.934617 0.115416 -0.215565
H19   H     H_    0.331925 0.148635 0.014083 0.159517
H20   H     H_    0.552943 0.720344 0.989962 0.143961
H21   H     H_    0.573566 0.110946 0.057696 0.139625
H22   H     H_    0.467233 0.905756 0.003588 0.132118
C31   C     C_R   0.684531 0.281976 0.172592 -0.106452
C32   C     C_R   0.372673 0.730698 0.901454 -0.116562
H23   H     H_    0.631551 0.308292 0.134197 0.144855
H24   H     H_    0.397799 0.714618 0.967022 0.147355
C33   C     C_R   0.785541 0.359126 0.264935 -0.155524
C34   C     C_R   0.300097 0.643194 0.796420 -0.175195
H25   H     H_    0.809927 0.445449 0.297846 0.118775
H26   H     H_    0.273707 0.560531 0.782379 0.119501
C35   C     C_R   0.855717 0.324660 0.312948 0.119771
C36   C     C_R   0.252262 0.662448 0.713008 0.112722
C37   C     C_R   0.821364 0.212026 0.269627 -0.184226
C38   C     C_R   0.289936 0.771158 0.734268 -0.145263
H27   H     H_    0.873789 0.183904 0.306262 0.109047
H28   H     H_    0.254650 0.788974 0.672055 0.128815
C39   C     C_R   0.719858 0.135461 0.177806 -0.125109
C40   C     C_R   0.369696 0.858323 0.838072 -0.117797
H29   H     H_    0.693753 0.049010 0.143892 0.135658
H30   H     H_    0.397813 0.941595 0.854228 0.170280
C41   C     C_R   0.651793 0.170402 0.129081 -0.071773
C42   C     C_R   0.409346 0.838207 0.922203 -0.085393
C43   C     C_R   0.976630 0.406588 0.503739 -0.247185
C44   C     C_R   0.145259 0.566797 0.512471 -0.247309
H31   H     H_    0.908400 0.346864 0.499957 0.129932
H32   H     H_    0.210444 0.627318 0.513704 0.132896
C45   C     C_R   0.066818 0.491123 0.602552 0.067330
C46   C     C_R   0.049870 0.487416 0.414812 0.072498
C47   C     C_R   0.154811 0.571159 0.608610 0.027178
C48   C     C_R   0.964287 0.405644 0.409997 0.019943
H33   H     H_    0.983379 0.922890 0.670754 0.139695
H34   H     H_    0.933521 0.997426 0.149696 0.135042
H35   H     H_    0.381839 0.315626 0.025090 0.129094
H36   H     H_    0.651375 0.676824 0.133535 0.140332
H37   H     H_    0.160574 0.098260 0.018543 0.133565
H38   H     H_    0.634018 0.724137 0.873090 0.140814
C49   C     C_R   0.059092 0.012805 0.845191 0.134158
C50   C     C_R   0.790635 0.858893 0.004026 0.113571
C51   C     C_R   0.256565 0.104860 0.938710 -0.290595
C52   C     C_R   0.635160 0.781936 0.025123 -0.266482
H39   H     H_    0.045595 0.122546 0.361427 0.089249
H40   H     H_    0.967105 0.047076 0.589396 0.101149
C53   C     C_R   0.153725 0.084361 0.307608 -0.111168
C54   C     C_R   0.828690 0.010639 0.615946 -0.116961
H41   H     H_    0.120340 0.088449 0.234976 0.101738
H42   H     H_    0.859121 0.986075 0.673235 0.114155
C55   C     C_R   0.240725 0.062186 0.331093 -0.128268
C56   C     C_R   0.729119 0.009834 0.590985 -0.111405
H43   H     H_    0.273436 0.049320 0.275989 0.111590
H44   H     H_    0.684597 0.986014 0.630441 0.118762
C57   C     C_R   0.288494 0.061809 0.427611 0.108514
C58   C     C_R   0.688892 0.042881 0.517753 0.111049
C59   C     C_R   0.246232 0.081453 0.498986 -0.178458
C60   C     C_R   0.747880 0.074049 0.467608 -0.065615
H45   H     H_    0.282543 0.082402 0.574058 0.172562
H46   H     H_    0.717790 0.100139 0.411138 0.115472
C61   C     C_R   0.157595 0.101388 0.474135 -0.109281
C62   C     C_R   0.848793 0.076881 0.494678 -0.062395
H47   H     H_    0.125468 0.116785 0.529504 0.105640
H48   H     H_    0.895716 0.103922 0.458458 0.082772
C63   C     C_R   0.112101 0.103989 0.379032 -0.080464
C64   C     C_R   0.889097 0.044959 0.568672 -0.089922
C65   C     C_R   0.483579 0.136691 0.552273 -0.200646
C66   C     C_R   0.494884 0.967232 0.407774 -0.194217
H49   H     H_    0.481020 0.204243 0.608241 0.134960
H50   H     H_    0.499446 0.899299 0.354736 0.178047
C67   C     C_R   0.582530 0.136172 0.573830 0.063045
C68   C     C_R   0.395228 0.964384 0.388457 0.039366
C69   C     C_R   0.588660 0.051924 0.499095 -0.006915
C70   C     C_R   0.388757 0.051641 0.457589 0.029891
C71   C     C_R   0.256944 0.074676 0.839809 0.432278
C72   C     C_R   0.695135 0.858146 0.136315 0.408445
C73   C     C_R   0.834181 0.875614 0.933611 0.037255
C74   C     C_R   0.959119 0.960547 0.849636 0.013068
H51   H     H_    0.966422 0.812253 0.795382 0.130097
H52   H     H_    0.784477 0.995869 0.942210 0.133498
C75   C     C_R   0.158772 0.076381 0.941469 -0.185868
C76   C     C_R   0.682473 0.781754 0.959179 -0.185527
C77   C     C_R   0.893733 0.827094 0.899261 0.050060
C78   C     C_R   0.910366 0.016863 0.896335 0.037463
C79   C     C_3   0.490825 0.424278 0.978345 -0.098248
C80   C     C_3   0.537897 0.569111 0.175119 -0.100083
C81   C     C_3   0.473172 0.524257 0.004389 -0.185335
C82   C     C_3   0.558034 0.468855 0.149233 -0.186332
H53   H     H_    0.435389 0.545036 0.943495 0.115829
H54   H     H_    0.595379 0.448282 0.210380 0.118058
H55   H     H_    0.472272 0.364633 0.897257 0.143575
H56   H     H_    0.554257 0.628567 0.255148 0.146566
C83   C     C_3   0.426064 0.496134 0.073450 0.131276
C84   C     C_3   0.603552 0.497305 0.079184 0.135275
C85   C     C_3   0.443476 0.396070 0.047723 -0.102575
C86   C     C_3   0.585726 0.596852 0.105732 -0.086113
N17   N     N_R   0.358009 0.105172 0.837367 0.207626
O1    O     O_R   0.358706 0.067983 0.746011 -0.475798
O2    O     O_R   0.450510 0.167365 0.926727 -0.502249
N18   N     N_R   0.645601 0.858303 0.203317 0.210018
O3    O     O_R   0.694725 0.861318 0.293583 -0.446545
O4    O     O_R   0.547445 0.845445 0.170069 -0.503865

loop_
_geom_bond_atom_site_label_1
_geom_bond_atom_site_label_2
_geom_bond_distance
_ccdc_geom_bond_type
C37   C39   1.398259 A    
C65   C67   1.398037 A    
C39   C41   1.395118 A    
N5    N9    1.388780 A    
C36   C47   1.488839 S    
C6    N6    1.335567 A    
C82   C85   1.551849 S    
C2    H2    1.074093 S    
N17   O1    1.301041 A    
C8    C24   1.370780 A    
H35   C85   1.100098 S    
C56   H44   1.083314 S    
C51   C75   1.395380 A    
C3    N3    1.320236 A    
N1    N15   1.390508 A    
C29   H33   1.081652 S    
N8    N12   1.388657 A    
C32   H24   1.078414 S    
C17   C78   1.470657 S    
C1    N1    1.334543 A    
C12   N12   1.330083 A    
N7    Ni4   1.877421 S    
N17   O2    1.300774 A    
C9    C21   1.378763 A    
C58   C69   1.477435 S    
C14   N14   1.319025 A    
C25   H51   1.080533 S    
C55   H43   1.083401 S    
H36   C86   1.094965 S    
H22   C42   1.082192 S    
C34   H26   1.083184 S    
C59   H45   1.080739 S    
C14   C20   1.373855 A    
C44   C46   1.398400 A    
N2    Ni2   1.850517 S    
H37   C75   1.083658 S    
C10   C22   1.363699 A    
H38   C76   1.083224 S    
N1    Ni1   1.850518 S    
C28   H18   1.081076 S    
C56   C58   1.400910 A    
C32   C42   1.395305 A    
C52   C72   1.403427 A    
C55   C57   1.404390 A    
N4    N14   1.390633 A    
H20   C52   1.070816 S    
C28   C72   1.396964 A    
H19   C51   1.082177 S    
C26   C73   1.386299 A    
C8    N8    1.318480 A    
C79   C85   1.539643 S    
C25   C77   1.401396 A    
N14   Ni3   1.880222 S    
C74   C78   1.420085 A    
C83   C85   1.527858 S    
N6    N10   1.388779 A    
C81   H53   1.109942 S    
C2    C18   1.399188 A    
C4    C20   1.389159 A    
C82   H54   1.108568 S    
C60   C62   1.398732 A    
C27   C29   1.398067 A    
N11   Ni1   1.883419 S    
N9    Ni2   1.850601 S    
C43   H31   1.086019 S    
N10   Ni1   1.850599 S    
N18   O4    1.299595 A    
C31   H23   1.078715 S    
C2    N2    1.329962 A    
C24   C45   1.435377 S    
C52   C76   1.392086 A    
C62   C64   1.397528 A    
C35   C37   1.406442 A    
C16   H16   1.071778 S    
C5    C21   1.379836 A    
C33   H25   1.083186 S    
C9    N9    1.331568 A    
C80   H56   1.109979 S    
C27   H17   1.082621 S    
C21   C83   1.446611 S    
C40   C42   1.395678 A    
C31   C41   1.395860 A    
N3    Ni2   1.883428 S    
C45   C47   1.414396 A    
C66   C69   1.366841 A    
N4    Ni1   1.883429 S    
C15   C17   1.373763 A    
C66   H50   1.085978 S    
C53   H41   1.081503 S    
C1    H1    1.079019 S    
C12   H12   1.078791 S    
C81   C83   1.532634 S    
C7    N7    1.334312 A    
C61   H47   1.082622 S    
C82   C84   1.534578 S    
C7    H7    1.081025 S    
C72   N18   1.430477 S    
C49   C75   1.401654 A    
C34   C36   1.406596 A    
C43   C45   1.392558 A    
C59   C61   1.398542 A    
C33   C35   1.406311 A    
C4    N4    1.336876 A    
C11   H11   1.077520 S    
C20   C67   1.440502 S    
H40   C64   1.081876 S    
C44   H32   1.084507 S    
C67   C69   1.414888 A    
C43   C48   1.364259 A    
C28   C30   1.393735 A    
C54   C56   1.394155 A    
N2    N16   1.390509 A    
N8    Ni3   1.877422 S    
C53   C55   1.395771 A    
H39   C63   1.081585 S    
N5    Ni3   1.879683 S    
C37   H27   1.083025 S    
C40   H30   1.080544 S    
C10   N10   1.327334 A    
C36   C38   1.409272 A    
C39   H29   1.079491 S    
N18   O3    1.299939 A    
C6    H6    1.081462 S    
N6    Ni4   1.879680 S    
C58   C60   1.405684 A    
C79   H55   1.110733 S    
C57   C70   1.479000 S    
C60   H46   1.083380 S    
C80   C82   1.553288 S    
C16   C18   1.392264 A    
C3    H3    1.082142 S    
C53   C63   1.398315 A    
C25   C74   1.390042 A    
C6    C22   1.378149 A    
C46   C48   1.416278 A    
C54   C64   1.398942 A    
C4    H4    1.081116 S    
C38   C40   1.398719 A    
C8    H8    1.082315 S    
C62   H48   1.082215 S    
C66   C68   1.392649 A    
C54   H42   1.077248 S    
C26   H52   1.080763 S    
C71   N17   1.439060 S    
N13   Ni4   1.880225 S    
C68   C70   1.406939 A    
C35   C48   1.487572 S    
C7    C23   1.391144 A    
C9    H9    1.077860 S    
C10   H10   1.080728 S    
C5    N5    1.332178 A    
C81   C86   1.534515 S    
N16   Ni4   1.876960 S    
C79   C84   1.532988 S    
C5    H5    1.080403 S    
C3    C19   1.368351 A    
C15   H15   1.079013 S    
C30   H34   1.078370 S    
C14   H14   1.074542 S    
C18   C77   1.479844 S    
C29   C49   1.403849 A    
C80   C83   1.530839 S    
C15   N15   1.331445 A    
C44   C47   1.390757 A    
C13   C19   1.380359 A    
C23   C46   1.432696 S    
N15   Ni3   1.876960 S    
N3    N13   1.390632 A    
C11   N11   1.315837 A    
C79   C81   1.528513 S    
C13   N13   1.338281 A    
N7    N11   1.388658 A    
C61   C63   1.397688 A    
C57   C59   1.404874 A    
C22   C84   1.451729 S    
C19   C68   1.435250 S    
C26   C78   1.396505 A    
C73   C77   1.414812 A    
H21   C41   1.081885 S    
C27   C71   1.405688 A    
C65   C70   1.393137 A    
C13   H13   1.081376 S    
C32   C34   1.394194 A    
C65   H49   1.084705 S    
C31   C33   1.398645 A    
C38   H28   1.082906 S    
C51   C71   1.405655 A    
C30   C50   1.404190 A    
C11   C23   1.369526 A    
C49   C74   1.477382 S    
N12   Ni2   1.883420 S    
C1    C17   1.398005 A    
C12   C24   1.377787 A    
C50   C73   1.463753 S    
C80   C86   1.541432 S    
C16   N16   1.336059 A    
C84   C86   1.523761 S    
C50   C76   1.394493 A    
