data_str_m2_o10_o18_f0_pcu.sym.138
_audit_creation_date              2012-12-10T16:45:22-0500
_audit_creation_method            fapswitch 2.2
_symmetry_space_group_name_H-M    P1
_symmetry_Int_Tables_number       1
_space_group_crystal_system       triclinic
_cell_length_a                    7.431658
_cell_length_b                    8.689725
_cell_length_c                    15.797971
_cell_angle_alpha                 94.276608
_cell_angle_beta                  75.174734
_cell_angle_gamma                 103.165138
_cell_volume                      960.190781639

loop_
_atom_site_label
_atom_site_type_symbol
_atom_type_description
_atom_site_fract_x
_atom_site_fract_y
_atom_site_fract_z
_atom_type_partial_charge
C1    C     C_R   0.545109 0.800191 0.502614 0.888271
C2    C     C_R   0.454891 0.199808 0.497386 0.888272
C3    C     C_R   0.298440 0.352955 0.068450 0.168880
C4    C     C_R   0.701577 0.647051 0.931547 0.168876
C5    C     C_R   0.158068 0.342392 0.022745 -0.222240
C6    C     C_R   0.841943 0.657622 0.977256 -0.222231
C7    C     C_2   0.570553 0.968083 0.503875 -0.373024
C8    C     C_2   0.429447 0.031917 0.496125 -0.373024
C9    C     C_R   0.384179 0.488566 0.666399 0.793001
C10   C     C_R   0.615821 0.511436 0.333601 0.793000
C11   C     C_R   0.314248 0.474692 0.761948 -0.062312
C12   C     C_R   0.685753 0.525316 0.238052 -0.062314
C13   C     C_R   0.067520 0.377533 0.890248 -0.177949
C14   C     C_R   0.932483 0.622487 0.109755 -0.177951
C15   C     C_R   0.121955 0.414553 0.801640 -0.189776
C16   C     C_R   0.878045 0.585463 0.198363 -0.189773
C17   C     C_R   0.446776 0.511038 0.813474 -0.239657
C18   C     C_R   0.553229 0.488971 0.186526 -0.239667
C19   C     C_R   0.391452 0.491594 0.904422 0.081752
C20   C     C_R   0.608557 0.508417 0.095577 0.081753
C21   C     C_R   0.203087 0.408876 0.940646 0.103162
C22   C     C_R   0.796920 0.591140 0.059356 0.103162
C23   C     C_R   0.523626 0.535675 0.958095 -0.003159
C24   C     C_R   0.476388 0.464334 0.041902 -0.003148
Cu1   Cu    Cu3+1 0.322120 0.483240 0.490330 0.944296
Cu2   Cu    Cu3+1 0.677880 0.516760 0.509670 0.944295
H1    H     H_    0.018830 0.266032 0.046689 0.156454
H2    H     H_    0.981181 0.733982 0.953313 0.156448
H3    H     H_    0.404071 0.455225 0.218893 0.177614
H4    H     H_    0.595934 0.544775 0.781105 0.177606
H5    H     H_    0.983167 0.614573 0.236804 0.156202
H6    H     H_    0.016831 0.385443 0.763200 0.156200
H7    H     H_    0.921405 0.318183 0.918450 0.140572
H8    H     H_    0.078597 0.681841 0.081555 0.140569
H9    H     H_    0.706540 0.039497 0.511183 0.179252
H10   H     H_    0.293460 0.960502 0.488817 0.179252
H11   H     H_    0.004027 0.615198 0.568966 0.223803
H12   H     H_    0.995973 0.384802 0.431034 0.223804
N1    N     N_2   0.945180 0.542040 0.524240 -0.218445
N2    N     N_2   0.054820 0.457960 0.475760 -0.218444
O1    O     O_R   0.384450 0.714270 0.493720 -0.581347
O2    O     O_R   0.615550 0.285730 0.506280 -0.581347
O3    O     O_R   0.684880 0.742590 0.510050 -0.584372
O4    O     O_R   0.315120 0.257410 0.489950 -0.584372
O5    O     O_R   0.265540 0.477900 0.617090 -0.589856
O6    O     O_R   0.734460 0.522100 0.382910 -0.589855
O7    O     O_R   0.565970 0.506210 0.633420 -0.585532
O8    O     O_R   0.434030 0.493790 0.366580 -0.585530
C25   C     C_3   0.260022 0.225237 0.134819 -0.888314
H13   H     H_    0.393041 0.206074 0.147713 0.239005
H14   H     H_    0.160535 0.253471 0.196438 0.229849
H15   H     H_    0.192366 0.110033 0.109011 0.233868
C26   C     C_3   0.740003 0.774755 0.865170 -0.888279
H16   H     H_    0.839438 0.746474 0.803542 0.229834
H17   H     H_    0.606978 0.793946 0.852295 0.239008
H18   H     H_    0.807736 0.889959 0.890953 0.233859

loop_
_geom_bond_atom_site_label_1
_geom_bond_atom_site_label_2
_ccdc_geom_bond_type
C10   O6    A    
C19   C23   A    
C23   C24   A    
C14   H8    S    
C4    C26   S    
C3    C5    A    
C25   H15   S    
C14   C22   A    
C13   C15   A    
C3    C25   S    
C13   C21   A    
C7    C8    D    
H11   N1    S    
C18   H3    S    
C1    C7    S    
C26   H16   S    
C16   H5    S    
C13   H7    S    
C17   H4    S    
C9    C11   S    
Cu1   O8    S    
C7    H9    S    
C3    C24   A    
C10   C12   S    
Cu2   O7    S    
C2    O2    A    
C9    O5    A    
Cu1   O4    S    
C1    O1    A    
H12   N2    S    
C20   C22   A    
Cu2   O3    S    
C9    O7    A    
C18   C20   A    
C26   H17   S    
Cu1   N2    S    
C10   O8    A    
C14   C16   A    
Cu2   N1    S    
Cu2   O6    S    
Cu1   O1    S    
C6    C22   A    
Cu1   O5    S    
C15   H6    S    
C5    C21   A    
Cu2   O2    S    
C4    C6    A    
C25   H13   S    
C8    H10   S    
C26   H18   S    
C12   C18   A    
N1    N2    D    
C4    C23   A    
C20   C24   A    
C17   C19   A    
C2    C8    S    
C19   C21   A    
Cu1   Cu2   S    
C5    H1    S    
C11   C15   A    
C1    O3    A    
C6    H2    S    
C12   C16   A    
C2    O4    A    
C25   H14   S    
C11   C17   A    
