data_str_m9_o18_o24_f0_sra.sym.58
_audit_creation_date              2012-12-11T15:31:38-0500
_audit_creation_method            fapswitch 2.2
_symmetry_space_group_name_H-M    P1
_symmetry_Int_Tables_number       1
_space_group_crystal_system       triclinic
_cell_length_a                    6.960804
_cell_length_b                    14.725194
_cell_length_c                    21.398006
_cell_angle_alpha                 74.895079
_cell_angle_beta                  89.996445
_cell_angle_gamma                 90.363458
_cell_volume                      2117.45511297

loop_
_atom_site_label
_atom_site_type_symbol
_atom_type_description
_atom_site_fract_x
_atom_site_fract_y
_atom_site_fract_z
_atom_type_partial_charge
O1    O     O_R   0.648150 0.130050 0.214300 -0.539316
O2    O     O_R   0.351850 0.869950 0.785700 -0.538320
O3    O     O_R   0.320490 0.006660 0.340150 -0.528511
O4    O     O_R   0.679510 0.993340 0.659850 -0.536507
O5    O     O_R   0.146100 0.869940 0.285700 -0.547750
O6    O     O_R   0.853900 0.130060 0.714300 -0.522153
C1    C     C_R   0.488508 0.001642 0.366881 0.729160
C2    C     C_R   0.511274 0.996856 0.633436 0.719417
O7    O     O_R   0.318690 0.137980 0.218120 -0.542321
O8    O     O_R   0.681310 0.862020 0.781880 -0.540025
O9    O     O_R   0.144280 0.002190 0.162800 -0.548721
O10   O     O_R   0.855720 0.997810 0.837200 -0.542250
C3    C     C_R   0.487916 0.175608 0.205001 0.719133
C4    C     C_R   0.512335 0.824285 0.794267 0.715093
O11   O     O_R   0.649960 0.997790 0.337200 -0.548974
O12   O     O_R   0.350040 0.002210 0.662800 -0.552211
O13   O     O_3   0.479300 0.955290 0.231990 -0.372942
O14   O     O_3   0.520700 0.044710 0.768010 -0.369347
V1    V     V_3+5 0.206040 0.008290 0.253340 1.435287
V2    V     V_3+5 0.793960 0.991710 0.746660 1.448535
O15   O     O_R   0.814320 0.993320 0.159850 -0.536418
O16   O     O_R   0.185680 0.006680 0.840150 -0.540458
C5    C     C_R   0.982882 0.999516 0.132943 0.735214
C6    C     C_R   0.017115 0.000542 0.867050 0.737822
O17   O     O_R   0.816120 0.862000 0.281880 -0.526391
O18   O     O_R   0.183880 0.138000 0.718120 -0.549932
C7    C     C_R   0.984610 0.824403 0.293812 0.736709
C8    C     C_R   0.015636 0.175651 0.706010 0.735979
V3    V     V_3+5 0.705540 0.991700 0.246660 1.448034
V4    V     V_3+5 0.294460 0.008300 0.753340 1.421909
O19   O     O_3   0.982150 0.044700 0.268010 -0.376039
O20   O     O_3   0.017850 0.955300 0.731990 -0.379561
C9    C     C_R   0.994733 0.722939 0.322277 -0.029972
C10   C     C_R   0.010976 0.277377 0.677566 -0.023580
C11   C     C_R   0.074460 0.568890 0.311112 -0.164618
C12   C     C_R   0.059140 0.434400 0.689377 -0.147868
C13   C     C_R   0.056042 0.664955 0.284136 -0.210276
C14   C     C_R   0.055761 0.337735 0.716134 -0.238323
C15   C     C_R   0.954122 0.685439 0.388393 0.133015
C16   C     C_R   0.972646 0.313378 0.611189 0.134704
C17   C     C_R   0.001749 0.589759 0.418652 0.041697
C18   C     C_R   0.006430 0.410981 0.581369 0.034824
C19   C     C_R   0.049579 0.530930 0.377830 0.111243
C20   C     C_R   0.036703 0.471469 0.622532 0.122050
C21   C     C_R   0.008959 0.550430 0.487232 0.059809
C22   C     C_R   0.016508 0.450825 0.512890 0.061709
C23   C     C_R   0.060155 0.395542 0.470084 -0.198189
C24   C     C_R   0.035100 0.607290 0.530384 -0.199401
C25   C     C_R   0.078743 0.435014 0.404040 -0.178108
C26   C     C_R   0.051018 0.568440 0.596568 -0.143944
C27   C     C_3   0.850804 0.947747 0.986051 -0.263115
C28   C     C_3   0.149444 0.052350 0.013985 -0.315695
C29   C     C_3   0.011289 0.913105 0.036672 0.208355
C30   C     C_3   0.988990 0.086981 0.963326 0.208879
C31   C     C_3   0.992345 0.000834 0.062669 -0.089694
C32   C     C_3   0.007699 0.999261 0.937322 -0.091621
C33   C     C_3   0.835739 0.036892 0.011535 0.231371
C34   C     C_3   0.164544 0.963222 0.988411 0.192871
C35   C     C_3   0.675915 0.008204 0.476476 0.189312
C36   C     C_3   0.324001 0.987802 0.524418 0.224827
C37   C     C_3   0.577517 0.080209 0.507403 -0.266428
C38   C     C_3   0.421866 0.915978 0.493390 -0.198196
C39   C     C_3   0.505079 0.996581 0.563512 -0.152811
C40   C     C_3   0.494347 0.999773 0.437252 -0.145781
C41   C     C_3   0.605239 0.926431 0.532067 0.220539
C42   C     C_3   0.393857 0.069524 0.468929 0.220121
C43   C     C_R   0.500017 0.277832 0.177621 -0.112051
C44   C     C_R   0.504172 0.721683 0.819983 -0.135108
C45   C     C_R   0.540623 0.436194 0.190006 0.203857
C46   C     C_R   0.513232 0.562932 0.806608 0.188787
C47   C     C_R   0.525035 0.338839 0.217670 0.137237
C48   C     C_R   0.509452 0.660516 0.779127 0.201956
C49   C     C_R   0.493137 0.313584 0.110437 -0.254267
C50   C     C_R   0.502400 0.685387 0.887159 -0.259048
C51   C     C_R   0.512069 0.411147 0.080911 0.032286
C52   C     C_R   0.509975 0.587535 0.916326 0.059647
C53   C     C_R   0.531624 0.472536 0.121993 0.082089
C54   C     C_R   0.511749 0.526018 0.874970 0.033334
C55   C     C_R   0.511810 0.449500 0.012003 0.082252
C56   C     C_R   0.516825 0.549168 0.985230 0.087267
C57   C     C_R   0.533665 0.607143 0.028199 -0.210966
C58   C     C_R   0.511939 0.391356 0.968990 -0.179554
C59   C     C_R   0.542686 0.569617 0.094647 -0.158045
C60   C     C_R   0.513559 0.428683 0.902455 -0.197119
H1    H     H_    0.545849 0.682544 0.012240 0.134579
H2    H     H_    0.516551 0.315780 0.984993 0.134855
H3    H     H_    0.118770 0.390113 0.373300 0.131991
H4    H     H_    0.077335 0.614778 0.627639 0.126790
N1    N     N_3   0.870091 0.019511 0.450295 -0.593089
H5    H     H_    0.872312 0.079413 0.411261 0.242235
H6    H     H_    0.899846 0.961734 0.432189 0.238643
N2    N     N_3   0.130830 0.976309 0.551207 -0.616897
H7    H     H_    0.133061 0.918474 0.591669 0.215589
H8    H     H_    0.099415 0.035534 0.567533 0.238507
N3    N     N_3   0.718638 0.846426 0.566911 -0.655943
H9    H     H_    0.803081 0.824929 0.533134 0.234675
H10   H     H_    0.811818 0.869702 0.597693 0.246108
N4    N     N_3   0.273004 0.147080 0.435092 -0.650322
H11   H     H_    0.199370 0.170996 0.470179 0.222129
H12   H     H_    0.364678 0.201807 0.411841 0.215318
H13   H     H_    0.557863 0.618120 0.124714 0.171214
H14   H     H_    0.516153 0.379421 0.872771 0.131359
H15   H     H_    0.494835 0.736296 0.915208 0.132341
H16   H     H_    0.470561 0.262871 0.082805 0.126280
N5    N     N_3   0.512115 0.694887 0.709583 -0.610760
H17   H     H_    0.523220 0.768030 0.694306 0.211533
H18   H     H_    0.380442 0.676918 0.692377 0.232540
N6    N     N_3   0.531735 0.303212 0.286686 -0.692108
H19   H     H_    0.403355 0.266853 0.301528 0.223849
H20   H     H_    0.645110 0.255587 0.298536 0.224457
N7    N     N_3   0.567600 0.498489 0.230985 -0.675271
H21   H     H_    0.694274 0.479691 0.257325 0.256921
H22   H     H_    0.453245 0.488884 0.263753 0.249442
N8    N     N_3   0.522522 0.502620 0.763672 -0.638946
H23   H     H_    0.403806 0.457280 0.772157 0.216898
H24   H     H_    0.648322 0.463001 0.773237 0.236654
N9    N     N_3   0.876704 0.252064 0.578545 -0.685844
H25   H     H_    0.795858 0.289807 0.539316 0.238887
H26   H     H_    0.977300 0.208982 0.564312 0.205284
N10   N     N_3   0.843571 0.742575 0.420192 -0.684875
H27   H     H_    0.763957 0.701754 0.458915 0.248544
H28   H     H_    0.934973 0.789628 0.434860 0.201175
H29   H     H_    0.083298 0.309934 0.767393 0.121776
H30   H     H_    0.085342 0.693965 0.233051 0.131858
H31   H     H_    0.114126 0.524508 0.280039 0.125628
H32   H     H_    0.085547 0.480292 0.720708 0.127403
H33   H     H_    0.097297 0.322531 0.487289 0.128606
H34   H     H_    0.060685 0.681832 0.513583 0.130396
N11   N     N_3   0.025913 0.817208 0.077252 -0.677373
H35   H     H_    0.047721 0.773356 0.046602 0.247514
H36   H     H_    0.149921 0.813696 0.105290 0.217306
N12   N     N_3   0.971388 0.182730 0.922787 -0.674932
H37   H     H_    0.964654 0.227266 0.953583 0.244552
H38   H     H_    0.098889 0.199101 0.896342 0.208410
H39   H     H_    0.734250 0.902517 0.975409 0.135434
H40   H     H_    0.265964 0.097630 0.024586 0.138063
N13   N     N_3   0.658543 0.081361 0.023471 -0.676771
H41   H     H_    0.584881 0.101265 0.979530 0.228331
H42   H     H_    0.575743 0.029833 0.054993 0.227963
N14   N     N_3   0.341821 0.918904 0.976370 -0.682597
H43   H     H_    0.415946 0.899265 0.020227 0.219852
H44   H     H_    0.424198 0.970472 0.944716 0.233711
H45   H     H_    0.640734 0.147535 0.511864 0.147699
H46   H     H_    0.357735 0.848877 0.488622 0.128024

loop_
_geom_bond_atom_site_label_1
_geom_bond_atom_site_label_2
_ccdc_geom_bond_type
C39   C41   S    
C46   C54   A    
C60   H14   S    
C25   H3    S    
C45   C53   A    
N7    H21   S    
C6    C32   S    
O4    C2    A    
V1    O19   S    
N8    H23   S    
C15   C17   A    
C21   C22   A    
C7    C9    S    
N13   H42   S    
O9    V1    S    
C35   C40   S    
C9    C15   A    
C50   C52   A    
C36   C39   S    
C10   C16   A    
C11   C13   A    
C52   C54   A    
O3    C1    A    
N9    H26   S    
C18   C22   A    
C53   C59   A    
O12   V4    S    
C15   N10   S    
O13   V3    S    
N6    H19   S    
C36   C38   S    
C27   C32   S    
C35   N1    S    
C45   C47   A    
O7    C3    A    
C38   C40   S    
C11   H31   S    
O5    C7    A    
C27   H39   S    
C37   C42   S    
C37   H45   S    
C49   H16   S    
O6    C8    A    
N3    H9    S    
O7    V1    S    
O8    V2    S    
N12   H37   S    
O3    V1    S    
C27   C33   S    
N1    H6    S    
C11   C19   A    
C17   C19   A    
C43   C47   A    
C14   H29   S    
C28   C31   S    
C26   H4    S    
C24   C26   A    
C16   N9    S    
N13   H41   S    
C36   C42   S    
C2    O12   A    
C47   N6    S    
C49   C51   A    
C18   C20   A    
V2    O20   S    
N2    H8    S    
C57   C59   A    
C28   C30   S    
O11   V3    S    
C29   C31   S    
O17   V3    S    
C30   C32   S    
C35   C37   S    
N14   H43   S    
C23   C25   A    
O8    C4    A    
C38   H46   S    
C19   C25   A    
C1    O11   A    
C58   H2    S    
O15   V3    S    
C9    C13   A    
C27   C29   S    
C40   C42   S    
C24   H34   S    
C13   H30   S    
N5    H18   S    
C16   C18   A    
C44   C48   A    
O10   V2    S    
O1    V3    S    
C33   N13   S    
N7    H22   S    
C5    C31   S    
C51   C53   A    
C28   C34   S    
O14   V4    S    
C43   C49   A    
O18   V4    S    
C58   C60   A    
C31   C33   S    
C28   H40   S    
O16   C6    A    
C12   C20   A    
O1    C3    A    
C12   C14   A    
C30   N12   S    
N10   H27   S    
N10   H28   S    
N11   H35   S    
C3    C43   S    
C21   C24   A    
C34   N14   S    
C22   C23   A    
C4    C44   S    
C59   H13   S    
C38   C41   S    
C10   C14   A    
O18   C8    A    
C37   C39   S    
C12   H32   S    
C52   C56   A    
N14   H44   S    
C56   C57   A    
C55   C58   A    
N8    H24   S    
C29   C34   S    
N3    H10   S    
C23   H33   S    
O5    V1    S    
O17   C7    A    
O6    V2    S    
N5    H17   S    
O10   C6    A    
C46   N8    S    
O2    V4    S    
C42   N4    S    
O15   C5    A    
V3    O19   S    
O16   V4    S    
N9    H25   S    
C35   C41   S    
V4    O20   S    
C45   N7    S    
N6    H20   S    
C51   C55   A    
O9    C5    A    
N2    H7    S    
O13   V1    S    
C32   C34   S    
O14   V2    S    
O2    C4    A    
N4    H12   S    
C1    C40   S    
C2    C39   S    
C8    C10   S    
C55   C56   A    
O4    V2    S    
C54   C60   A    
C41   N3    S    
C29   N11   S    
C48   N5    S    
C20   C26   A    
N12   H38   S    
N4    H11   S    
C17   C21   A    
C46   C48   A    
N1    H5    S    
C36   N2    S    
C44   C50   A    
C57   H1    S    
C50   H15   S    
N11   H36   S    
C30   C33   S    
