data_str_m2_o10_o28_f0_pcu.sym.107
_audit_creation_date              2012-12-10T16:50:06-0500
_audit_creation_method            fapswitch 2.2
_symmetry_space_group_name_H-M    P1
_symmetry_Int_Tables_number       1
_space_group_crystal_system       triclinic
_cell_length_a                    23.467186
_cell_length_b                    8.73769
_cell_length_c                    7.447779
_cell_angle_alpha                 102.685813
_cell_angle_beta                  94.123524
_cell_angle_gamma                 92.467205
_cell_volume                      1483.3040849

loop_
_atom_site_label
_atom_site_type_symbol
_atom_type_description
_atom_site_fract_x
_atom_site_fract_y
_atom_site_fract_z
_atom_type_partial_charge
C1    C     C_R   0.499151 0.200545 0.454540 0.828360
C2    C     C_R   0.500775 0.799138 0.545818 0.875821
C3    C     C_R   0.239456 0.586248 0.387336 -0.177933
C4    C     C_R   0.753426 0.423131 0.319397 -0.171277
C5    C     C_R   0.298607 0.582873 0.387751 -0.228820
C6    C     C_R   0.694354 0.424697 0.326861 -0.230775
C7    C     C_R   0.329245 0.507359 0.507918 -0.085080
C8    C     C_R   0.671133 0.497728 0.490173 -0.096827
C9    C     C_R   0.300245 0.436171 0.629207 -0.293683
C10   C     C_R   0.707742 0.568823 0.646272 -0.292388
C11   C     C_R   0.240633 0.437603 0.627893 0.508343
C12   C     C_R   0.767048 0.567994 0.639143 0.498534
C13   C     C_R   0.209858 0.510681 0.503226 0.240728
C14   C     C_R   0.790117 0.497172 0.473524 0.250601
C15   C     C_2   0.506391 0.035925 0.433092 0.010783
C16   C     C_2   0.494151 0.963375 0.569994 0.026676
C17   C     C_R   0.391226 0.501006 0.502656 0.807593
C18   C     C_R   0.608895 0.499695 0.497264 0.810346
C19   C     C_R   0.882118 0.639828 0.494270 0.582344
C20   C     C_R   0.117125 0.366813 0.444745 0.577475
C21   C     C_R   0.877231 0.358978 0.429852 0.503898
C22   C     C_R   0.122167 0.647600 0.530055 0.502062
C23   C     C_R   0.936923 0.357950 0.428636 -0.012689
C24   C     C_R   0.062329 0.648550 0.518525 -0.009402
C25   C     C_R   0.969491 0.502267 0.467658 -0.021913
C26   C     C_R   0.029729 0.504226 0.474476 -0.017631
C27   C     C_R   0.941993 0.644650 0.500849 -0.041853
C28   C     C_R   0.057216 0.361888 0.438024 -0.036100
C29   C     C_R   0.964751 0.216555 0.392246 -0.161862
C30   C     C_R   0.034465 0.789970 0.551249 -0.162886
C31   C     C_R   0.024284 0.218509 0.395740 -0.180447
C32   C     C_R   0.974874 0.788023 0.541191 -0.180082
Cu1   Cu    Cu3+1 0.506340 0.517380 0.684380 0.952102
Cu2   Cu    Cu3+1 0.493660 0.482620 0.315620 0.953327
H1    H     H_    0.940657 0.104034 0.360866 0.190950
H2    H     H_    0.058566 0.902520 0.584731 0.193703
H3    H     H_    0.044383 0.107425 0.366915 0.186466
H4    H     H_    0.954738 0.899094 0.567548 0.187660
H5    H     H_    0.216361 0.645948 0.294666 0.167955
H6    H     H_    0.770766 0.364040 0.193705 0.161772
H7    H     H_    0.320519 0.639928 0.294706 0.163843
H8    H     H_    0.666836 0.367317 0.205590 0.168137
H9    H     H_    0.323587 0.376201 0.721367 0.160027
H10   H     H_    0.690491 0.626625 0.773079 0.172017
H11   H     H_    0.453886 0.383051 0.949804 0.226039
H12   H     H_    0.545794 0.617953 0.050444 0.241382
N1    N     N_R   0.851068 0.498594 0.463437 -0.462502
N2    N     N_R   0.148388 0.508132 0.493214 -0.466014
N3    N     N_2   0.484110 0.456420 0.038520 -0.221931
N4    N     N_2   0.515890 0.543580 0.961480 -0.211360
O1    O     O_R   0.504120 0.286130 0.619770 -0.594842
O2    O     O_R   0.495880 0.713870 0.380230 -0.562716
O3    O     O_R   0.493410 0.256770 0.308360 -0.591490
O4    O     O_R   0.506590 0.743230 0.691640 -0.571745
O5    O     O_R   0.423230 0.514630 0.655730 -0.585806
O6    O     O_R   0.576770 0.485370 0.344270 -0.589671
O7    O     O_R   0.412530 0.485280 0.344320 -0.580279
O8    O     O_R   0.587470 0.514720 0.655680 -0.586758
O9    O     O_2   0.855054 0.775155 0.517993 -0.495581
O10   O     O_2   0.143920 0.231591 0.401383 -0.501589
O11   O     O_2   0.845667 0.221696 0.401120 -0.522819
O12   O     O_2   0.153959 0.784937 0.579742 -0.519020
O13   O     O_3   0.212365 0.355753 0.737186 -0.542281
C33   C     C_3   0.196919 0.462767 0.894575 0.029147
H13   H     H_    0.178620 0.569877 0.861252 0.151152
H14   H     H_    0.235208 0.498924 0.994140 0.149721
C34   C     C_3   0.151573 0.382508 0.984169 -0.691878
H15   H     H_    0.169703 0.283456 0.035911 0.275382
H16   H     H_    0.136243 0.468117 0.101183 0.185085
H17   H     H_    0.114546 0.336935 0.882028 0.248229
O14   O     O_3   0.802510 0.644949 0.791032 -0.549578
C35   C     C_3   0.820821 0.534473 0.892000 0.044078
H18   H     H_    0.832171 0.421952 0.802010 0.152740
H19   H     H_    0.786381 0.509189 0.977696 0.148516
C36   C     C_3   0.873915 0.603422 0.017562 -0.711264
H20   H     H_    0.863924 0.711990 0.116266 0.273233
H21   H     H_    0.889188 0.516497 0.095692 0.188484
H22   H     H_    0.908456 0.632196 0.933735 0.244500
N5    N     N_2   0.531030 0.955795 0.270768 -0.423231
H23   H     H_    0.515980 0.986829 0.150931 0.279924
C37   C     C_3   0.592850 0.957003 0.290052 -0.666511
H24   H     H_    0.608266 0.886634 0.161738 0.226111
H25   H     H_    0.607388 0.904139 0.406928 0.225193
H26   H     H_    0.611775 0.079375 0.313898 0.221297
N6    N     N_2   0.469797 0.037713 0.735185 -0.441472
H27   H     H_    0.494873 0.123394 0.827999 0.276335
C38   C     C_3   0.409083 0.059913 0.717578 -0.649351
H28   H     H_    0.393999 0.102379 0.856754 0.226342
H29   H     H_    0.385127 0.946682 0.651552 0.233782
H30   H     H_    0.400020 0.147934 0.633768 0.213144

loop_
_geom_bond_atom_site_label_1
_geom_bond_atom_site_label_2
_ccdc_geom_bond_type
Cu1   O5    S    
C22   N2    A    
C38   H28   S    
Cu2   O6    S    
Cu1   O8    S    
C37   H24   S    
N6    H27   S    
C23   C29   A    
C24   C26   A    
C11   O13   S    
C19   N1    A    
C15   C16   D    
C1    O3    A    
C18   O8    A    
C15   N5    S    
C4    H6    S    
C7    C17   S    
Cu2   O7    S    
C1    C15   S    
C32   H4    S    
C20   O10   S    
C19   C27   A    
C17   O5    A    
C21   O11   S    
C3    C13   A    
C18   O6    A    
C3    H5    S    
C35   C36   S    
C10   C12   A    
C37   H25   S    
H12   N4    S    
N6    C38   S    
C9    H9    S    
C10   H10   S    
C34   H15   S    
C33   C34   S    
C35   H19   S    
C2    O4    A    
C5    C7    A    
C6    C8    A    
C20   C28   A    
C19   O9    S    
C25   C26   A    
C8    C18   S    
N5    H23   S    
C34   H16   S    
C33   H14   S    
C36   H20   S    
C22   O12   S    
C9    C11   A    
H11   N3    S    
Cu1   Cu2   S    
C36   H21   S    
C20   N2    A    
C2    O2    A    
C4    C6    A    
C12   O14   S    
C12   C14   A    
C21   C23   A    
C16   N6    S    
C22   C24   A    
C25   C27   A    
C37   H26   S    
C2    C16   S    
N5    C37   S    
Cu1   O4    S    
C7    C9    A    
C5    H7    S    
Cu2   N3    S    
C27   C32   A    
C26   C28   A    
C28   C31   A    
C35   H18   S    
C3    C5    A    
C13   N2    S    
C14   N1    S    
Cu1   O1    S    
C29   H1    S    
Cu2   O2    S    
C1    O1    A    
C30   H2    S    
C34   H17   S    
C33   H13   S    
C38   H29   S    
Cu1   N4    S    
O14   C35   S    
C29   C31   A    
C30   C32   A    
C11   C13   A    
C23   C25   A    
C4    C14   A    
C36   H22   S    
C24   C30   A    
O13   C33   S    
C31   H3    S    
Cu2   O3    S    
C8    C10   A    
N3    N4    D    
C6    H8    S    
C38   H30   S    
C17   O7    A    
C21   N1    A    
