data_str_m3_o1_o4_f0_pcu.sym.86
_audit_creation_date              2012-12-10T18:57:12-0500
_audit_creation_method            fapswitch 2.2
_symmetry_space_group_name_H-M    P1
_symmetry_Int_Tables_number       1
_space_group_crystal_system       triclinic
_cell_length_a                    10.656333
_cell_length_b                    9.844418
_cell_length_c                    10.704816
_cell_angle_alpha                 89.989471
_cell_angle_beta                  90.370031
_cell_angle_gamma                 87.618999
_cell_volume                      1121.99992809

loop_
_atom_site_label
_atom_site_type_symbol
_atom_type_description
_atom_site_fract_x
_atom_site_fract_y
_atom_site_fract_z
_atom_type_partial_charge
C1    C     C_R   0.260235 0.503011 0.497156 1.024438
C2    C     C_R   0.739841 0.496590 0.496039 0.990067
C3    C     C_R   0.566128 0.068961 0.588299 -0.040400
C4    C     C_R   0.434285 0.074953 0.411440 -0.049854
C5    C     C_R   0.566145 0.925080 0.588275 -0.052106
C6    C     C_R   0.434411 0.931138 0.411389 -0.064472
C7    C     C_R   0.500709 0.499901 0.259976 1.021936
C8    C     C_R   0.500595 0.499822 0.739954 0.940610
C9    C     C_R   0.541348 0.614661 0.063597 0.210164
C10   C     C_R   0.542029 0.614352 0.936206 0.154611
C11   C     C_R   0.511503 0.497655 0.128227 -0.033560
C12   C     C_R   0.511651 0.497421 0.871675 -0.102485
C13   C     C_R   0.501192 0.374325 0.064275 -0.178496
C14   C     C_R   0.500983 0.374233 0.935690 -0.218097
C15   C     C_3   0.487877 0.756563 0.928011 -0.454681
C16   C     C_3   0.487170 0.757000 0.069702 -0.474795
C17   C     C_R   0.065379 0.509585 0.612532 -0.131079
C18   C     C_R   0.935327 0.502286 0.612071 -0.137131
C19   C     C_R   0.873010 0.487219 0.497048 -0.275721
C20   C     C_R   0.127254 0.511028 0.496957 -0.294147
C21   C     C_R   0.937073 0.474462 0.382678 0.339502
C22   C     C_R   0.063689 0.505135 0.381580 0.268265
H1    H     H_    0.485814 0.279772 0.112557 0.173993
H2    H     H_    0.485503 0.279637 0.887358 0.185294
H3    H     H_    0.555278 0.827601 0.887872 0.206709
H4    H     H_    0.391008 0.763878 0.108834 0.258118
H5    H     H_    0.392204 0.762458 0.885728 0.256305
H6    H     H_    0.554069 0.828267 0.111257 0.216921
H7    H     H_    0.619097 0.121049 0.658840 0.153733
H8    H     H_    0.381682 0.131791 0.340613 0.150678
H9    H     H_    0.619320 0.868202 0.658628 0.140292
H10   H     H_    0.382278 0.879320 0.340293 0.152731
N1    N     N_R   0.500000 0.857200 0.500000 -0.084514
N2    N     N_R   0.500000 0.142810 0.500000 -0.084722
O1    O     O_R   0.316770 0.614620 0.499990 -0.570175
O2    O     O_R   0.683230 0.614620 0.500010 -0.637341
O3    O     O_R   0.316800 0.385290 0.500000 -0.625646
O4    O     O_R   0.683200 0.385290 0.500000 -0.543131
O5    O     O_R   0.500000 0.614690 0.316780 -0.609756
O6    O     O_R   0.500000 0.614690 0.683220 -0.618869
O7    O     O_R   0.500020 0.385360 0.316780 -0.622995
O8    O     O_R   0.499980 0.385360 0.683220 -0.634954
Zn1   Zn    Zn3+2 0.500000 0.653120 0.500000 1.014892
Zn2   Zn    Zn3+2 0.500000 0.346880 0.500000 1.024829
C23   C     C_2   0.136252 0.515339 0.732958 0.959108
O9    O     O_2   0.212681 0.602899 0.749512 -0.630737
O10   O     O_R   0.114238 0.421414 0.827530 -0.736607
H11   H     H_    0.167798 0.435998 0.904639 0.386543
C24   C     C_2   0.865066 0.504832 0.731514 0.980686
O11   O     O_2   0.872229 0.601575 0.802484 -0.574761
O12   O     O_R   0.794746 0.393770 0.764169 -0.786539
H12   H     H_    0.760318 0.401784 0.851954 0.355412
S1    S     S_3+6 0.861434 0.411795 0.245841 0.063798
O13   O     O_2   0.795496 0.528973 0.179551 -0.311336
O14   O     O_2   0.955590 0.344265 0.159480 -0.199868
O15   O     O_3   0.756807 0.295317 0.282233 -0.557050
H13   H     H_    0.728310 0.259198 0.200976 0.369661
S2    S     S_3+6 0.141724 0.547555 0.240203 0.058540
O16   O     O_2   0.217783 0.425399 0.195491 -0.293747
O17   O     O_2   0.051251 0.593574 0.139002 -0.181707
O18   O     O_3   0.237812 0.675220 0.266637 -0.599956
H14   H     H_    0.181692 0.752801 0.292405 0.353598

loop_
_geom_bond_atom_site_label_1
_geom_bond_atom_site_label_2
_ccdc_geom_bond_type
C22   S2    S    
C8    O8    A    
C6    H10   S    
O4    Zn2   S    
C5    H9    S    
C13   C14   A    
C21   S1    S    
O1    Zn1   S    
C9    C10   A    
C2    O4    A    
S1    O14   D    
C15   H5    S    
C16   H6    S    
C6    N1    A    
C1    O3    A    
C8    C12   S    
O3    Zn2   S    
C23   O10   S    
C17   C18   A    
O2    Zn1   S    
S1    O13   D    
C7    C11   S    
C11   C13   A    
C9    C11   A    
O8    Zn2   S    
C14   H2    S    
S2    O18   S    
C10   C12   A    
C19   C21   A    
C9    C16   S    
C12   C14   A    
C18   C19   A    
C10   C15   S    
C7    O7    A    
C16   H4    S    
O18   H14   S    
O7    Zn2   S    
C4    N2    A    
C15   H3    S    
C15   C16   S    
S2    O17   D    
O12   H12   S    
N1    Zn1   S    
O10   H11   S    
C23   O9    D    
C17   C20   A    
N2    Zn2   S    
O15   H13   S    
C13   H1    S    
C4    C6    A    
C24   O11   D    
S1    O15   S    
C2    O2    A    
C3    H7    S    
C1    O1    A    
C7    O5    A    
C1    C20   S    
O5    Zn1   S    
C8    O6    A    
C3    N2    A    
C24   O12   S    
C2    C19   S    
C21   C22   A    
S2    O16   D    
O6    Zn1   S    
C4    H8    S    
C17   C23   S    
C18   C24   S    
C20   C22   A    
C3    C5    A    
C5    N1    A    
