data_str_m4_o1_o11_f0_acs.sym.61
_audit_creation_date              2012-12-11T14:42:20-0500
_audit_creation_method            fapswitch 2.2
_symmetry_space_group_name_H-M    P1
_symmetry_Int_Tables_number       1
_space_group_crystal_system       triclinic
_cell_length_a                    19.022253
_cell_length_b                    10.960567
_cell_length_c                    18.835803
_cell_angle_alpha                 89.984221
_cell_angle_beta                  90.235715
_cell_angle_gamma                 90.08634
_cell_volume                      3927.12685594

loop_
_atom_site_label
_atom_site_type_symbol
_atom_type_description
_atom_site_fract_x
_atom_site_fract_y
_atom_site_fract_z
_atom_type_partial_charge
C1    C     C_R   0.725591 0.959124 0.855268 0.552703
C2    C     C_R   0.238139 0.432506 0.930012 0.001198
C3    C     C_2   0.616367 0.880309 0.083641 0.579967
C4    C     C_2   0.880066 0.324664 0.573485 0.566587
C5    C     C_2   0.115279 0.379281 0.414747 0.586474
C6    C     C_2   0.380069 0.824679 0.573489 0.566588
C7    C     C_2   0.615280 0.879275 0.414748 0.586468
C8    C     C_R   0.261885 0.932613 0.069981 0.001302
C9    C     C_R   0.738140 0.932503 0.930011 0.001195
C10   C     C_R   0.820118 0.399160 0.029112 -0.132894
C11   C     C_R   0.179887 0.398988 0.970921 -0.133028
C12   C     C_R   0.320120 0.899183 0.029110 -0.132887
C13   C     C_R   0.679889 0.898977 0.970919 -0.133033
C14   C     C_R   0.817124 0.400612 0.955807 0.042431
C15   C     C_R   0.182907 0.400583 0.044226 0.042635
C16   C     C_R   0.317123 0.900627 0.955805 0.042431
C17   C     C_R   0.274424 0.959213 0.144729 0.549103
C18   C     C_R   0.682908 0.900573 0.044224 0.042636
C19   C     C_R   0.751200 0.418540 0.922293 0.006039
C20   C     C_R   0.248869 0.418633 0.077703 0.005523
C21   C     C_R   0.251198 0.918538 0.922293 0.006039
C22   C     C_R   0.748869 0.918630 0.077702 0.005523
C23   C     C_R   0.544143 0.271822 0.524401 -0.106058
C24   C     C_R   0.536122 0.266821 0.452019 -0.104203
C25   C     C_R   0.044148 0.771816 0.524401 -0.106052
C26   C     C_R   0.036126 0.766815 0.452018 -0.104199
C27   C     C_R   0.505090 0.163858 0.421736 0.049476
C28   C     C_R   0.225591 0.459125 0.855268 0.552705
C29   C     C_R   0.524555 0.171367 0.566173 0.017993
C30   C     C_R   0.005088 0.663857 0.421737 0.049479
C31   C     C_R   0.024554 0.671367 0.566174 0.017993
C32   C     C_R   0.491345 0.059696 0.462623 -0.108301
C33   C     C_R   0.503390 0.062539 0.534687 -0.140718
C34   C     C_R   0.991336 0.559699 0.462625 -0.108301
C35   C     C_R   0.003382 0.562543 0.534689 -0.140721
C36   C     C_R   0.814939 0.371565 0.539318 0.016878
C37   C     C_R   0.181309 0.403385 0.454857 0.020336
C38   C     C_R   0.314941 0.871574 0.539320 0.016881
C39   C     C_R   0.774424 0.459212 0.144729 0.549103
C40   C     C_R   0.681310 0.903382 0.454858 0.020338
C41   C     C_R   0.811987 0.368299 0.466122 -0.137872
C42   C     C_R   0.178207 0.404096 0.528291 -0.122916
C43   C     C_R   0.311991 0.868307 0.466124 -0.137867
C44   C     C_R   0.678208 0.904093 0.528291 -0.122916
C45   C     C_R   0.529981 0.177852 0.850780 0.574662
C46   C     C_R   0.470019 0.177961 0.149222 0.570359
C47   C     C_R   0.029981 0.677852 0.850779 0.574655
C48   C     C_R   0.970019 0.677961 0.149221 0.570362
C49   C     C_R   0.759476 0.430571 0.428866 -0.031280
C50   C     C_R   0.698618 0.463725 0.036506 -0.135052
C51   C     C_R   0.236737 0.437444 0.569570 -0.023308
C52   C     C_R   0.259478 0.930574 0.428867 -0.031277
C53   C     C_R   0.736738 0.937442 0.569571 -0.023305
C54   C     C_R   0.707680 0.494243 0.466592 -0.157042
C55   C     C_R   0.298424 0.475212 0.536328 -0.134956
C56   C     C_R   0.207679 0.994242 0.466592 -0.157046
C57   C     C_R   0.798425 0.975208 0.536329 -0.134954
C58   C     C_R   0.706887 0.491815 0.541053 0.000744
C59   C     C_R   0.303595 0.473011 0.462385 0.017855
C60   C     C_R   0.206885 0.991816 0.541053 0.000740
C61   C     C_R   0.301457 0.463758 0.963443 -0.134632
C62   C     C_R   0.803597 0.973006 0.462386 0.017856
C63   C     C_R   0.757143 0.419997 0.577546 -0.007663
C64   C     C_R   0.246551 0.425652 0.421444 -0.023168
C65   C     C_R   0.257142 0.920001 0.577547 -0.007663
C66   C     C_R   0.746552 0.925649 0.421445 -0.023170
C67   C     C_R   0.738984 0.366222 0.851925 0.571147
C68   C     C_R   0.261038 0.366316 0.148077 0.569215
C69   C     C_R   0.238983 0.866221 0.851926 0.571150
C70   C     C_R   0.761038 0.866316 0.148077 0.569214
C71   C     C_R   0.725601 0.960232 0.645050 0.566032
C72   C     C_R   0.198616 0.963709 0.036508 -0.135054
C73   C     C_R   0.273206 0.958059 0.354140 0.556915
C74   C     C_R   0.225600 0.460233 0.645050 0.566031
C75   C     C_R   0.773206 0.458058 0.354139 0.556913
C76   C     C_R   0.536936 0.177349 0.641085 0.564425
C77   C     C_R   0.471707 0.175646 0.353837 0.569580
C78   C     C_R   0.036935 0.677349 0.641085 0.564418
C79   C     C_R   0.971707 0.675645 0.353837 0.569581
C80   C     C_R   0.740950 0.365965 0.647497 0.579383
C81   C     C_R   0.259809 0.366556 0.352422 0.575843
C82   C     C_R   0.240950 0.865966 0.647497 0.579383
C83   C     C_R   0.801457 0.963760 0.963443 -0.134632
C84   C     C_R   0.759809 0.866556 0.352422 0.575840
C85   C     C_2   0.497794 0.170232 0.920910 -0.091163
C86   C     C_2   0.502251 0.170506 0.079113 -0.090809
C87   C     C_2   0.997792 0.670233 0.920909 -0.091170
C88   C     C_2   0.002249 0.670504 0.079112 -0.090802
C89   C     C_2   0.491577 0.072515 0.037944 -0.133807
C90   C     C_2   0.508698 0.072501 0.962208 -0.134840
C91   C     C_2   0.991570 0.572515 0.037942 -0.133802
C92   C     C_2   0.008690 0.572499 0.962206 -0.134839
C93   C     C_R   0.692838 0.454204 0.963015 -0.150838
C94   C     C_R   0.761884 0.432609 0.069981 0.001299
C95   C     C_R   0.307260 0.454320 0.036937 -0.151266
C96   C     C_R   0.192835 0.954187 0.963017 -0.150840
C97   C     C_R   0.807259 0.954321 0.036937 -0.151267
C98   C     C_2   0.658296 0.574404 0.579148 0.576916
C99   C     C_2   0.368400 0.524075 0.430420 0.627045
C100  C     C_2   0.158293 0.074403 0.579148 0.576917
C101  C     C_2   0.868402 0.024065 0.430422 0.627057
C102  C     C_2   0.883659 0.380384 0.916442 0.580602
C103  C     C_2   0.116366 0.380322 0.083644 0.579971
C104  C     C_2   0.383657 0.880406 0.916438 0.580608
Cr1   Cr    Cr6+3 0.769270 0.163730 0.750710 1.087459
Cr2   Cr    Cr6+3 0.385840 0.322500 0.252290 1.075406
Cr3   Cr    Cr6+3 0.114160 0.822500 0.747710 1.069847
Cr4   Cr    Cr6+3 0.885840 0.822500 0.252290 1.075407
Cr5   Cr    Cr6+3 0.230730 0.163730 0.249290 1.081782
Cr6   Cr    Cr6+3 0.269270 0.663730 0.750710 1.087455
Cr7   Cr    Cr6+3 0.730730 0.663730 0.249290 1.081781
Cr8   Cr    Cr6+3 0.612620 0.009790 0.748780 1.077718
Cr9   Cr    Cr6+3 0.387380 0.009790 0.251220 1.074243
Cr10  Cr    Cr6+3 0.112620 0.509790 0.748780 1.077722
Cr11  Cr    Cr6+3 0.887380 0.509790 0.251220 1.074240
Cr12  Cr    Cr6+3 0.614160 0.322500 0.747710 1.069845
H1    H     H_    0.470109 0.989508 0.060146 0.174028
H2    H     H_    0.341660 0.510295 0.567983 0.192018
H3    H     H_    0.170677 0.051689 0.438263 0.189166
H4    H     H_    0.841661 0.010289 0.567984 0.192015
H5    H     H_    0.526170 0.252389 0.057290 0.103145
H6    H     H_    0.473729 0.251914 0.942638 0.103687
H7    H     H_    0.026172 0.752385 0.057290 0.103140
H8    H     H_    0.973731 0.751919 0.942638 0.103689
H9    H     H_    0.641911 0.468927 0.938565 0.152169
H10   H     H_    0.358214 0.469122 0.061361 0.151866
H11   H     H_    0.141907 0.968894 0.938569 0.152168
H12   H     H_    0.530327 0.989678 0.940106 0.173435
H13   H     H_    0.858212 0.969128 0.061362 0.151867
H14   H     H_    0.653683 0.493377 0.067107 0.152178
H15   H     H_    0.346412 0.493462 0.932802 0.152804
H16   H     H_    0.153680 0.993346 0.067111 0.152169
H17   H     H_    0.846411 0.993468 0.932803 0.152809
H18   H     H_    0.869878 0.378337 0.054232 0.160721
H19   H     H_    0.130103 0.378018 0.945823 0.160600
H20   H     H_    0.369882 0.878378 0.054228 0.160712
H21   H     H_    0.630107 0.878002 0.945821 0.160603
H22   H     H_    0.565450 0.354479 0.547523 0.176708
H23   H     H_    0.970097 0.489509 0.060143 0.174022
H24   H     H_    0.548678 0.346767 0.420629 0.150470
H25   H     H_    0.065460 0.854469 0.547521 0.176698
H26   H     H_    0.048687 0.846756 0.420627 0.150459
H27   H     H_    0.467426 0.978939 0.439892 0.158882
H28   H     H_    0.494860 0.981533 0.565813 0.186830
H29   H     H_    0.967413 0.478947 0.439896 0.158877
H30   H     H_    0.994845 0.481543 0.565817 0.186837
H31   H     H_    0.570754 0.675430 0.576169 0.346520
H32   H     H_    0.473598 0.545000 0.437043 0.357790
H33   H     H_    0.070750 0.175428 0.576166 0.346522
H34   H     H_    0.030313 0.489670 0.940103 0.173444
H35   H     H_    0.973601 0.044978 0.437045 0.357792
H36   H     H_    0.976241 0.291148 0.911048 0.343704
H37   H     H_    0.023675 0.290963 0.089161 0.343199
H38   H     H_    0.476238 0.791173 0.911038 0.343702
H39   H     H_    0.523677 0.790946 0.089155 0.343200
H40   H     H_    0.954752 0.195593 0.575154 0.351013
H41   H     H_    0.023969 0.285682 0.408504 0.344363
H42   H     H_    0.454755 0.695609 0.575165 0.351008
H43   H     H_    0.523974 0.785666 0.408503 0.344357
H44   H     H_    0.855093 0.325652 0.438085 0.199277
H45   H     H_    0.128098 0.384919 0.553092 0.177420
H46   H     H_    0.355099 0.825664 0.438088 0.199269
H47   H     H_    0.628099 0.884916 0.553092 0.177411
H48   H     H_    0.670679 0.551692 0.438264 0.189168
O1    O     O_R   0.784320 0.290430 0.830510 -0.473511
O2    O     O_R   0.456080 0.282180 0.333210 -0.509552
O3    O     O_R   0.043920 0.782180 0.666790 -0.512673
O4    O     O_R   0.956080 0.782180 0.333210 -0.509548
O5    O     O_R   0.679040 0.374160 0.674430 -0.483885
O6    O     O_R   0.320960 0.374160 0.325570 -0.471824
O7    O     O_R   0.179040 0.874160 0.674430 -0.483883
O8    O     O_R   0.820960 0.874160 0.325570 -0.471825
O9    O     O_3   0.665350 0.165340 0.749070 -0.290067
O10   O     O_3   0.334650 0.165340 0.250930 -0.282289
O11   O     O_3   0.165350 0.665340 0.749070 -0.290068
O12   O     O_R   0.215680 0.290430 0.169490 -0.473202
O13   O     O_3   0.834650 0.665340 0.250930 -0.282289
O14   O     O_R   0.762640 0.040960 0.825200 -0.499618
O15   O     O_R   0.237360 0.040960 0.174800 -0.500990
O16   O     O_R   0.262640 0.540960 0.825200 -0.499618
O17   O     O_R   0.737360 0.540960 0.174800 -0.500992
O18   O     O_R   0.667400 0.923970 0.829950 -0.517937
O19   O     O_R   0.332600 0.923970 0.170050 -0.520443
O20   O     O_R   0.167400 0.423970 0.829950 -0.517932
O21   O     O_R   0.832600 0.423970 0.170050 -0.520447
O22   O     O_R   0.553960 0.081340 0.821780 -0.479501
O23   O     O_R   0.284320 0.790430 0.830510 -0.473513
O24   O     O_R   0.446040 0.081340 0.178220 -0.480636
O25   O     O_R   0.053960 0.581340 0.821780 -0.479501
O26   O     O_R   0.946040 0.581340 0.178220 -0.480635
O27   O     O_R   0.543180 0.283240 0.826740 -0.515664
O28   O     O_R   0.456820 0.283240 0.173260 -0.520386
O29   O     O_R   0.043180 0.783240 0.826740 -0.515665
O30   O     O_R   0.956820 0.783240 0.173260 -0.520386
O31   O     O_R   0.678360 0.375140 0.822710 -0.505471
O32   O     O_R   0.321640 0.375140 0.177290 -0.508633
O33   O     O_R   0.178360 0.875140 0.822710 -0.505471
O34   O     O_R   0.715680 0.790430 0.169490 -0.473202
O35   O     O_R   0.821640 0.875140 0.177290 -0.508634
O36   O     O_R   0.785050 0.289380 0.670560 -0.472125
O37   O     O_R   0.214950 0.289380 0.329440 -0.479179
O38   O     O_R   0.285050 0.789380 0.670560 -0.472130
O39   O     O_R   0.714950 0.789380 0.329440 -0.479179
O40   O     O_R   0.763320 0.039990 0.676930 -0.506725
O41   O     O_R   0.236680 0.039990 0.323070 -0.507413
O42   O     O_R   0.263320 0.539990 0.676930 -0.506725
O43   O     O_R   0.736680 0.539990 0.323070 -0.507412
O44   O     O_R   0.668130 0.922920 0.670000 -0.496133
O45   O     O_R   0.554640 0.080370 0.673500 -0.492886
O46   O     O_R   0.331870 0.922920 0.330000 -0.505054
O47   O     O_R   0.168130 0.422920 0.670000 -0.496130
O48   O     O_R   0.831870 0.422920 0.330000 -0.505058
O49   O     O_2   0.673917 0.613528 0.637978 -0.492217
O50   O     O_R   0.596245 0.612785 0.546438 -0.683639
O51   O     O_2   0.364702 0.587186 0.376970 -0.506790
O52   O     O_R   0.433492 0.503703 0.463010 -0.674178
O53   O     O_2   0.173911 0.113525 0.637978 -0.492212
O54   O     O_R   0.096243 0.112784 0.546435 -0.683643
O55   O     O_2   0.864707 0.087180 0.376973 -0.506788
O56   O     O_R   0.445360 0.080370 0.326500 -0.492717
O57   O     O_R   0.933494 0.003684 0.463010 -0.674181
O58   O     O_2   0.894831 0.435526 0.861131 -0.486799
O59   O     O_R   0.933813 0.298989 0.943114 -0.711184
O60   O     O_2   0.105310 0.435482 0.138937 -0.485857
O61   O     O_R   0.066083 0.298852 0.057052 -0.711253
O62   O     O_2   0.394825 0.935550 0.861128 -0.486799
O63   O     O_R   0.433813 0.799011 0.943106 -0.711177
O64   O     O_2   0.605309 0.935468 0.138933 -0.485859
O65   O     O_R   0.566086 0.798837 0.057048 -0.711259
O66   O     O_2   0.902823 0.372399 0.627647 -0.496821
O67   O     O_R   0.054640 0.580370 0.673500 -0.492889
O68   O     O_R   0.915427 0.225988 0.543590 -0.695200
O69   O     O_2   0.103840 0.432467 0.358769 -0.489381
O70   O     O_R   0.065861 0.296709 0.441339 -0.690145
O71   O     O_2   0.402823 0.872420 0.627650 -0.496817
O72   O     O_R   0.415431 0.726001 0.543598 -0.695196
O73   O     O_2   0.603839 0.932465 0.358771 -0.489385
O74   O     O_R   0.565865 0.796696 0.441338 -0.690146
O75   O     O_R   0.945360 0.580370 0.326500 -0.492717
O76   O     O_R   0.543920 0.282180 0.666790 -0.512677

loop_
_geom_bond_atom_site_label_1
_geom_bond_atom_site_label_2
_ccdc_geom_bond_type
C76   O45   A    
C25   C31   A    
C20   C95   A    
C6    O71   D    
C4    C36   S    
C16   C21   A    
C55   C59   A    
C59   C99   S    
C23   H22   S    
C58   C98   S    
C24   C27   A    
Cr2   O28   S    
Cr1   O14   S    
H31   O50   S    
C3    O65   S    
C68   O12   A    
C42   H45   S    
C57   C62   A    
C29   C76   S    
Cr3   O7    S    
Cr6   O11   S    
C24   H24   S    
C78   O3    A    
C70   O35   A    
C99   O51   D    
Cr11  O48   S    
C104  O63   S    
C4    O68   S    
H37   O61   S    
Cr9   O46   S    
C5    C37   S    
Cr7   O34   S    
Cr8   O22   S    
C87   H8    S    
Cr11  O21   S    
C34   H29   S    
C43   C52   A    
C14   C102  S    
C99   O52   S    
C10   C94   A    
C49   C54   A    
C80   O36   A    
C29   C33   A    
Cr7   O17   S    
Cr2   O32   S    
C3    C18   S    
C13   C18   A    
C34   C35   A    
C37   C42   A    
C9    C13   A    
C32   H27   S    
C73   O41   A    
C50   H14   S    
H42   O72   S    
Cr12  O31   S    
C11   C15   A    
C44   C53   A    
C16   C104  S    
Cr1   O36   S    
C54   H48   S    
C12   C16   A    
Cr1   O1    S    
Cr4   O13   S    
C12   H20   S    
C7    C40   S    
C48   C88   S    
C19   C67   S    
C44   H47   S    
C79   O75   A    
C79   O4    A    
C36   C63   A    
C69   O23   A    
Cr9   O56   S    
C48   O26   A    
C19   C93   A    
C2    C61   A    
C42   C51   A    
C62   C101  S    
C23   C29   A    
C67   O1    A    
Cr10  O25   S    
Cr8   O9    S    
Cr4   O4    S    
C100  O54   S    
C70   O34   A    
C22   C97   A    
C5    O69   D    
C87   C92   D    
C69   O33   A    
Cr2   O6    S    
C36   C41   A    
C15   C20   A    
C75   O43   A    
C80   O5    A    
C88   H7    S    
C67   O31   A    
C2    C11   A    
H32   O52   S    
C41   C49   A    
C45   O27   A    
C102  O59   S    
C72   H16   S    
C63   C80   S    
C33   H28   S    
C47   O29   A    
C71   O40   A    
C75   O48   A    
C85   C90   D    
Cr3   O3    S    
Cr6   O23   S    
Cr5   O12   S    
C8    C72   A    
C30   C34   A    
C7    O73   D    
C73   O46   A    
C1    C9    S    
Cr8   O44   S    
Cr6   O42   S    
C52   C73   S    
C10   C14   A    
Cr7   O39   S    
Cr10  O67   S    
C82   O38   A    
C62   C66   A    
Cr5   O10   S    
C50   C94   A    
Cr1   O40   S    
C81   O37   A    
C27   C77   S    
C25   C26   A    
Cr9   O24   S    
H39   O65   S    
C60   C100  S    
H35   O57   S    
C51   C74   S    
C21   C69   S    
C35   H30   S    
C4    O66   D    
Cr10  O47   S    
C47   O25   A    
C45   C85   S    
C39   C94   S    
C11   H19   S    
C103  O60   D    
C41   H44   S    
C1    O14   A    
Cr5   O15   S    
C7    O74   S    
Cr6   O16   S    
C8    C12   A    
H40   O68   S    
C86   H5    S    
C49   C75   S    
Cr2   O10   S    
C85   H6    S    
C68   O32   A    
Cr11  O13   S    
C81   O6    A    
Cr5   O41   S    
C17   O19   A    
C28   O16   A    
C98   O50   S    
C39   O17   A    
C9    C83   A    
C57   H4    S    
C91   H23   S    
C30   C79   S    
Cr12  O9    S    
C84   O39   A    
Cr10  O11   S    
C72   C96   A    
Cr12  O27   S    
C89   H1    S    
C100  O53   D    
C26   C30   A    
C5    O70   S    
Cr4   O8    S    
C92   H34   S    
C56   H3    S    
C31   C35   A    
C101  O55   D    
Cr4   O30   S    
C53   C71   S    
Cr7   O43   S    
Cr3   O29   S    
C37   C64   A    
C102  O58   D    
C31   C78   S    
Cr3   O33   S    
C54   C58   A    
C74   O47   A    
C101  O57   S    
C58   C63   A    
C6    O72   S    
C82   O7    A    
C71   O44   A    
C53   C57   A    
C48   O30   A    
C27   C32   A    
C18   C22   A    
C98   O49   D    
C14   C19   A    
C20   C68   S    
C25   H25   S    
C10   H18   S    
C46   O28   A    
C84   O8    A    
C86   C89   D    
C60   C65   A    
Cr8   O18   S    
C1    O18   A    
C61   C95   A    
C50   C93   A    
C104  O62   D    
C21   C96   A    
C103  O61   S    
Cr12  O76   S    
C8    C17   S    
C76   O76   A    
H38   O63   S    
Cr6   O38   S    
C46   O24   A    
Cr8   O45   S    
Cr4   O35   S    
Cr5   O37   S    
C77   O2    A    
C97   H13   S    
C38   C43   A    
C32   C33   A    
Cr11  O75   S    
C95   H10   S    
C17   O15   A    
C65   C82   S    
Cr9   O19   S    
C88   C91   D    
Cr3   O11   S    
Cr2   O2    S    
C77   O56   A    
Cr10  O20   S    
C74   O42   A    
C40   C66   A    
H43   O74   S    
Cr11  O26   S    
Cr12  O5    S    
C51   C55   A    
H33   O54   S    
C28   O20   A    
H41   O70   S    
C93   H9    S    
C64   C81   S    
C83   H17   S    
C2    C28   S    
C61   H15   S    
C23   C24   A    
C66   C84   S    
C39   O21   A    
C43   H46   S    
C59   C64   A    
C40   C44   A    
C56   C60   A    
C96   H11   S    
C45   O22   A    
C83   C97   A    
H36   O59   S    
Cr7   O13   S    
C90   H12   S    
Cr1   O9    S    
C78   O67   A    
C15   C103  S    
C89   C90   S    
C26   H26   S    
C38   C65   A    
C6    C38   S    
C3    O64   D    
C22   C70   S    
C91   C92   S    
C52   C56   A    
C13   H21   S    
Cr9   O10   S    
C46   C86   S    
C55   H2    S    
C47   C87   S    
