data_str_m12_o9_o22_f0_bcu.sym.141
_audit_creation_date              2012-12-11T17:45:20-0500
_audit_creation_method            fapswitch 2.2
_symmetry_space_group_name_H-M    P1
_symmetry_Int_Tables_number       1
_space_group_crystal_system       triclinic
_cell_length_a                    14.944563
_cell_length_b                    14.89836
_cell_length_c                    14.905171
_cell_angle_alpha                 110.016675
_cell_angle_beta                  108.292318
_cell_angle_gamma                 109.381452
_cell_volume                      2576.78265979

loop_
_atom_site_label
_atom_site_type_symbol
_atom_type_description
_atom_site_fract_x
_atom_site_fract_y
_atom_site_fract_z
_atom_type_partial_charge
C1    C     C_R   0.970055 0.243290 0.058613 0.446572
C2    C     C_R   0.321232 0.780817 0.325074 0.027200
C3    C     C_R   0.298690 0.501175 0.926957 0.035347
C4    C     C_R   0.917821 0.501288 0.293648 0.022621
C5    C     C_R   0.686726 0.408691 0.934672 -0.150612
C6    C     C_R   0.036989 0.594859 0.779875 -0.107869
C7    C     C_R   0.792305 0.194995 0.700573 -0.127541
C8    C     C_R   0.001114 0.803719 0.096394 -0.164344
C9    C     C_R   0.091382 0.804007 0.003571 -0.131621
C10   C     C_R   0.704864 0.195989 0.796468 -0.126760
C11   C     C_R   0.778056 0.592657 0.024573 -0.084254
C12   C     C_R   0.314061 0.755316 0.223350 -0.115525
C13   C     C_R   0.948500 0.410865 0.684809 -0.131748
C14   C     C_R   0.676156 0.501187 0.950094 0.015617
C15   C     C_R   0.971868 0.505827 0.675839 0.050285
C16   C     C_R   0.702323 0.132180 0.703195 0.059039
C17   C     C_R   0.060347 0.868286 0.066034 0.059017
C18   C     C_R   0.562262 0.176025 0.129331 -0.218727
C19   C     C_R   0.647367 0.283203 0.206132 -0.233680
C20   C     C_R   0.743975 0.300536 0.282831 0.101064
C21   C     C_R   0.756130 0.209423 0.277471 -0.164332
C22   C     C_R   0.670794 0.103149 0.201424 -0.132781
C23   C     C_R   0.208143 0.409759 0.899879 -0.144731
C24   C     C_R   0.573050 0.086229 0.129210 0.534009
C25   C     C_R   0.845779 0.417993 0.480825 -0.238574
C26   C     C_R   0.933104 0.512245 0.576184 0.063824
C27   C     C_R   0.983102 0.608775 0.572193 0.013898
C28   C     C_R   0.943224 0.606509 0.473777 -0.215559
C29   C     C_R   0.883256 0.505293 0.376924 0.050989
C30   C     C_R   0.824245 0.410276 0.379513 0.053742
C31   C     C_R   0.112748 0.802449 0.725401 -0.242124
C32   C     C_R   0.218879 0.888677 0.797265 -0.089985
C33   C     C_R   0.305805 0.875914 0.792090 -0.012152
C34   C     C_R   0.986405 0.591340 0.294383 -0.133675
C35   C     C_R   0.287654 0.774582 0.719851 -0.138053
C36   C     C_R   0.182240 0.686184 0.651853 -0.132586
C37   C     C_R   0.094094 0.699691 0.654015 0.125022
C38   C     C_R   0.174215 0.977100 0.396926 -0.112591
C39   C     C_R   0.272854 0.979673 0.419011 -0.123838
C40   C     C_R   0.318200 0.953755 0.497353 0.104530
C41   C     C_R   0.267618 0.932505 0.558426 -0.175833
C42   C     C_R   0.168972 0.930997 0.536605 -0.139779
C43   C     C_R   0.121785 0.952607 0.455249 -0.117078
C44   C     C_R   0.509426 0.023105 0.603109 -0.241390
C45   C     C_R   0.298467 0.591675 0.993063 -0.158309
C46   C     C_R   0.608099 0.028649 0.616378 0.064470
C47   C     C_R   0.611506 0.944355 0.539594 0.017283
C48   C     C_R   0.515051 0.860906 0.444983 -0.238242
C49   C     C_R   0.417690 0.860770 0.428966 0.075066
C50   C     C_R   0.414889 0.941867 0.510402 0.022381
C51   C     C_R   0.747497 0.924891 0.482615 -0.168077
C52   C     C_R   0.829381 0.897237 0.491299 -0.124164
C53   C     C_R   0.872821 0.876824 0.574961 -0.100533
C54   C     C_R   0.836208 0.886563 0.651515 -0.115573
C55   C     C_R   0.756216 0.916798 0.644664 -0.124427
C56   C     C_R   0.895926 0.410426 0.204684 -0.072523
C57   C     C_R   0.710024 0.934354 0.558992 0.117580
C58   C     C_3   0.474441 0.397890 0.832528 -0.445524
C59   C     C_3   0.369672 0.399354 0.823869 -0.390193
C60   C     C_3   0.565125 0.506221 0.039817 0.061279
C61   C     C_3   0.573655 0.602608 0.926948 -0.447062
C62   C     C_3   0.574739 0.502684 0.937221 0.260076
C63   C     C_3   0.396616 0.502197 0.924508 0.290466
C64   C     C_3   0.457971 0.500601 0.028895 -0.543016
C65   C     C_3   0.471408 0.607295 0.927872 0.086371
C66   C     C_R   0.154750 0.085052 0.784970 -0.133346
C67   C     C_R   0.217835 0.742248 0.311652 -0.110340
C68   C     C_R   0.119922 0.080339 0.860756 -0.176217
C69   C     C_R   0.195050 0.137219 0.972226 0.110377
C70   C     C_R   0.305665 0.196924 0.006626 -0.168700
C71   C     C_R   0.340559 0.197973 0.929975 -0.150820
C72   C     C_R   0.265225 0.141129 0.819203 -0.126820
C73   C     C_R   0.161613 0.034500 0.064113 -0.226194
C74   C     C_R   0.095918 0.985588 0.101989 0.044118
C75   C     C_R   0.059530 0.048577 0.161580 0.000825
C76   C     C_R   0.084379 0.151321 0.171599 -0.168276
C77   C     C_R   0.107492 0.172596 0.095211 0.076709
C78   C     C_R   0.074705 0.261827 0.980227 -0.210307
C79   C     C_R   0.159029 0.120835 0.049693 0.023732
C80   C     C_R   0.868174 0.932774 0.111042 -0.051433
C81   C     C_R   0.786091 0.906850 0.139289 -0.111093
C82   C     C_R   0.811372 0.951550 0.248641 -0.124690
C83   C     C_R   0.917844 0.028778 0.330016 -0.115059
C84   C     C_R   0.999512 0.058831 0.301972 -0.163827
C85   C     C_R   0.976386 0.006949 0.192608 0.110475
C86   C     C_R   0.055724 0.227203 0.050213 -0.057245
H1    H     H_    0.065570 0.680040 0.805894 0.119676
H2    H     H_    0.819841 0.167597 0.642865 0.100535
H3    H     H_    0.980454 0.830278 0.160045 0.108896
H4    H     H_    0.151041 0.830529 0.978727 0.120105
H5    H     H_    0.653784 0.169280 0.830262 0.107368
H6    H     H_    0.799234 0.677967 0.060838 0.097695
H7    H     H_    0.899814 0.326322 0.619950 0.093740
H8    H     H_    0.486549 0.162652 0.073059 0.145982
H9    H     H_    0.635532 0.351898 0.209705 0.134430
H10   H     H_    0.379712 0.775181 0.204407 0.114107
H11   H     H_    0.829843 0.220815 0.335970 0.140998
H12   H     H_    0.678738 0.033873 0.201506 0.144952
H13   H     H_    0.800553 0.346319 0.483916 0.128423
H14   H     H_    0.982062 0.682265 0.474360 0.119784
H15   H     H_    0.045671 0.814572 0.727334 0.121995
H16   H     H_    0.234207 0.965634 0.856855 0.153734
H17   H     H_    0.387265 0.944819 0.843665 0.146634
H18   H     H_    0.355231 0.765157 0.715830 0.129573
H19   H     H_    0.168801 0.608136 0.595056 0.114629
H20   H     H_    0.044441 0.949349 0.436918 0.108553
H21   H     H_    0.178417 0.325197 0.842664 0.106270
H22   H     H_    0.138335 0.991428 0.332394 0.114366
H23   H     H_    0.311161 0.996272 0.371387 0.121856
H24   H     H_    0.302412 0.912779 0.619292 0.129228
H25   H     H_    0.128150 0.910733 0.581008 0.119765
H26   H     H_    0.505829 0.088423 0.660635 0.125859
H27   H     H_    0.515554 0.795743 0.383817 0.131789
H28   H     H_    0.711257 0.936357 0.415167 0.105200
H29   H     H_    0.857145 0.888756 0.431585 0.105874
H30   H     H_    0.934108 0.852515 0.579877 0.095266
H31   H     H_    0.868294 0.868582 0.715002 0.105278
H32   H     H_    0.008263 0.675921 0.341546 0.105714
H33   H     H_    0.726495 0.921073 0.702757 0.120362
H34   H     H_    0.468716 0.322338 0.834168 0.150719
H35   H     H_    0.480901 0.392808 0.758785 0.174158
H36   H     H_    0.323733 0.396107 0.747141 0.175537
H37   H     H_    0.316822 0.324077 0.819272 0.165081
H38   H     H_    0.564208 0.431881 0.042148 0.121217
H39   H     H_    0.407642 0.424320 0.026030 0.184214
H40   H     H_    0.645835 0.679501 0.995958 0.119999
H41   H     H_    0.580573 0.597895 0.853870 0.186749
H42   H     H_    0.353190 0.676844 0.023705 0.119947
H43   H     H_    0.501992 0.678820 0.008447 0.064540
H44   H     H_    0.472305 0.569875 0.102355 0.172799
H45   H     H_    0.292434 0.141075 0.759926 0.121798
H46   H     H_    0.096535 0.043047 0.699564 0.119153
H47   H     H_    0.034798 0.033361 0.833593 0.130625
H48   H     H_    0.364717 0.239648 0.092074 0.120229
H49   H     H_    0.426038 0.241730 0.956196 0.106211
H50   H     H_    0.201331 0.996468 0.028958 0.141021
H51   H     H_    0.061908 0.202322 0.220807 0.175142
H52   H     H_    0.831857 0.328424 0.168663 0.174787
H53   H     H_    0.847157 0.898544 0.025773 0.115289
H54   H     H_    0.702427 0.855289 0.076613 0.118866
H55   H     H_    0.747577 0.929692 0.269806 0.096328
H56   H     H_    0.936701 0.067264 0.414568 0.105811
H57   H     H_    0.080783 0.123020 0.365439 0.110516
H58   H     H_    0.193385 0.744507 0.372810 0.122316
H59   H     H_    0.138975 0.270674 0.960873 0.156112
H60   H     H_    0.624081 0.323780 0.887265 0.092653
N1    N     N_R   0.947080 0.293830 0.002870 -0.074125
N2    N     N_R   0.054040 0.556820 0.847890 -0.041285
N3    N     N_R   0.848290 0.293830 0.791110 -0.042584
N4    N     N_R   0.995680 0.706170 0.053910 -0.040573
N5    N     N_R   0.052920 0.706170 0.997130 -0.043131
N6    N     N_R   0.791050 0.293830 0.847890 -0.040503
N7    N     N_R   0.846330 0.556820 0.053910 -0.041122
N8    N     N_R   0.997640 0.443180 0.791110 -0.040954
N9    N     N_R   0.208950 0.706170 0.152110 -0.039302
N10   N     N_R   0.153670 0.443180 0.946090 -0.040120
N11   N     N_R   0.002360 0.556820 0.208890 -0.049735
N12   N     N_R   0.210070 0.556820 0.002870 -0.035431
N13   N     N_R   0.945960 0.443180 0.152110 -0.051638
N14   N     N_R   0.151710 0.706170 0.208890 -0.044061
N15   N     N_R   0.004320 0.293830 0.946090 -0.060260
N16   N     N_R   0.789930 0.443180 0.997130 -0.039404
Ni1   Ni    Ni4+2 0.869690 0.369690 0.000000 0.238231
Ni2   Ni    Ni4+2 0.130310 0.630310 0.000000 0.238465
Ni3   Ni    Ni4+2 0.000970 0.369690 0.869780 0.210894
Ni4   Ni    Ni4+2 0.999030 0.630310 0.130220 0.211866
Cl1   Cl    Cl    0.877979 0.172659 0.092592 -0.749428
Cl2   Cl    Cl    0.462515 0.952655 0.045177 -0.783098
N17   N     N_2   0.411081 0.625954 0.843967 -0.100125
H61   H     H_    0.404635 0.695790 0.873290 0.208323
C87   C     C_3   0.413663 0.595732 0.741811 -0.926376
H62   H     H_    0.340471 0.585818 0.680277 0.243951
H63   H     H_    0.413634 0.516887 0.709247 0.253082
H64   H     H_    0.486358 0.661508 0.753184 0.248561
N18   N     N_2   0.656105 0.604384 0.140531 -0.104476
H65   H     H_    0.655538 0.676983 0.154868 0.173326
C88   C     C_3   0.689695 0.593319 0.236498 -0.931567
H66   H     H_    0.761453 0.671716 0.306235 0.251754
H67   H     H_    0.713233 0.528582 0.222272 0.251840
H68   H     H_    0.623212 0.572682 0.257300 0.254320

loop_
_geom_bond_atom_site_label_1
_geom_bond_atom_site_label_2
_ccdc_geom_bond_type
C34   H32   S    
C81   H54   S    
C66   C68   A    
C87   H62   S    
C63   C65   S    
C41   C42   A    
C58   C62   S    
C22   H12   S    
N7    Ni4   S    
C73   C74   A    
C54   C55   A    
C3    C23   A    
C35   C36   A    
C42   H25   S    
C2    C12   A    
C81   C82   A    
N18   C88   S    
C20   C30   S    
C76   H51   S    
C87   H63   S    
C26   C27   A    
C80   C85   A    
C83   C84   A    
C18   C24   A    
C31   H15   S    
C28   C29   A    
C24   Cl2   S    
C56   N13   A    
C71   H49   S    
C38   C39   A    
C11   C14   A    
C40   C50   S    
C1    Cl1   S    
C45   H42   S    
N4    Ni4   S    
C1    C86   A    
C6    N2    A    
C60   C62   S    
C18   C19   A    
N17   H61   S    
C60   H38   S    
C78   H59   S    
C10   N6    A    
C6    C15   A    
C7    N3    A    
C11   H6    S    
C75   C85   S    
C66   C72   A    
C7    H2    S    
C68   C69   A    
C88   H67   S    
C36   C37   A    
N8    Ni3   S    
C67   N14   A    
C51   C57   A    
N14   Ni4   S    
C4    C29   S    
C64   H39   S    
C53   H30   S    
N12   Ni2   S    
C78   C86   A    
C59   H36   S    
C36   H19   S    
N11   N13   A    
C21   C22   A    
C4    C56   A    
N17   C87   S    
C61   C62   S    
N2    N8    A    
C82   H55   S    
C67   H58   S    
C25   H13   S    
C44   C46   A    
C66   H46   S    
C77   C79   A    
C59   H37   S    
C87   H64   S    
C4    C34   A    
C51   H28   S    
C74   C75   A    
C51   C52   A    
N2    Ni2   S    
N3    Ni3   S    
C84   C85   A    
C2    C67   A    
N1    N15   A    
N3    N6    A    
C16   C46   S    
C39   C40   A    
C15   C26   S    
C55   H33   S    
C84   H57   S    
C58   C59   S    
C53   C54   A    
C3    C45   A    
C6    H1    S    
C31   C37   A    
C65   N17   S    
C43   H20   S    
N11   Ni4   S    
C8    N4    A    
C75   C76   A    
C29   C30   A    
C2    C49   S    
C47   C57   S    
C56   H52   S    
C47   C48   A    
C73   H50   S    
C88   H68   S    
C23   H21   S    
C58   H34   S    
C73   C79   A    
C61   H41   S    
C76   C77   A    
C5    C14   A    
C61   H40   S    
C44   H26   S    
C9    C17   A    
C40   C41   A    
C64   H44   S    
C10   H5    S    
C88   H66   S    
C41   H24   S    
C55   C57   A    
C17   C74   S    
C18   H8    S    
C49   C50   A    
N13   Ni1   S    
C69   C79   S    
C42   C43   A    
C12   N9    A    
C70   C71   A    
C19   H9    S    
C52   C53   A    
C72   H45   S    
N16   Ni1   S    
C52   H29   S    
C44   C50   A    
C25   C30   A    
C46   C47   A    
C68   H47   S    
C58   H35   S    
C5    H60   S    
N9    N14   A    
C33   H17   S    
C31   C32   A    
C7    C16   A    
C45   N12   A    
C80   C81   A    
C9    H4    S    
C77   C86   S    
C83   H56   S    
C65   H43   S    
C32   H16   S    
C3    C63   S    
N9    Ni2   S    
C35   H18   S    
C80   H53   S    
C59   C63   S    
C8    C17   A    
N7    N16   A    
C60   C64   S    
C32   C33   A    
C19   C20   A    
C13   C15   A    
C25   C26   A    
C38   C43   A    
N18   H65   S    
N1    Ni1   S    
C5    N16   A    
C28   H14   S    
N10   Ni3   S    
C27   C37   S    
C48   C49   A    
N10   N12   A    
C33   C35   A    
C22   C24   A    
C38   H22   S    
C69   C70   A    
C13   N8    A    
N6    Ni1   S    
C1    N1    A    
C21   H11   S    
C11   N7    A    
C63   C64   S    
C34   N11   A    
C61   C65   S    
C39   H23   S    
C71   C72   A    
C20   C21   A    
C78   N15   A    
C9    N5    A    
N5    Ni2   S    
C54   H31   S    
C13   H7    S    
C27   C28   A    
C70   H48   S    
C60   N18   S    
N4    N5    A    
C12   H10   S    
C10   C16   A    
C8    H3    S    
C82   C83   A    
C23   N10   A    
N15   Ni3   S    
C48   H27   S    
C14   C62   S    
