data_str_m2_o10_o29_f0_pcu.sym.3
_audit_creation_date              2012-10-26T20:17:38-0400
_audit_creation_method            fapswitch 2.2
_symmetry_space_group_name_H-M    P1
_symmetry_Int_Tables_number       1
_space_group_crystal_system       triclinic
_cell_length_a                    27.796648
_cell_length_b                    8.673676
_cell_length_c                    7.429269
_cell_angle_alpha                 103.009508
_cell_angle_beta                  93.967797
_cell_angle_gamma                 92.425799
_cell_volume                      1737.94022336

loop_
_atom_site_label
_atom_site_type_symbol
_atom_type_description
_atom_site_fract_x
_atom_site_fract_y
_atom_site_fract_z
_atom_type_partial_charge
C1    C     C_R   0.498548 0.199623 0.453164 0.546708
C2    C     C_R   0.869921 0.353061 0.474719 0.024611
C3    C     C_R   0.354347 0.497311 0.510524 0.043062
C4    C     C_R   0.645448 0.499551 0.491841 0.049045
C5    C     C_R   0.972183 0.349722 0.493738 0.018796
C6    C     C_R   0.028944 0.642760 0.582161 0.018578
C7    C     C_R   0.977666 0.643065 0.571926 0.019218
C8    C     C_R   0.023452 0.349412 0.502227 0.019158
C9    C     C_R   0.949628 0.496548 0.527779 0.034858
C10   C     C_R   0.051479 0.495947 0.545324 0.034885
C11   C     C_R   0.942330 0.207678 0.450679 -0.146354
C12   C     C_R   0.501464 0.800378 0.546834 0.550173
C13   C     C_R   0.058811 0.784798 0.627608 -0.146560
C14   C     C_R   0.892353 0.209733 0.441825 -0.112195
C15   C     C_R   0.108758 0.782791 0.631983 -0.112260
C16   C     C_R   0.407388 0.498999 0.502681 0.574913
C17   C     C_R   0.592524 0.500685 0.497177 0.579142
C18   C     C_R   0.047982 0.207034 0.468183 -0.146132
C19   C     C_R   0.953131 0.785433 0.602906 -0.145622
C20   C     C_2   0.497856 0.031699 0.426741 -0.137832
C21   C     C_2   0.502173 0.968303 0.573253 -0.139939
C22   C     C_R   0.176243 0.354044 0.512563 0.400255
C23   C     C_R   0.102730 0.495678 0.550451 -0.026921
C24   C     C_R   0.824636 0.638558 0.538368 0.401771
C25   C     C_R   0.181552 0.636638 0.591121 0.404678
C26   C     C_R   0.819395 0.355971 0.466364 0.403906
C27   C     C_R   0.285438 0.531427 0.697730 -0.069682
C28   C     C_R   0.723073 0.463329 0.643180 -0.072773
C29   C     C_R   0.335157 0.532176 0.684721 -0.182890
C30   C     C_R   0.673071 0.464542 0.641854 -0.186972
C31   C     C_R   0.322512 0.460474 0.347396 0.230617
C32   C     C_R   0.668861 0.534142 0.341214 0.227220
C33   C     C_R   0.272409 0.459805 0.363106 -0.046088
C34   C     C_R   0.898334 0.496854 0.517154 -0.026897
C35   C     C_R   0.719530 0.532799 0.344729 -0.044245
C36   C     C_R   0.254045 0.495118 0.537154 0.211271
C37   C     C_R   0.746386 0.497573 0.495099 0.212150
C38   C     C_R   0.125731 0.351606 0.512333 0.023709
C39   C     C_R   0.875279 0.640937 0.548907 0.024311
C40   C     C_R   0.097989 0.208526 0.472935 -0.116680
C41   C     C_R   0.903073 0.783977 0.591459 -0.116219
C42   C     C_R   0.131134 0.639496 0.592227 0.024601
Cu1   Cu    Cu3+1 0.505380 0.517380 0.684380 0.987081
Cu2   Cu    Cu3+1 0.494620 0.482620 0.315620 1.038077
H1    H     H_    0.462194 0.378184 0.948467 0.248696
H2    H     H_    0.271245 0.558883 0.832696 0.140014
H3    H     H_    0.871284 0.097558 0.408255 0.173624
H4    H     H_    0.129827 0.894984 0.666097 0.173068
H5    H     H_    0.956126 0.091508 0.422080 0.105744
H6    H     H_    0.045041 0.900914 0.661019 0.106835
H7    H     H_    0.029849 0.091024 0.435938 0.104317
H8    H     H_    0.971301 0.901386 0.635943 0.103443
H9    H     H_    0.493790 0.959927 0.285616 0.139527
H10   H     H_    0.506241 0.040075 0.714377 0.138733
H11   H     H_    0.313523 0.401662 0.077546 0.318586
H12   H     H_    0.537782 0.621892 0.051548 0.264041
H13   H     H_    0.664125 0.594081 0.103562 0.318829
H14   H     H_    0.247446 0.432244 0.240066 0.116783
H15   H     H_    0.738249 0.559385 0.231176 0.116205
H16   H     H_    0.114834 0.096117 0.444081 0.165518
H17   H     H_    0.886210 0.896377 0.616788 0.163644
H18   H     H_    0.655944 0.436814 0.758238 0.151262
H19   H     H_    0.358606 0.560787 0.811774 0.165180
H20   H     H_    0.743835 0.436231 0.759815 0.141447
N1    N     N_R   0.202893 0.495253 0.549731 -0.399768
N2    N     N_R   0.797928 0.497380 0.498446 -0.399564
N3    N     N_2   0.486510 0.456430 0.038510 -0.251544
N4    N     N_2   0.513490 0.543570 0.961490 -0.249018
O1    O     O_R   0.503500 0.286120 0.619780 -0.511040
O2    O     O_2   0.802228 0.776041 0.569453 -0.471567
O3    O     O_2   0.791879 0.218744 0.426247 -0.466313
O4    O     O_2   0.209012 0.773895 0.628293 -0.466087
O5    O     O_3   0.340688 0.424481 0.175323 -0.680086
O6    O     O_3   0.642043 0.571763 0.195088 -0.688994
O7    O     O_R   0.496500 0.713880 0.380220 -0.510979
O8    O     O_R   0.494410 0.256780 0.308360 -0.499538
O9    O     O_R   0.505590 0.743220 0.691640 -0.498852
O10   O     O_R   0.434810 0.514700 0.655690 -0.527654
O11   O     O_R   0.565190 0.485300 0.344310 -0.447450
O12   O     O_R   0.425720 0.485350 0.344280 -0.432187
O13   O     O_R   0.574280 0.514650 0.655720 -0.510732
O14   O     O_2   0.198597 0.216588 0.475234 -0.470656

loop_
_geom_bond_atom_site_label_1
_geom_bond_atom_site_label_2
_ccdc_geom_bond_type
C29   H19   S    
C33   H14   S    
C40   H16   S    
C27   C29   A    
C41   H17   S    
C33   C36   A    
C24   O2    S    
C39   C41   A    
Cu1   O10   S    
C23   C42   A    
C22   O14   S    
C35   C37   A    
C5    C11   A    
C30   H18   S    
C32   O6    S    
C21   H10   S    
C11   C14   A    
C31   O5    S    
C22   C38   A    
C17   O11   A    
C24   C39   A    
C35   H15   S    
C3    C29   A    
C18   C40   A    
C19   H8    S    
Cu1   N4    S    
H1    N3    S    
C31   C33   A    
C16   O10   A    
C24   N2    A    
C2    C34   A    
Cu1   O1    S    
C37   N2    S    
C26   O3    S    
C15   H4    S    
C18   H7    S    
N3    N4    D    
C26   N2    A    
C32   C35   A    
Cu2   O12   S    
C25   N1    A    
C36   N1    S    
H12   N4    S    
C12   C21   S    
C1    O1    A    
C34   C39   A    
C16   O12   A    
H13   O6    S    
Cu2   O7    S    
Cu1   Cu2   S    
C22   N1    A    
C5    C9    A    
C11   H5    S    
C12   O9    A    
C2    C26   A    
C25   O4    S    
C4    C32   A    
C3    C31   A    
C14   H3    S    
C4    C17   S    
C28   H20   S    
C27   H2    S    
C7    C19   A    
C13   C15   A    
C9    C34   A    
Cu1   O13   S    
C7    C9    A    
C1    C20   S    
C1    O8    A    
Cu2   O11   S    
C15   C42   A    
C20   H9    S    
C25   C42   A    
C6    C10   A    
C5    C8    A    
C6    C7    A    
C10   C23   A    
Cu1   O9    S    
C23   C38   A    
C27   C36   A    
C28   C30   A    
C6    C13   A    
C38   C40   A    
C28   C37   A    
C17   O13   A    
C2    C14   A    
C8    C18   A    
C13   H6    S    
H11   O5    S    
C20   C21   D    
C8    C10   A    
C12   O7    A    
Cu2   N3    S    
Cu2   O8    S    
C4    C30   A    
C3    C16   S    
C19   C41   A    
