data_str_m2_o16_o22_f0_pcu.sym.63
_audit_creation_date              2012-12-10T17:35:38-0500
_audit_creation_method            fapswitch 2.2
_symmetry_space_group_name_H-M    P1
_symmetry_Int_Tables_number       1
_space_group_crystal_system       triclinic
_cell_length_a                    10.722854
_cell_length_b                    12.323758
_cell_length_c                    13.184735
_cell_angle_alpha                 116.684551
_cell_angle_beta                  77.184157
_cell_angle_gamma                 101.185113
_cell_volume                      1509.02749002

loop_
_atom_site_label
_atom_site_type_symbol
_atom_type_description
_atom_site_fract_x
_atom_site_fract_y
_atom_site_fract_z
_atom_type_partial_charge
C1    C     C_R   0.516752 0.854850 0.286084 0.806394
C2    C     C_R   0.516552 0.565395 0.009295 0.084523
C3    C     C_R   0.471455 0.653531 0.119860 0.013926
C4    C     C_R   0.740110 0.998922 0.498328 0.735811
C5    C     C_R   0.461887 0.441557 0.974726 0.094108
C6    C     C_R   0.359068 0.408965 0.048024 0.166724
C7    C     C_R   0.307724 0.499237 0.151274 -0.241655
C8    C     C_R   0.361276 0.619923 0.185670 -0.183343
C9    C     C_R   0.505975 0.348735 0.868946 -0.262842
C10   C     C_R   0.351127 0.196542 0.908884 -0.207235
C11   C     C_R   0.537781 0.773087 0.162325 -0.199065
C12   C     C_3   0.122892 0.001120 0.500153 0.115155
C13   C     C_R   0.704395 0.345264 0.326753 -0.322057
C14   C     C_R   0.325499 0.760249 0.646190 0.073231
C15   C     C_R   0.287137 0.663797 0.677975 -0.261492
C16   C     C_R   0.478708 0.145061 0.713402 0.779918
C17   C     C_R   0.352115 0.559714 0.622547 -0.192849
C18   C     C_R   0.456915 0.550843 0.534015 -0.005387
C19   C     C_R   0.492664 0.652268 0.504458 0.291138
C20   C     C_R   0.527969 0.446039 0.474157 -0.035272
C21   C     C_R   0.631463 0.444712 0.385716 0.184662
C22   C     C_R   0.662662 0.543051 0.357015 -0.298550
C23   C     C_3   0.045391 0.021449 0.620385 -0.392398
C24   C     C_R   0.596642 0.645311 0.416295 -0.188517
C25   C     C_R   0.501588 0.341637 0.497540 0.016340
C26   C     C_R   0.674898 0.246839 0.355347 0.063906
C27   C     C_R   0.260372 0.000805 0.500491 0.758126
C28   C     C_3   0.961246 0.101481 0.465274 -0.363444
C29   C     C_3   0.103781 0.102429 0.467055 -0.381839
C30   C     C_3   0.900934 0.026371 0.622472 -0.062381
C31   C     C_3   0.926408 0.872833 0.411016 -0.100489
C32   C     C_3   0.878819 0.000425 0.498965 0.098351
C33   C     C_3   0.742622 0.981395 0.059067 0.053569
C34   C     C_3   0.072120 0.876873 0.410198 -0.396360
C35   C     C_3   0.889232 0.991857 0.025712 -0.352311
C36   C     C_3   0.932780 0.048538 0.940093 -0.958769
C37   C     C_3   0.842361 0.141868 0.723589 -0.364160
C38   C     C_3   0.932227 0.262798 0.763035 -0.333394
C39   C     C_3   0.857572 0.373891 0.815450 -0.892571
C40   C     C_3   0.895918 0.826979 0.287321 -0.367534
C41   C     C_3   0.940624 0.700087 0.206715 -0.377617
C42   C     C_3   0.866814 0.633483 0.105282 -0.837575
C43   C     C_R   0.306261 0.286549 0.015521 -0.201468
C44   C     C_R   0.449021 0.228637 0.834338 -0.045686
C45   C     C_R   0.636436 0.809760 0.089100 0.460325
C46   C     C_R   0.673309 0.723340 0.977001 -0.261859
C47   C     C_R   0.615487 0.604164 0.938112 -0.255873
Cu1   Cu    Cu3+1 0.529690 0.098270 0.475420 0.937767
Cu2   Cu    Cu3+1 0.470310 0.901730 0.524580 0.909446
H1    H     H_    0.929377 0.192727 0.524401 0.187778
H2    H     H_    0.752331 0.745672 0.920111 0.144268
H3    H     H_    0.948378 0.086823 0.378542 0.158663
H4    H     H_    0.313933 0.686618 0.264115 0.160101
H5    H     H_    0.731549 0.170342 0.311418 0.149012
H6    H     H_    0.739661 0.540813 0.287919 0.160709
H7    H     H_    0.784253 0.344090 0.259542 0.133804
H8    H     H_    0.423866 0.333974 0.562365 0.120224
H9    H     H_    0.274534 0.840663 0.689747 0.120325
H10   H     H_    0.318373 0.487848 0.650589 0.131633
H11   H     H_    0.206767 0.669749 0.745841 0.140225
H12   H     H_    0.087541 0.800754 0.428134 0.156687
H13   H     H_    0.631008 0.717244 0.390225 0.206298
H14   H     H_    0.158723 0.087081 0.380323 0.172648
H15   H     H_    0.142099 0.193720 0.527954 0.160046
H16   H     H_    0.089594 0.104055 0.686984 0.155192
H17   H     H_    0.874571 0.804055 0.443170 0.148135
H18   H     H_    0.129340 0.863545 0.324827 0.154379
H19   H     H_    0.712725 0.075083 0.105668 0.156703
H20   H     H_    0.693582 0.937170 0.981637 0.130153
H21   H     H_    0.934180 0.049465 0.104223 0.211163
H22   H     H_    0.923312 0.900042 0.987144 0.211807
H23   H     H_    0.847071 0.947792 0.639574 0.124291
H24   H     H_    0.893253 0.989326 0.859103 0.254045
H25   H     H_    0.039433 0.057449 0.919990 0.251894
H26   H     H_    0.900085 0.140762 0.976776 0.256938
H27   H     H_    0.809037 0.374716 0.749700 0.251500
H28   H     H_    0.785130 0.372557 0.889679 0.266339
H29   H     H_    0.925112 0.458554 0.845046 0.244942
H30   H     H_    0.985352 0.267701 0.828719 0.210898
H31   H     H_    0.004044 0.269763 0.691503 0.221969
H32   H     H_    0.754670 0.156723 0.702237 0.199671
H33   H     H_    0.807237 0.121419 0.799696 0.178519
H34   H     H_    0.053683 0.944584 0.640309 0.150016
H35   H     H_    0.761864 0.622652 0.135518 0.260616
H36   H     H_    0.885923 0.684706 0.051432 0.263145
H37   H     H_    0.899157 0.541359 0.052576 0.242063
H38   H     H_    0.044541 0.709713 0.172327 0.216828
H39   H     H_    0.928723 0.642919 0.254155 0.210899
H40   H     H_    0.790552 0.822050 0.291488 0.199769
H41   H     H_    0.943055 0.891541 0.249211 0.204520
H42   H     H_    0.304823 0.103777 0.882312 0.139668
H43   H     H_    0.225440 0.476577 0.205718 0.137851
H44   H     H_    0.227674 0.261153 0.071107 0.133421
H45   H     H_    0.582269 0.367094 0.808843 0.148201
H46   H     H_    0.652057 0.545184 0.851356 0.154332
N1    N     N_R   0.574690 0.246280 0.438200 -0.178875
N2    N     N_R   0.426100 0.754320 0.561190 -0.204521
O1    O     O_R   0.537340 0.972510 0.318130 -0.529362
O2    O     O_R   0.487200 0.806530 0.359650 -0.607001
O3    O     O_R   0.707380 0.082980 0.479220 -0.579856
O4    O     O_R   0.657240 0.917000 0.520740 -0.611562
O5    O     O_R   0.512800 0.193470 0.640350 -0.586452
O6    O     O_R   0.462660 0.027490 0.681870 -0.584768
O7    O     O_R   0.342760 0.083000 0.479260 -0.592722
O8    O     O_R   0.292620 0.917020 0.520780 -0.597211
O9    O     O_3   0.706696 0.924169 0.135164 -0.619387

loop_
_geom_bond_atom_site_label_1
_geom_bond_atom_site_label_2
_ccdc_geom_bond_type
C31   H17   S    
C29   H14   S    
C12   C29   S    
C15   H11   S    
C35   C36   S    
C1    C11   S    
C1    O2    A    
C19   N2    A    
C7    C8    A    
C45   C46   A    
C12   C23   S    
C23   H34   S    
C39   H28   S    
C28   C29   S    
Cu2   O4    S    
C38   C39   S    
C20   C25   A    
C27   O8    A    
Cu1   O7    S    
C27   O7    A    
C41   H38   S    
C31   C40   S    
C18   C19   A    
C41   C42   S    
C43   H44   S    
C28   H1    S    
C35   H21   S    
C42   H37   S    
C40   H40   S    
C16   C44   S    
C33   H20   S    
C13   H7    S    
C29   H15   S    
C35   H22   S    
C21   C22   A    
C37   H32   S    
C25   H8    S    
C14   H9    S    
C26   H5    S    
C6    C7    A    
C26   N1    A    
Cu1   O3    S    
C12   C27   S    
C10   C44   A    
C23   C30   S    
C28   C32   S    
C42   H35   S    
C3    C8    A    
Cu2   O8    S    
C46   H2    S    
C34   H12   S    
C30   C37   S    
C34   H18   S    
C39   H29   S    
C5    C9    A    
C37   C38   S    
C36   H26   S    
Cu2   O2    S    
C16   O6    A    
C31   C32   S    
Cu1   O5    S    
C4    O4    A    
C17   C18   A    
C31   C34   S    
C13   C21   A    
C42   H36   S    
C39   H27   S    
C4    C32   S    
C36   H25   S    
C17   H10   S    
C16   O5    A    
C40   C41   S    
C10   H42   S    
C6    C43   A    
C4    O3    A    
C22   C24   A    
C13   C26   A    
C11   C45   A    
C2    C5    A    
C12   C34   S    
C45   O9    S    
C14   N2    A    
C15   C17   A    
C41   H39   S    
C46   C47   A    
Cu1   Cu2   S    
C9    C44   A    
C24   H13   S    
Cu1   N1    S    
C10   C43   A    
C33   O9    S    
C8    H4    S    
Cu2   O6    S    
C30   H23   S    
C22   H6    S    
C2    C47   A    
Cu1   O1    S    
C23   H16   S    
C2    C3    A    
C1    O1    A    
C30   C32   S    
C28   H3    S    
C5    C6    A    
C38   H31   S    
C7    H43   S    
C33   C35   S    
C19   C24   A    
C18   C20   A    
C37   H33   S    
C3    C11   A    
C36   H24   S    
Cu2   N2    S    
C20   C21   A    
C25   N1    A    
C38   H30   S    
C47   H46   S    
C14   C15   A    
C40   H41   S    
C9    H45   S    
C33   H19   S    
