data_str_m3_o4_o9_f0_pcu.sym.120
_audit_creation_date              2012-12-10T20:45:28-0500
_audit_creation_method            fapswitch 2.2
_symmetry_space_group_name_H-M    P1
_symmetry_Int_Tables_number       1
_space_group_crystal_system       triclinic
_cell_length_a                    10.790516
_cell_length_b                    10.714787
_cell_length_c                    9.877939
_cell_angle_alpha                 90.535928
_cell_angle_beta                  90.192911
_cell_angle_gamma                 91.270395
_cell_volume                      1141.73037932

loop_
_atom_site_label
_atom_site_type_symbol
_atom_type_description
_atom_site_fract_x
_atom_site_fract_y
_atom_site_fract_z
_atom_type_partial_charge
C1    C     C_R   0.502518 0.259846 0.498911 0.879798
C2    C     C_R   0.232471 0.728882 0.043172 -0.060932
C3    C     C_R   0.935638 0.532170 0.384249 -0.235683
C4    C     C_R   0.873610 0.502063 0.503931 -0.083251
C5    C     C_R   0.940680 0.481623 0.624524 0.006504
C6    C     C_R   0.067514 0.479612 0.618466 -0.252622
C7    C     C_R   0.128644 0.510918 0.499148 -0.086334
C8    C     C_R   0.062805 0.546101 0.382796 -0.007294
C9    C     C_R   0.887574 0.588206 0.839255 -0.169659
C10   C     C_R   0.841530 0.588416 0.971875 0.020591
C11   C     C_R   0.793548 0.476111 0.025112 -0.223715
C12   C     C_R   0.260524 0.504542 0.499588 0.872221
C13   C     C_R   0.791899 0.366318 0.947258 -0.169092
C14   C     C_R   0.838592 0.366952 0.815591 -0.099001
C15   C     C_R   0.886114 0.478236 0.761187 0.107070
C16   C     C_R   0.552032 0.067189 0.612823 0.096920
C17   C     C_R   0.522854 0.128874 0.494834 -0.101786
C18   C     C_R   0.523484 0.063330 0.371405 -0.215772
C19   C     C_R   0.528040 0.934317 0.372718 -0.216634
C20   C     C_R   0.533448 0.871889 0.497416 -0.124236
C21   C     C_R   0.564175 0.940285 0.614509 0.126836
C22   C     C_3   0.517436 0.933966 0.757648 -0.231794
C23   C     C_R   0.507961 0.740152 0.500212 0.879756
C24   C     C_3   0.493130 0.072348 0.748176 -0.528254
C25   C     C_R   0.471949 0.393061 0.070745 0.200886
C26   C     C_R   0.528133 0.605166 0.072649 -0.077296
C27   C     C_R   0.530192 0.604188 0.929242 -0.120233
C28   C     C_R   0.468944 0.393895 0.927769 0.230638
C29   C     C_3   0.344309 0.329878 0.927066 -0.515813
C30   C     C_3   0.351914 0.323122 0.079585 -0.490171
C31   C     C_R   0.740349 0.499953 0.500984 0.884463
C32   C     C_R   0.244763 0.780719 0.172889 -0.113516
C33   C     C_R   0.189451 0.721175 0.283371 -0.085643
C34   C     C_R   0.121769 0.608530 0.264859 0.148613
C35   C     C_R   0.108970 0.557690 0.133949 -0.195001
C36   C     C_R   0.164528 0.617672 0.023739 -0.112073
H1    H     H_    0.275404 0.774968 0.957700 0.123334
H2    H     H_    0.756985 0.472710 0.126608 0.188133
H3    H     H_    0.754419 0.280559 0.989266 0.150601
H4    H     H_    0.510767 0.109738 0.275575 0.181100
H5    H     H_    0.516662 0.884374 0.277573 0.190008
H6    H     H_    0.392543 0.090105 0.738631 0.190470
H7    H     H_    0.545914 0.133852 0.820394 0.216154
H8    H     H_    0.548479 0.691126 0.126801 0.196274
H9    H     H_    0.296803 0.867266 0.187742 0.131938
H10   H     H_    0.279358 0.376179 0.132644 0.228363
H11   H     H_    0.199494 0.762575 0.383381 0.103765
H12   H     H_    0.057154 0.471151 0.117517 0.138088
H13   H     H_    0.154352 0.578441 0.923031 0.123903
H14   H     H_    0.885057 0.552880 0.293752 0.200435
H15   H     H_    0.118480 0.457474 0.709615 0.156253
H16   H     H_    0.925575 0.673455 0.796197 0.184588
N1    N     N_R   0.499160 0.499140 0.142800 -0.116880
N2    N     N_R   0.499160 0.499180 0.857150 -0.112198
O1    O     O_R   0.500020 0.316790 0.614690 -0.615310
O2    O     O_R   0.500000 0.316760 0.385350 -0.628790
O3    O     O_R   0.316770 0.500030 0.614670 -0.629810
O4    O     O_R   0.316750 0.499990 0.385330 -0.614184
O5    O     O_R   0.500000 0.683240 0.614650 -0.634046
O6    O     O_R   0.499980 0.683210 0.385310 -0.618692
O7    O     O_R   0.683250 0.500010 0.614670 -0.604994
O8    O     O_R   0.683230 0.499970 0.385330 -0.611450
Zn1   Zn    Zn3+2 0.500010 0.500020 0.653130 0.956252
Zn2   Zn    Zn3+2 0.499990 0.499980 0.346870 0.960965
H17   H     H_    0.837694 0.281428 0.756240 0.133074
H18   H     H_    0.432203 0.875145 0.770744 0.131976
C37   C     C_2   0.617853 0.911595 0.860551 0.921402
O9    O     O_2   0.719580 0.875419 0.825130 -0.611461
O10   O     O_R   0.593271 0.933609 0.997384 -0.847740
H19   H     H_    0.667874 0.919489 0.057306 0.349351
H20   H     H_    0.554429 0.687133 0.875520 0.160216
H21   H     H_    0.269797 0.390982 0.890433 0.203966
H22   H     H_    0.343666 0.236755 0.879287 0.205129
H23   H     H_    0.364121 0.226739 0.117273 0.200457
C38   C     C_2   0.846274 0.705068 0.054388 0.893943
O11   O     O_2   0.909869 0.794370 0.017762 -0.598495
O12   O     O_R   0.778819 0.713597 0.174460 -0.853692
H24   H     H_    0.791989 0.796718 0.222840 0.339111

loop_
_geom_bond_atom_site_label_1
_geom_bond_atom_site_label_2
_ccdc_geom_bond_type
C16   C21   A    
C24   H6    S    
C32   H9    S    
C31   O7    A    
C35   C36   A    
C27   N2    A    
C26   H8    S    
C7    C8    A    
O12   H24   S    
C25   C28   A    
C23   O5    A    
C26   C27   A    
C28   C29   S    
C1    O2    A    
C25   N1    A    
C18   C19   A    
C5    C6    A    
C30   H23   S    
N1    Zn2   S    
C29   H22   S    
N2    Zn1   S    
C2    C32   A    
C34   C35   A    
O7    Zn1   S    
C18   H4    S    
C22   H18   S    
O8    Zn2   S    
C19   C20   A    
C16   C17   A    
O1    Zn1   S    
O2    Zn2   S    
C6    H15   S    
C9    C10   A    
C29   H21   S    
C12   O4    A    
C16   C24   S    
C13   C14   A    
C31   O8    A    
C7    C12   S    
C9    H16   S    
C35   H12   S    
C3    H14   S    
O3    Zn1   S    
O4    Zn2   S    
C23   O6    A    
C13   H3    S    
C37   O9    D    
C3    C8    A    
C28   N2    A    
C37   O10   S    
C11   H2    S    
C38   O11   D    
C29   C30   S    
C10   C38   S    
C20   C23   S    
C17   C18   A    
C8    C34   S    
C38   O12   S    
C12   O3    A    
C33   H11   S    
C22   C24   S    
C3    C4    A    
C26   N1    A    
C27   H20   S    
C2    C36   A    
C25   C30   S    
C1    C17   S    
C30   H10   S    
C4    C5    A    
C6    C7    A    
O5    Zn1   S    
O6    Zn2   S    
C32   C33   A    
C1    O1    A    
C11   C13   A    
C2    H1    S    
C14   H17   S    
C33   C34   A    
C9    C15   A    
O10   H19   S    
C22   C37   S    
C5    C15   S    
C4    C31   S    
C10   C11   A    
C20   C21   A    
C24   H7    S    
C14   C15   A    
C21   C22   S    
C36   H13   S    
C19   H5    S    
