data_str_m4_o1_o22_f0_acs.sym.63
_audit_creation_date              2012-12-11T14:50:50-0500
_audit_creation_method            fapswitch 2.2
_symmetry_space_group_name_H-M    P1
_symmetry_Int_Tables_number       1
_space_group_crystal_system       triclinic
_cell_length_a                    10.925813
_cell_length_b                    10.933227
_cell_length_c                    18.784233
_cell_angle_alpha                 90.053118
_cell_angle_beta                  89.786134
_cell_angle_gamma                 60.136878
_cell_volume                      1945.89015347

loop_
_atom_site_label
_atom_site_type_symbol
_atom_type_description
_atom_site_fract_x
_atom_site_fract_y
_atom_site_fract_z
_atom_type_partial_charge
C1    C     C_R   0.237352 0.645363 0.609631 0.544353
C2    C     C_R   0.589808 0.122120 0.779942 -0.071994
C3    C     C_R   0.583919 0.130431 0.707633 -0.125546
C4    C     C_R   0.649992 0.618165 0.602777 0.544460
C5    C     C_R   0.676236 0.160428 0.671072 0.023575
C6    C     C_R   0.245027 0.536812 0.726077 -0.060101
C7    C     C_R   0.231454 0.548381 0.800227 0.030526
C8    C     C_R   0.163853 0.683559 0.831163 0.070454
C9    C     C_R   0.116881 0.803631 0.788065 -0.053843
C10   C     C_R   0.130088 0.791426 0.715183 -0.112893
C11   C     C_R   0.194278 0.658442 0.683646 0.004275
C12   C     C_3   0.696724 0.527995 0.801081 -0.121505
C13   C     C_R   0.736457 0.515290 0.270924 -0.145818
C14   C     C_R   0.747329 0.533154 0.199466 -0.144605
C15   C     C_R   0.649506 0.658239 0.165296 0.035697
C16   C     C_R   0.630553 0.224963 0.601602 0.544067
C17   C     C_R   0.529989 0.758446 0.203146 0.360038
C18   C     C_R   0.515054 0.735856 0.275326 -0.100699
C19   C     C_R   0.621865 0.616110 0.310012 -0.039985
C20   C     C_R   0.559916 0.135066 0.290663 -0.155623
C21   C     C_R   0.558815 0.126851 0.217726 -0.186825
C22   C     C_R   0.650282 0.154151 0.176791 0.036624
C23   C     C_3   0.700605 0.666928 0.812941 0.055679
C24   C     C_R   0.740788 0.192716 0.209583 0.328790
C25   C     C_R   0.741405 0.200747 0.282784 -0.114141
C26   C     C_R   0.648836 0.175575 0.323421 -0.008568
C27   C     C_R   0.061028 0.822004 0.309740 0.008312
C28   C     C_R   0.216716 0.651764 0.402614 0.571191
C29   C     C_R   0.026872 0.839278 0.237899 -0.148707
C30   C     C_R   0.051037 0.724134 0.195531 0.012089
C31   C     C_R   0.099586 0.591614 0.226617 -0.133869
C32   C     C_R   0.140329 0.571399 0.297600 -0.150891
C33   C     C_R   0.130119 0.684114 0.338390 0.042330
C34   C     C_3   0.663660 0.643336 0.677953 -0.024982
C35   C     C_R   0.704375 0.096105 0.894143 0.549477
C36   C     C_R   0.723623 0.686763 0.888495 0.582599
C37   C     C_R   0.115930 0.708440 0.904909 0.562464
C38   C     C_R   0.674325 0.106912 0.104038 0.564963
C39   C     C_R   0.693921 0.688128 0.096764 0.560712
C40   C     C_R   0.615940 0.590147 0.385960 0.558219
C41   C     C_R   0.027217 0.746117 0.119091 0.550121
C42   C     C_R   0.618159 0.227864 0.395346 0.573983
C43   C     C_3   0.559966 0.795281 0.785939 -0.211939
C44   C     C_3   0.529779 0.771722 0.709074 -0.246762
C45   C     C_3   0.787962 0.670967 0.687011 -0.162312
C46   C     C_3   0.827327 0.657509 0.766598 0.307413
C47   C     C_2   0.965132 0.520678 0.779546 0.274885
C48   C     C_2   0.287934 0.420276 0.844688 0.216695
C49   C     C_2   0.028240 0.949535 0.351626 0.241414
C50   C     C_2   0.584330 0.518400 0.843513 0.190384
C51   C     C_3   0.686079 0.509982 0.720180 -0.210019
C52   C     C_R   0.788534 0.161335 0.707453 -0.139871
C53   C     C_R   0.798030 0.146530 0.781597 -0.146809
C54   C     C_R   0.695459 0.130439 0.818480 0.045672
Cr1   Cr    Cr6+3 0.392930 0.397900 0.502230 1.032168
Cr2   Cr    Cr6+3 0.398240 0.708600 0.501260 1.045788
Cr3   Cr    Cr6+3 0.708800 0.393470 0.496460 1.048399
Cr4   Cr    Cr6+3 0.937620 0.938540 0.007640 1.096156
Cr5   Cr    Cr6+3 0.625150 0.937450 0.994520 1.089221
Cr6   Cr    Cr6+3 0.937990 0.625080 0.001190 1.042369
F1    F     F_    0.431789 0.879330 0.171701 -0.627435
F2    F     F_    0.832299 0.216663 0.171214 -0.650887
F3    F     F_    0.849165 0.768399 0.784343 -0.678925
H1    H     H_    0.571893 0.889292 0.786975 0.153998
H2    H     H_    0.468385 0.819054 0.820789 0.185044
H3    H     H_    0.093357 0.886083 0.683541 0.137233
H4    H     H_    0.822029 0.423987 0.295924 0.156499
H5    H     H_    0.840801 0.452409 0.172700 0.210607
H6    H     H_    0.423399 0.813872 0.304396 0.153646
H7    H     H_    0.486893 0.115634 0.321122 0.159970
H8    H     H_    0.490229 0.093335 0.193836 0.209466
H9    H     H_    0.811279 0.230641 0.307711 0.136030
H10   H     H_    0.439085 0.752119 0.708195 0.181570
H11   H     H_    0.984025 0.942686 0.214298 0.166673
H12   H     H_    0.785966 0.417073 0.702081 0.161661
H13   H     H_    0.115142 0.501806 0.195218 0.148827
H14   H     H_    0.190041 0.465248 0.318689 0.143617
H15   H     H_    0.499672 0.868448 0.677249 0.126019
H16   H     H_    0.755192 0.779708 0.668390 0.144561
H17   H     H_    0.797396 0.436817 0.819706 0.097688
H18   H     H_    0.599423 0.487377 0.708171 0.143961
H19   H     H_    0.016780 0.503753 0.830100 0.189427
H20   H     H_    0.324916 0.420424 0.898208 0.128675
H21   H     H_    0.035077 0.035308 0.326610 0.104970
H22   H     H_    0.614502 0.434976 0.882418 0.112612
H23   H     H_    0.878874 0.601292 0.652133 0.167590
H24   H     H_    0.863879 0.180500 0.679246 0.138033
H25   H     H_    0.882531 0.150002 0.809716 0.118573
H26   H     H_    0.510169 0.106634 0.805432 0.188195
H27   H     H_    0.498448 0.125303 0.681301 0.143861
H28   H     H_    0.300961 0.432947 0.701919 0.176057
H29   H     H_    0.064709 0.908685 0.810539 0.141652
O1    O     O_R   0.507430 0.255570 0.581420 -0.523998
O2    O     O_R   0.837200 0.593290 0.915250 -0.549279
O3    O     O_R   0.065330 0.635370 0.931590 -0.512932
O4    O     O_R   0.280190 0.527390 0.578910 -0.501248
O5    O     O_R   0.068300 0.828790 0.091860 -0.470958
O6    O     O_R   0.798730 0.057480 0.079370 -0.462549
O7    O     O_R   0.584680 0.080480 0.076790 -0.519139
O8    O     O_R   0.626790 0.809640 0.067050 -0.441268
O9    O     O_R   0.816010 0.596460 0.076500 -0.542688
O10   O     O_R   0.045680 0.638310 0.081070 -0.506699
O11   O     O_3   0.833590 0.833690 0.001120 -0.291125
O12   O     O_R   0.524460 0.695920 0.424060 -0.501576
O13   O     O_R   0.260310 0.739740 0.584580 -0.512832
O14   O     O_R   0.532250 0.695150 0.573830 -0.502955
O15   O     O_R   0.744930 0.503430 0.576380 -0.510490
O16   O     O_R   0.699250 0.276390 0.571950 -0.499713
O17   O     O_R   0.499020 0.256400 0.419850 -0.523271
O18   O     O_R   0.272400 0.528160 0.429140 -0.514294
O19   O     O_R   0.251910 0.740570 0.423020 -0.486060
O20   O     O_2   0.018524 0.426355 0.735173 -0.537972
O21   O     O_2   0.287310 0.315480 0.822993 -0.528883
O22   O     O_2   0.988772 0.961915 0.413466 -0.486682
O23   O     O_R   0.736530 0.504260 0.414810 -0.511157
O24   O     O_2   0.459819 0.602609 0.834887 -0.558297
O25   O     O_R   0.691460 0.277160 0.422180 -0.502592
O26   O     O_3   0.499990 0.499990 0.499980 -0.285619
O27   O     O_R   0.089490 0.825610 0.930610 -0.504190
O28   O     O_R   0.818370 0.054540 0.929880 -0.502288
O29   O     O_R   0.605870 0.077310 0.915530 -0.518018
O30   O     O_R   0.646440 0.806700 0.917570 -0.487947

loop_
_geom_bond_atom_site_label_1
_geom_bond_atom_site_label_2
_ccdc_geom_bond_type
Cr5   O29   S    
C27   C29   A    
Cr5   O7    S    
Cr4   O6    S    
C38   O6    A    
C39   O8    A    
C7    C8    A    
Cr3   O23   S    
C53   C54   A    
C27   C33   A    
C12   C23   S    
C34   C51   S    
C21   H8    S    
C3    H27   S    
C49   H21   S    
C42   O17   A    
C51   H12   S    
C30   C31   A    
C40   O23   A    
C6    H28   S    
C22   C38   S    
C23   C43   S    
C41   O10   A    
C37   O3    A    
C18   C19   A    
C47   H19   S    
C5    C16   S    
C50   H22   S    
C17   F1    S    
C32   H14   S    
C8    C9    A    
C1    C11   S    
C30   C41   S    
Cr6   O11   S    
C9    C10   A    
C51   H18   S    
Cr2   O19   S    
C50   O24   D    
Cr1   O1    S    
Cr5   O30   S    
C49   O22   D    
C23   C46   S    
C13   C14   A    
Cr1   O17   S    
C35   C54   S    
Cr5   O8    S    
C20   H7    S    
C35   O28   A    
Cr4   O5    S    
Cr6   O10   S    
C9    H29   S    
C43   H1    S    
C39   O9    A    
C10   H3    S    
C28   O19   A    
C4    O15   A    
C4    C34   S    
C13   C19   A    
C27   C49   S    
C35   O29   A    
C34   C44   S    
C24   C25   A    
Cr2   O12   S    
C45   H16   S    
C2    C54   A    
C6    C11   A    
C25   H9    S    
Cr1   O4    S    
C29   H11   S    
C28   O18   A    
C25   C26   A    
C45   C46   S    
C4    O14   A    
C2    H26   S    
C36   O30   A    
C43   C44   S    
C29   C30   A    
C40   O12   A    
C31   C32   A    
C37   O27   A    
C43   H2    S    
C15   C39   S    
Cr4   O28   S    
C17   C18   A    
C16   O1    A    
C5    C52   A    
C34   C45   S    
Cr2   O14   S    
Cr3   O15   S    
C28   C33   S    
C10   C11   A    
Cr1   O18   S    
C41   O5    A    
C8    C37   S    
Cr6   O9    S    
C12   C51   S    
C52   C53   A    
C26   C42   S    
Cr3   O25   S    
C13   H4    S    
C15   C17   A    
C46   C47   S    
C24   F2    S    
Cr2   O26   S    
C52   H24   S    
C38   O7    A    
C3    C5    A    
C12   C50   S    
C42   O25   A    
C6    C7    A    
C48   H20   S    
C46   F3    S    
Cr5   O11   S    
C7    C48   S    
C44   H15   S    
C45   H23   S    
C32   C33   A    
C31   H13   S    
C20   C26   A    
C18   H6    S    
C1    O4    A    
C12   H17   S    
Cr4   O27   S    
C2    C3    A    
C53   H25   S    
C22   C24   A    
C44   H10   S    
Cr2   O13   S    
C19   C40   S    
C16   O16   A    
Cr6   O3    S    
C36   O2    A    
Cr3   O16   S    
C20   C21   A    
C23   C36   S    
C14   H5    S    
C14   C15   A    
Cr3   O26   S    
Cr4   O11   S    
C21   C22   A    
C47   O20   D    
C1    O13   A    
C48   O21   D    
Cr1   O26   S    
Cr6   O2    S    
