data_str_m2_o10_o16_f0_pcu.sym.168
_audit_creation_date              2012-12-10T16:44:16-0500
_audit_creation_method            fapswitch 2.2
_symmetry_space_group_name_H-M    P1
_symmetry_Int_Tables_number       1
_space_group_crystal_system       triclinic
_cell_length_a                    7.445317
_cell_length_b                    8.693572
_cell_length_c                    13.310317
_cell_angle_alpha                 93.976323
_cell_angle_beta                  77.38599
_cell_angle_gamma                 103.154293
_cell_volume                      818.499287416

loop_
_atom_site_label
_atom_site_type_symbol
_atom_type_description
_atom_site_fract_x
_atom_site_fract_y
_atom_site_fract_z
_atom_type_partial_charge
C1    C     C_R   0.545291 0.800151 0.503046 0.874872
C2    C     C_R   0.407285 0.520608 0.980336 0.058358
C3    C     C_R   0.456327 0.562001 0.874837 0.059726
C4    C     C_R   0.551651 0.561080 0.038698 0.096922
C5    C     C_R   0.719762 0.673540 0.000743 0.146262
C6    C     C_R   0.750687 0.733500 0.902646 -0.237385
C7    C     C_R   0.623079 0.676237 0.839692 -0.196420
C8    C     C_R   0.538184 0.488210 0.131601 -0.175462
C9    C     C_R   0.821729 0.668572 0.161194 -0.161127
C10   C     C_R   0.335181 0.490921 0.807799 -0.103796
C11   C     C_2   0.570763 0.968055 0.504527 -0.373945
C12   C     C_R   0.399116 0.495847 0.694801 0.773836
C13   C     C_2   0.429233 0.031933 0.495504 -0.366589
C14   C     C_R   0.454698 0.199849 0.496982 0.878514
C15   C     C_R   0.601775 0.513025 0.305735 0.794493
C16   C     C_R   0.854122 0.725756 0.062073 -0.190745
C17   C     C_R   0.663143 0.549293 0.196241 -0.079921
C18   C     C_R   0.155886 0.400948 0.848890 -0.192505
C19   C     C_R   0.095597 0.381339 0.954372 -0.225292
C20   C     C_R   0.216227 0.442921 0.021536 0.008955
Cu1   Cu    Cu3+1 0.321300 0.483160 0.488710 0.969918
Cu2   Cu    Cu3+1 0.678700 0.516840 0.511290 0.952655
H1    H     H_    0.916854 0.720788 0.211375 0.190907
H2    H     H_    0.292846 0.960520 0.486980 0.181593
H3    H     H_    0.010605 0.617958 0.579610 0.221704
H4    H     H_    0.989420 0.382129 0.420342 0.232726
H5    H     H_    0.876618 0.821819 0.873309 0.142994
H6    H     H_    0.980166 0.815194 0.034935 0.142811
H7    H     H_    0.426528 0.386869 0.157095 0.143255
H8    H     H_    0.060559 0.346504 0.799202 0.164159
H9    H     H_    0.951425 0.320058 0.984027 0.138983
H10   H     H_    0.653982 0.727025 0.764352 0.161390
H11   H     H_    0.707151 0.039459 0.513053 0.177409
N1    N     N_2   0.947230 0.542220 0.528320 -0.213279
N2    N     N_2   0.052770 0.457780 0.471680 -0.198736
O1    O     O_R   0.383920 0.714220 0.492660 -0.575419
O2    O     O_R   0.685730 0.742660 0.511730 -0.592568
O3    O     O_R   0.275440 0.478800 0.636790 -0.589013
O4    O     O_R   0.577250 0.507240 0.655860 -0.579885
O5    O     O_R   0.314270 0.257340 0.488270 -0.589606
O6    O     O_R   0.616080 0.285780 0.507340 -0.583174
O7    O     O_R   0.422750 0.492760 0.344140 -0.541166
O8    O     O_R   0.724560 0.521200 0.363210 -0.578412
C21   C     C_2   0.125316 0.441918 0.132479 0.307592
H12   H     H_    0.004862 0.348279 0.161946 0.060844
O9    O     O_2   0.175557 0.550230 0.190644 -0.536432

loop_
_geom_bond_atom_site_label_1
_geom_bond_atom_site_label_2
_ccdc_geom_bond_type
C16   H6    S    
C2    C4    A    
C6    C7    A    
C18   H8    S    
C15   O7    A    
C8    C17   A    
C1    C11   S    
C6    H5    S    
C1    O2    A    
H3    N1    S    
C4    C8    A    
C19   H9    S    
C12   O4    A    
C2    C3    A    
C15   O8    A    
C3    C10   A    
C13   C14   S    
C11   C13   D    
Cu1   O5    S    
C10   C12   S    
C10   C18   A    
C14   O6    A    
Cu1   N2    S    
C8    H7    S    
C9    C17   A    
C20   C21   S    
C9    C16   A    
C21   O9    D    
C18   C19   A    
C3    C7    A    
C12   O3    A    
C5    C6    A    
Cu2   N1    S    
Cu2   O6    S    
Cu2   O4    S    
C14   O5    A    
Cu1   O7    S    
H4    N2    S    
C11   H11   S    
C21   H12   S    
C13   H2    S    
C15   C17   S    
N1    N2    D    
Cu1   O1    S    
C9    H1    S    
C5    C16   A    
C7    H10   S    
Cu1   Cu2   S    
Cu2   O2    S    
C2    C20   A    
Cu2   O8    S    
Cu1   O3    S    
C19   C20   A    
C1    O1    A    
C4    C5    A    
