data_str_m3_o5_o26_f0_pcu.sym.186
_audit_creation_date              2013-03-05T16:47:55-0500
_audit_creation_method            fapswitch 2.2
_symmetry_space_group_name_H-M    P1
_symmetry_Int_Tables_number       1
_space_group_crystal_system       triclinic
_cell_length_a                    8.116416
_cell_length_b                    8.925143
_cell_length_c                    17.096719
_cell_angle_alpha                 90.003115
_cell_angle_beta                  84.245627
_cell_angle_gamma                 90.038639
_cell_volume                      1232.24809925

loop_
_atom_site_label
_atom_site_type_symbol
_atom_site_description
_atom_site_fract_x
_atom_site_fract_y
_atom_site_fract_z
_atom_type_partial_charge
O1    O     O_R   0.363150 0.714660 0.500000 -0.617077
O2    O     O_R   0.636850 0.285340 0.500000 -0.615969
O3    O     O_R   0.636850 0.714660 0.500000 -0.617674
O4    O     O_R   0.363150 0.285340 0.500000 -0.615794
C1    C     C_R   0.500017 0.781954 0.500088 0.932545
C2    C     C_R   0.499950 0.218046 0.500092 0.932843
O5    O     O_R   0.346950 0.500000 0.615800 -0.622609
O6    O     O_R   0.653050 0.500000 0.384200 -0.622280
O7    O     O_R   0.620700 0.500000 0.615800 -0.619165
O8    O     O_R   0.379300 0.500000 0.384200 -0.618491
C3    C     C_R   0.475901 0.497451 0.652835 0.946788
C4    C     C_R   0.524020 0.505775 0.346424 0.937247
Zn1   Zn    Zn3+2 0.317220 0.500000 0.500010 0.968950
Zn2   Zn    Zn3+2 0.682780 0.500000 0.499990 0.967441
N1    N     N_1   0.926360 0.500000 0.499990 -0.043134
N2    N     N_1   0.073640 0.500000 0.500010 -0.042909
C5    C     C_R   0.460675 0.492153 0.738247 -0.202888
C6    C     C_R   0.539201 0.538623 0.261137 -0.220104
C7    C     C_R   0.574215 0.402827 0.775242 0.023881
C8    C     C_R   0.394665 0.536598 0.220624 0.033076
C9    C     C_R   0.587935 0.423062 0.855324 0.482578
C10   C     C_R   0.399842 0.603280 0.146838 0.460453
C11   C     C_R   0.476188 0.517519 0.898858 -0.196525
C12   C     C_R   0.553331 0.624446 0.103162 -0.158292
C13   C     C_R   0.355485 0.599088 0.863880 0.494445
C14   C     C_R   0.699756 0.614372 0.139027 0.483081
C15   C     C_R   0.343586 0.583691 0.782982 0.004336
C16   C     C_R   0.691941 0.587771 0.220380 0.015354
C17   C     C_2   0.476925 0.521454 0.983020 0.002906
C18   C     C_2   0.560044 0.627089 0.017723 -0.122226
C19   C     C_1   0.500023 0.934781 0.500167 -0.200304
C20   C     C_1   0.499928 0.065217 0.500173 -0.201991
H1    H     H_    0.640022 0.706004 0.983612 0.154540
H2    H     H_    0.407553 0.434853 0.016814 0.153542
O9    O     O_3   0.243032 0.686116 0.910253 -0.585418
C21   C     C_3   0.299282 0.836027 0.907848 -0.298185
H3    H     H_    0.417628 0.847642 0.934633 0.157408
H4    H     H_    0.205704 0.906221 0.942468 0.183296
H5    H     H_    0.314581 0.881473 0.846976 0.161392
O10   O     O_3   0.850127 0.628323 0.093795 -0.604718
C22   C     C_3   0.909618 0.483043 0.074380 -0.249831
H6    H     H_    0.818758 0.416744 0.044127 0.170180
H7    H     H_    0.939979 0.421125 0.127372 0.158936
H8    H     H_    0.024557 0.492866 0.033770 0.232495
O11   O     O_3   0.254497 0.630925 0.113408 -0.592954
C23   C     C_3   0.222808 0.786179 0.118461 -0.228024
H9    H     H_    0.324417 0.852558 0.086505 0.140680
H10   H     H_    0.202452 0.823173 0.180873 0.136463
H11   H     H_    0.108333 0.810471 0.090513 0.231648
O12   O     O_3   0.706098 0.345875 0.892397 -0.615696
C24   C     C_3   0.858766 0.422130 0.878002 -0.310312
H12   H     H_    0.900647 0.430224 0.814164 0.175584
H13   H     H_    0.954778 0.358168 0.905659 0.183841
H14   H     H_    0.851724 0.536258 0.904398 0.189093
C25   C     C_3   0.675181 0.281380 0.730708 -0.801611
H15   H     H_    0.719884 0.196064 0.770818 0.260270
H16   H     H_    0.597981 0.220813 0.690854 0.215655
H17   H     H_    0.784549 0.330930 0.695887 0.245190
C26   C     C_3   0.236081 0.460126 0.252708 -0.803651
H18   H     H_    0.155831 0.434454 0.205794 0.245213
H19   H     H_    0.263551 0.350336 0.279067 0.228358
H20   H     H_    0.166831 0.533248 0.296893 0.256360
C27   C     C_3   0.846471 0.611023 0.261033 -0.813789
H21   H     H_    0.822289 0.692855 0.309734 0.241648
H22   H     H_    0.886965 0.502016 0.283514 0.244405
H23   H     H_    0.950059 0.657760 0.221388 0.276842
C28   C     C_3   0.206706 0.663403 0.745351 -0.821310
H24   H     H_    0.260849 0.743144 0.699951 0.230763
H25   H     H_    0.128180 0.580063 0.718311 0.246228
H26   H     H_    0.121918 0.727102 0.787983 0.256977

loop_
_geom_bond_atom_site_label_1
_geom_bond_atom_site_label_2
_geom_bond_distance
_ccdc_geom_bond_type
C2    C20   1.364029 S    
O7    Zn2   1.993518 S    
C27   H22   1.108185 S    
C17   C18   1.332436 D    
C13   C15   1.402828 A    
C22   H7    1.109923 S    
C22   H6    1.112374 S    
C5    C7    1.415210 A    
C14   C16   1.406135 A    
C19   C20   1.164157 T    
O6    C4    1.285391 A    
C24   H14   1.113261 S    
C28   H26   1.108142 S    
C25   H15   1.109968 S    
C25   H16   1.110954 S    
O12   C24   1.413111 S    
C27   H23   1.107059 S    
C26   H18   1.106621 S    
C15   C28   1.516177 S    
O8    Zn1   1.993518 S    
O11   C23   1.410563 S    
C8    C26   1.510199 S    
O5    C3    1.276625 A    
O7    C3    1.278042 A    
C23   H11   1.108109 S    
C14   O10   1.383340 S    
O2    C2    1.262579 A    
O3    Zn2   1.952046 S    
O8    C4    1.283463 A    
C13   O9    1.385898 S    
O1    C1    1.262616 A    
C11   C17   1.439922 S    
C21   H4    1.109118 S    
O10   C22   1.411833 S    
C7    C9    1.396436 A    
C12   C14   1.393832 A    
C9    O12   1.385269 S    
C9    C11   1.397470 A    
O2    Zn2   1.951553 S    
C22   H8    1.109063 S    
C10   C12   1.399426 A    
C26   H19   1.110627 S    
C12   C18   1.456463 S    
O1    Zn1   1.951552 S    
N1    N2    1.195420 T    
C24   H13   1.109622 S    
C7    C25   1.517293 S    
C24   H12   1.112455 S    
C5    C15   1.418027 A    
C16   C27   1.507873 S    
O3    C1    1.262817 A    
O5    Zn1   2.018154 S    
C11   C13   1.402098 A    
C6    C16   1.428601 A    
C6    C8    1.420985 A    
O4    C2    1.262853 A    
C10   O11   1.383758 S    
Zn1   N2    1.976997 S    
C4    C6    1.480279 S    
O4    Zn1   1.952047 S    
C25   H17   1.109721 S    
Zn2   N1    1.976997 S    
C21   H3    1.109571 S    
C26   H20   1.108058 S    
O6    Zn2   2.018155 S    
C18   H1    1.086766 S    
C28   H25   1.109777 S    
C23   H9    1.112939 S    
C17   H2    1.087418 S    
C23   H10   1.113353 S    
C21   H5    1.112247 S    
C3    C5    1.453847 S    
C28   H24   1.110547 S    
C8    C10   1.391678 A    
C27   H21   1.110213 S    
C1    C19   1.364007 S    
O9    C21   1.412704 S    
