data_str_m3_o14_o16_f0_pcu.sym.91
_audit_creation_date              2012-12-10T17:42:45-0500
_audit_creation_method            fapswitch 2.2
_symmetry_space_group_name_H-M    P1
_symmetry_Int_Tables_number       1
_space_group_crystal_system       triclinic
_cell_length_a                    9.947261
_cell_length_b                    10.618237
_cell_length_c                    13.165679
_cell_angle_alpha                 91.148363
_cell_angle_beta                  71.154866
_cell_angle_gamma                 89.97804
_cell_volume                      1315.7489613

loop_
_atom_site_label
_atom_site_type_symbol
_atom_type_description
_atom_site_fract_x
_atom_site_fract_y
_atom_site_fract_z
_atom_type_partial_charge
C1    C     C_R   0.501188 0.739213 0.496957 0.861097
C2    C     C_R   0.382094 0.434743 0.812243 -0.233851
C3    C     C_R   0.447216 0.864246 0.319228 -0.173878
C4    C     C_R   0.423727 0.479242 0.700778 0.884341
C5    C     C_R   0.419603 0.927889 0.236362 -0.134699
C6    C     C_R   0.419913 0.058933 0.236132 -0.144531
C7    C     C_R   0.447917 0.126763 0.318743 -0.186702
C8    C     C_R   0.474309 0.063649 0.404210 0.098214
C9    C     C_R   0.473876 0.931638 0.404538 0.089686
C10   C     C_R   0.504565 0.871422 0.489214 -0.094970
C11   C     C_R   0.540590 0.937673 0.568746 -0.206484
C12   C     C_R   0.445374 0.428179 0.975600 0.084590
C13   C     C_R   0.541443 0.066220 0.568196 -0.214666
C14   C     C_R   0.505635 0.128217 0.488387 -0.093552
C15   C     C_R   0.801067 0.663965 0.641336 -0.137854
C16   C     C_R   0.501913 0.260742 0.495829 0.837664
C17   C     C_R   0.841056 0.741502 0.712888 -0.194355
C18   C     C_R   0.979544 0.738984 0.714255 -0.188272
C19   C     C_R   0.079281 0.659764 0.643400 -0.113564
C20   C     C_R   0.042411 0.579105 0.570468 0.160048
C21   C     C_R   0.898284 0.580047 0.569921 0.160908
C22   C     C_R   0.957327 0.423656 0.432985 -0.123366
C23   C     C_R   0.486627 0.418326 0.863036 0.021850
C24   C     C_R   0.100262 0.423874 0.432847 -0.127897
C25   C     C_R   0.578117 0.500690 0.296451 0.846321
C26   C     C_R   0.803778 0.461773 0.007734 -0.220232
C27   C     C_R   0.623723 0.490544 0.180089 -0.051160
C28   C     C_R   0.239138 0.410779 0.871151 0.498977
C29   C     C_R   0.199087 0.402873 0.982888 -0.269445
C30   C     C_R   0.299474 0.416784 0.035050 -0.276751
C31   C     C_3   0.104557 0.261290 0.821594 0.010267
C32   C     C_3   0.172922 0.201848 0.710286 -0.272130
C33   C     C_3   0.131835 0.063917 0.705909 -0.976954
C34   C     C_R   0.552402 0.447275 0.023611 0.097210
C35   C     C_R   0.697954 0.440022 0.960654 0.179208
C36   C     C_R   0.735498 0.408193 0.852230 -0.259549
C37   C     C_R   0.630819 0.391475 0.805247 -0.178184
C38   C     C_R   0.518470 0.478525 0.131857 -0.285151
C39   C     C_R   0.767098 0.484231 0.117780 -0.208064
H1    H     H_    0.850035 0.495619 0.153917 0.158051
H2    H     H_    0.010300 0.799484 0.770019 0.153462
H3    H     H_    0.184141 0.664539 0.647776 0.205677
H4    H     H_    0.845571 0.397375 0.803030 0.172582
H5    H     H_    0.177236 0.361546 0.377852 0.143941
H6    H     H_    0.914328 0.459809 0.959700 0.187693
H7    H     H_    0.409506 0.494348 0.180189 0.163159
H8    H     H_    0.260676 0.410202 0.121293 0.149842
H9    H     H_    0.089599 0.385781 0.029665 0.145790
H10   H     H_    0.664942 0.355450 0.723495 0.184336
H11   H     H_    0.565145 0.889599 0.632597 0.137890
H12   H     H_    0.449675 0.762530 0.314552 0.151611
H13   H     H_    0.987645 0.252859 0.843867 0.157142
H14   H     H_    0.135538 0.205546 0.881775 0.132350
H15   H     H_    0.139603 0.254941 0.650403 0.249267
H16   H     H_    0.289834 0.207654 0.690099 0.209664
H17   H     H_    0.167066 0.008573 0.763563 0.257719
H18   H     H_    0.184150 0.024288 0.623835 0.282262
H19   H     H_    0.014955 0.055350 0.725439 0.263207
H20   H     H_    0.399462 0.875304 0.171525 0.138086
H21   H     H_    0.400026 0.108219 0.171137 0.138231
H22   H     H_    0.450992 0.228277 0.313747 0.147650
H23   H     H_    0.566361 0.117809 0.631751 0.142256
H24   H     H_    0.927389 0.361197 0.378115 0.146414
H25   H     H_    0.693436 0.673316 0.644359 0.203642
H26   H     H_    0.764013 0.804392 0.767326 0.145188
N1    N     N_R   0.856860 0.501200 0.500990 -0.122166
N2    N     N_R   0.142450 0.501280 0.501020 -0.121408
O1    O     O_R   0.385310 0.683220 0.500000 -0.638711
O2    O     O_R   0.614640 0.683250 0.500010 -0.624091
O3    O     O_R   0.328400 0.499950 0.653610 -0.584897
O4    O     O_R   0.557730 0.499970 0.653620 -0.649742
O5    O     O_R   0.385360 0.316750 0.499990 -0.631497
O6    O     O_R   0.614690 0.316780 0.500000 -0.617722
O7    O     O_R   0.442270 0.500030 0.346380 -0.632266
O8    O     O_R   0.671600 0.500050 0.346390 -0.608834
O9    O     O_3   0.139528 0.391221 0.819621 -0.649826
Zn1   Zn    Zn3+2 0.346880 0.499980 0.499990 0.926943
Zn2   Zn    Zn3+2 0.653120 0.500020 0.500010 0.922986

loop_
_geom_bond_atom_site_label_1
_geom_bond_atom_site_label_2
_ccdc_geom_bond_type
C33   H19   S    
C21   N1    A    
C20   N2    A    
C19   C20   A    
C16   O5    A    
C31   H13   S    
C4    O3    A    
C7    C8    A    
C12   C23   A    
C29   C30   A    
C28   C29   A    
C34   C35   A    
C5    C6    A    
C26   C39   A    
C27   C38   A    
C1    O1    A    
C25   O7    A    
C22   N1    A    
C24   N2    A    
C22   H24   S    
C7    H22   S    
C13   H23   S    
C35   C36   A    
C27   C39   A    
C8    C9    A    
O7    Zn1   S    
N2    Zn1   S    
C33   H18   S    
O6    Zn2   S    
C9    C10   A    
C32   H16   S    
C26   H6    S    
C19   H3    S    
C33   H17   S    
C13   C14   A    
O3    Zn1   S    
O2    Zn2   S    
C32   H15   S    
N1    Zn2   S    
C5    H20   S    
C29   H9    S    
C16   O6    A    
C6    H21   S    
C30   H8    S    
C18   H2    S    
C39   H1    S    
C3    H12   S    
C18   C19   A    
C23   C37   A    
C1    O2    A    
C25   O8    A    
C2    C4    S    
O5    Zn1   S    
C3    C9    A    
C37   H10   S    
C31   C32   S    
C15   H25   S    
C17   C18   A    
C31   H14   S    
C24   H5    S    
C14   C16   S    
C12   C34   A    
C28   O9    S    
O1    Zn1   S    
C15   C17   A    
C36   C37   A    
C8    C14   A    
C12   C30   A    
C34   C38   A    
C1    C10   S    
C3    C5    A    
C6    C7    A    
C25   C27   S    
C17   H26   S    
C32   C33   S    
C11   H11   S    
C11   C13   A    
C31   O9    S    
C22   C24   A    
O4    Zn2   S    
O8    Zn2   S    
C38   H7    S    
C10   C11   A    
C26   C35   A    
C15   C21   A    
C20   C21   A    
C2    C23   A    
C36   H4    S    
C2    C28   A    
C4    O4    A    
