data_str_m2_o5_o22_f0_pcu.sym.65
_audit_creation_date              2012-10-26T20:33:44-0400
_audit_creation_method            fapswitch 2.2
_symmetry_space_group_name_H-M    P1
_symmetry_Int_Tables_number       1
_space_group_crystal_system       triclinic
_cell_length_a                    10.991397
_cell_length_b                    9.061253
_cell_length_c                    7.996037
_cell_angle_alpha                 90.009914
_cell_angle_beta                  88.793844
_cell_angle_gamma                 89.933082
_cell_volume                      796.19492142

loop_
_atom_site_label
_atom_site_type_symbol
_atom_type_description
_atom_site_fract_x
_atom_site_fract_y
_atom_site_fract_z
_atom_type_partial_charge
C1    C     C_R   0.499727 0.220940 0.500012 0.593460
C2    C     C_1   0.499794 0.934397 0.500032 0.008576
C3    C     C_3   0.069229 0.646923 0.513063 -0.214206
C4    C     C_3   0.930556 0.646646 0.482659 -0.229804
C5    C     C_3   0.121703 0.485751 0.503276 -0.017539
C6    C     C_3   0.878015 0.485446 0.496795 -0.007764
C7    C     C_2   0.120140 0.440281 0.825814 0.343454
C8    C     C_2   0.119107 0.519653 0.189828 0.275524
C9    C     C_2   0.882889 0.531406 0.809022 0.278284
C10   C     C_2   0.880447 0.436223 0.173724 0.350771
C11   C     C_2   0.110830 0.232834 0.644450 0.143099
C12   C     C_R   0.260135 0.496087 0.501714 0.529956
C13   C     C_2   0.144194 0.270244 0.287274 0.123282
C14   C     C_2   0.856112 0.271765 0.718120 0.191768
C15   C     C_2   0.888260 0.231234 0.354666 0.159380
C16   C     C_R   0.739802 0.495783 0.498395 0.574113
C17   C     C_R   0.499938 0.779085 0.500013 0.538755
C18   C     C_1   0.499705 0.065661 0.500021 0.042433
C19   C     C_3   0.068385 0.394482 0.660168 -0.030656
C20   C     C_3   0.076869 0.414475 0.331103 -0.075466
C21   C     C_3   0.922660 0.418148 0.671549 -0.081535
C22   C     C_3   0.931262 0.391966 0.340862 0.001595
Cu1   Cu    Cu3+1 0.500000 0.500010 0.669080 1.147382
Cu2   Cu    Cu3+1 0.500000 0.500010 0.330920 1.118297
H1    H     H_    0.114734 0.361876 0.926957 0.148019
H2    H     H_    0.116218 0.722287 0.423625 0.163754
H3    H     H_    0.883494 0.724030 0.569993 0.152829
H4    H     H_    0.912320 0.699392 0.361783 0.230333
H5    H     H_    0.203935 0.496295 0.123912 0.183208
H6    H     H_    0.796224 0.518882 0.873009 0.220751
H7    H     H_    0.888155 0.358641 0.071196 0.146252
H8    H     H_    0.058095 0.149393 0.584538 0.091631
H9    H     H_    0.222950 0.235069 0.356119 0.167764
H10   H     H_    0.874949 0.169258 0.655231 0.136580
H11   H     H_    0.949981 0.139013 0.361958 0.155812
H12   H     H_    0.088347 0.701977 0.632342 0.231147
N1    N     N_1   0.500000 0.499970 0.076820 -0.062624
N2    N     N_1   0.500000 0.499970 0.923180 -0.054834
O1    O     O_R   0.500000 0.288400 0.642760 -0.458671
O2    O     O_2   0.068306 0.635434 0.156208 -0.420416
O3    O     O_2   0.938123 0.644377 0.840590 -0.431751
O4    O     O_2   0.838397 0.558723 0.148965 -0.468232
O5    O     O_2   0.211894 0.194781 0.689536 -0.488285
O6    O     O_2   0.116326 0.196617 0.165970 -0.518095
O7    O     O_2   0.777255 0.264451 0.827840 -0.493032
O8    O     O_2   0.779830 0.201378 0.353601 -0.497802
O9    O     O_R   0.500000 0.288400 0.357240 -0.488757
O10   O     O_R   0.317700 0.499990 0.642790 -0.438723
O11   O     O_R   0.317700 0.499990 0.357210 -0.566536
O12   O     O_R   0.682300 0.499990 0.642790 -0.526296
O13   O     O_R   0.682300 0.499990 0.357210 -0.436234
O14   O     O_R   0.500000 0.711620 0.642810 -0.496647
O15   O     O_R   0.500000 0.711620 0.357190 -0.493392
O16   O     O_2   0.162364 0.562856 0.849862 -0.450914

loop_
_geom_bond_atom_site_label_1
_geom_bond_atom_site_label_2
_ccdc_geom_bond_type
C14   H10   S    
Cu1   Cu2   S    
C11   O5    D    
N1    N2    T    
C5    C19   S    
C10   O4    D    
Cu1   N2    S    
C9    O3    D    
C7    O16   D    
C16   O13   A    
C12   O10   A    
C9    C21   S    
Cu2   O13   S    
Cu2   N1    S    
Cu1   O14   S    
C5    C20   S    
C10   C22   S    
C2    C17   S    
C13   H9    S    
C6    C21   S    
C11   C19   S    
C1    C18   S    
C8    C20   S    
C3    H12   S    
Cu1   O1    S    
C8    H5    S    
C9    H6    S    
C14   C21   S    
C15   H11   S    
C4    H4    S    
C16   O12   A    
C11   H8    S    
C12   O11   A    
C14   O7    D    
C7    C19   S    
C3    H2    S    
C13   O6    D    
C2    C18   T    
C1    O1    A    
C6    C16   S    
C3    C4    S    
C6    C22   S    
C17   O15   A    
C4    H3    S    
C17   O14   A    
C5    C12   S    
C4    C6    S    
Cu2   O11   S    
C1    O9    A    
Cu1   O12   S    
Cu1   O10   S    
C8    O2    D    
C15   O8    D    
C19   C21   S    
Cu2   O15   S    
Cu2   O9    S    
C10   H7    S    
C13   C20   S    
C15   C22   S    
C20   C22   S    
C3    C5    S    
C7    H1    S    
