data_str_m2_o10_o29_f0_pcu.sym.130
_audit_creation_date              2012-12-10T16:51:12-0500
_audit_creation_method            fapswitch 2.2
_symmetry_space_group_name_H-M    P1
_symmetry_Int_Tables_number       1
_space_group_crystal_system       triclinic
_cell_length_a                    27.765237
_cell_length_b                    8.68713
_cell_length_c                    7.542496
_cell_angle_alpha                 103.651255
_cell_angle_beta                  93.358117
_cell_angle_gamma                 92.543091
_cell_volume                      1761.64425082

loop_
_atom_site_label
_atom_site_type_symbol
_atom_type_description
_atom_site_fract_x
_atom_site_fract_y
_atom_site_fract_z
_atom_type_partial_charge
C1    C     C_R   0.498441 0.199914 0.452978 0.873320
C2    C     C_R   0.501536 0.800086 0.547028 0.874119
C3    C     C_R   0.102482 0.505445 0.507298 -0.129462
C4    C     C_R   0.897818 0.481157 0.494390 -0.110276
C5    C     C_R   0.127063 0.364036 0.454862 -0.072016
C6    C     C_R   0.874051 0.619841 0.569739 -0.072301
C7    C     C_R   0.100350 0.218911 0.375630 -0.015020
C8    C     C_R   0.901626 0.756378 0.671928 -0.055024
C9    C     C_R   0.129291 0.653835 0.565545 -0.105620
C10   C     C_R   0.870202 0.338550 0.412967 -0.107623
C11   C     C_R   0.355175 0.508949 0.511713 -0.041295
C12   C     C_R   0.644887 0.488526 0.488658 -0.041176
C13   C     C_R   0.972928 0.346799 0.422400 -0.015828
C14   C     C_R   0.026991 0.638749 0.563090 -0.010571
C15   C     C_R   0.976191 0.630163 0.575168 0.071173
C16   C     C_R   0.024413 0.351343 0.432938 0.073440
C17   C     C_R   0.949110 0.485697 0.498341 0.076274
C18   C     C_R   0.051208 0.498377 0.501341 0.079704
C19   C     C_R   0.944278 0.208201 0.336215 -0.261747
C20   C     C_R   0.053971 0.785322 0.605753 -0.299585
C21   C     C_R   0.894033 0.201487 0.336058 0.522179
C22   C     C_R   0.104787 0.795612 0.614260 0.577133
C23   C     C_R   0.407807 0.502455 0.503759 0.788383
C24   C     C_R   0.592218 0.496976 0.496235 0.789204
C25   C     C_R   0.049980 0.213856 0.373032 -0.297830
C26   C     C_R   0.951942 0.760571 0.670055 -0.266934
C27   C     C_2   0.497329 0.031250 0.427551 -0.315449
C28   C     C_2   0.502613 0.968752 0.572470 -0.315946
C29   C     C_R   0.177620 0.373189 0.488193 0.565829
C30   C     C_R   0.823467 0.616482 0.537222 0.550590
C31   C     C_R   0.180269 0.655609 0.568075 0.575418
C32   C     C_R   0.819354 0.337576 0.412196 0.573362
C33   C     C_R   0.284848 0.584419 0.681925 -0.095350
C34   C     C_R   0.715402 0.418351 0.317360 -0.099643
C35   C     C_R   0.334907 0.580373 0.675295 -0.187613
C36   C     C_R   0.665350 0.423557 0.323393 -0.195451
C37   C     C_R   0.324708 0.445835 0.353673 -0.185739
C38   C     C_R   0.675199 0.542301 0.649127 -0.191853
C39   C     C_R   0.274830 0.451115 0.360041 -0.097630
C40   C     C_R   0.725019 0.534190 0.643723 -0.097493
C41   C     C_R   0.254611 0.519052 0.524346 0.324809
C42   C     C_R   0.745524 0.474259 0.477600 0.331557
Cu1   Cu    Cu3+1 0.505380 0.517380 0.684380 1.007005
Cu2   Cu    Cu3+1 0.494620 0.482620 0.315620 1.006985
H1    H     H_    0.339357 0.390698 0.225608 0.187317
H2    H     H_    0.660516 0.592005 0.778785 0.192396
H3    H     H_    0.251705 0.400877 0.237411 0.160359
H4    H     H_    0.747898 0.576664 0.768717 0.165963
H5    H     H_    0.642784 0.374758 0.199518 0.205532
H6    H     H_    0.357665 0.634947 0.797156 0.201449
H7    H     H_    0.730732 0.371587 0.188187 0.160454
H8    H     H_    0.269574 0.637403 0.809416 0.154999
H9    H     H_    0.959338 0.102394 0.261150 0.158886
H10   H     H_    0.035526 0.893777 0.623950 0.146632
H11   H     H_    0.031648 0.099049 0.320541 0.166702
H12   H     H_    0.971935 0.864646 0.753407 0.167939
H13   H     H_    0.492012 0.958279 0.288618 0.208647
H14   H     H_    0.507915 0.041729 0.711408 0.208159
N1    N     N_R   0.202993 0.516578 0.530127 -0.482617
N2    N     N_R   0.797243 0.475662 0.473011 -0.467008
N3    N     N_2   0.486510 0.456430 0.038510 -0.230516
N4    N     N_2   0.513490 0.543570 0.961490 -0.229850
O1    O     O_R   0.503500 0.286120 0.619780 -0.561552
O2    O     O_R   0.496500 0.713880 0.380220 -0.560988
O3    O     O_R   0.494410 0.256780 0.308360 -0.592543
O4    O     O_R   0.505590 0.743220 0.691640 -0.592489
O5    O     O_R   0.434810 0.514700 0.655690 -0.593678
O6    O     O_R   0.565190 0.485300 0.344310 -0.594112
O7    O     O_R   0.425720 0.485350 0.344280 -0.579515
O8    O     O_R   0.574280 0.514650 0.655720 -0.579555
O9    O     O_2   0.201475 0.240943 0.486358 -0.464556
O10   O     O_2   0.800473 0.752658 0.561693 -0.529114
O11   O     O_2   0.792133 0.200479 0.352631 -0.491050
O12   O     O_2   0.207138 0.794198 0.607628 -0.452412
C43   C     C_2   0.440610 0.398840 0.951828 1.120997
O13   O     O_2   0.405992 0.480484 0.983642 -0.639206
O14   O     O_R   0.434086 0.243831 0.844325 -0.783196
H15   H     H_    0.399406 0.215273 0.793102 0.312598
C44   C     C_2   0.559262 0.602199 0.048490 1.121341
O15   O     O_2   0.594101 0.521827 0.015970 -0.645276
O16   O     O_R   0.565435 0.757105 0.156429 -0.782872
H16   H     H_    0.600085 0.786524 0.207615 0.311801
C45   C     C_2   0.122818 0.073367 0.276106 0.932043
O17   O     O_2   0.104795 0.941962 0.274538 -0.600951
O18   O     O_R   0.162548 0.086131 0.173557 -0.742301
H17   H     H_    0.173828 0.978959 0.109796 0.351780
C46   C     C_2   0.879681 0.891869 0.793456 0.903670
O19   O     O_2   0.897779 0.026757 0.816514 -0.611867
O20   O     O_R   0.838956 0.864858 0.885043 -0.704732
H18   H     H_    0.823296 0.966389 0.941328 0.385309
O21   O     O_3   0.868287 0.064537 0.240383 -0.556381
C47   C     C_3   0.870771 0.949330 0.343670 -0.155553
H19   H     H_    0.854561 0.991389 0.476467 0.206255
H20   H     H_    0.908473 0.915750 0.365314 0.124751
H21   H     H_    0.849345 0.840720 0.267156 0.212084
O22   O     O_3   0.131422 0.941458 0.653955 -0.506206
C48   C     C_3   0.110353 0.061873 0.780507 -0.235596
H22   H     H_    0.094347 0.017035 0.891913 0.144519
H23   H     H_    0.082893 0.119464 0.709504 0.153408
H24   H     H_    0.138957 0.154900 0.844267 0.223692

loop_
_geom_bond_atom_site_label_1
_geom_bond_atom_site_label_2
_ccdc_geom_bond_type
C7    C45   S    
C46   O19   D    
C8    C26   A    
C23   O7    A    
C34   C42   A    
Cu1   Cu2   S    
O16   H16   S    
Cu1   O1    S    
C39   C41   A    
O14   H15   S    
Cu2   O2    S    
C33   H8    S    
C34   H7    S    
C19   C21   A    
C9    C22   A    
C23   O5    A    
C3    C18   A    
C40   H4    S    
C31   N1    A    
C11   C37   A    
C14   C18   A    
C29   N1    A    
C30   N2    A    
C1    O3    A    
C12   C36   A    
C19   H9    S    
C40   C42   A    
Cu2   O3    S    
C1    O1    A    
C48   H23   S    
C2    O2    A    
C48   H22   S    
C5    C29   A    
C10   C21   A    
C13   C19   A    
C24   O8    A    
C14   C20   A    
N4    C44   S    
C41   N1    S    
C20   H10   S    
C27   H13   S    
C42   N2    S    
O21   C47   S    
C44   O16   S    
C9    C31   A    
C15   C26   A    
C6    C8    A    
C3    C5    A    
O18   H17   S    
C47   H21   S    
N3    C43   S    
C43   O13   D    
C3    C9    A    
C5    C7    A    
C45   O17   D    
O22   C48   S    
C35   H6    S    
C47   H20   S    
Cu2   O7    S    
C16   C18   A    
C43   O14   S    
C4    C17   A    
C4    C6    A    
C45   O18   S    
C20   C22   A    
Cu1   O8    S    
C46   O20   S    
Cu2   O6    S    
C32   N2    A    
C37   H1    S    
C32   O11   S    
C48   H24   S    
C39   H3    S    
C21   O21   S    
C16   C25   A    
C15   C17   A    
C6    C30   A    
C22   O22   S    
C25   H11   S    
C2    O4    A    
C26   H12   S    
C30   O10   S    
C28   H14   S    
Cu2   N3    S    
C12   C24   S    
C7    C25   A    
C13   C17   A    
C8    C46   S    
C33   C41   A    
C11   C35   A    
C37   C39   A    
C38   C40   A    
Cu1   O4    S    
C11   C23   S    
C47   H19   S    
C33   C35   A    
C34   C36   A    
C12   C38   A    
N3    N4    D    
C31   O12   S    
C38   H2    S    
C24   O6    A    
C44   O15   D    
C10   C32   A    
Cu1   O5    S    
C13   C16   A    
C27   C28   D    
C1    C27   S    
C14   C15   A    
C2    C28   S    
O20   H18   S    
C4    C10   A    
C36   H5    S    
Cu1   N4    S    
C29   O9    S    
