data_str_m3_o10_o29_f0_pcu.sym.63
_audit_creation_date              2012-12-10T16:59:21-0500
_audit_creation_method            fapswitch 2.2
_symmetry_space_group_name_H-M    P1
_symmetry_Int_Tables_number       1
_space_group_crystal_system       triclinic
_cell_length_a                    7.753522
_cell_length_b                    8.656075
_cell_length_c                    27.50796
_cell_angle_alpha                 91.060644
_cell_angle_beta                  85.071031
_cell_angle_gamma                 93.983803
_cell_volume                      1834.78082179

loop_
_atom_site_label
_atom_site_type_symbol
_atom_type_description
_atom_site_fract_x
_atom_site_fract_y
_atom_site_fract_z
_atom_type_partial_charge
C1    C     C_R   0.545575 0.794530 0.498694 0.923548
C2    C     C_R   0.644602 0.584218 0.119321 -0.008717
C3    C     C_R   0.503950 0.484781 0.646134 -0.138727
C4    C     C_R   0.501332 0.504385 0.352477 -0.185592
C5    C     C_R   0.704631 0.544399 0.017641 0.090734
C6    C     C_R   0.523217 0.292080 0.974250 0.088429
C7    C     C_R   0.544730 0.289651 0.024627 -0.002345
C8    C     C_R   0.725690 0.523097 0.966568 -0.004885
C9    C     C_R   0.620395 0.423336 0.046603 0.076613
C10   C     C_R   0.620737 0.405786 0.945095 0.076330
C11   C     C_R   0.754155 0.685946 0.040407 -0.226856
C12   C     C_R   0.454396 0.205634 0.500596 0.921709
C13   C     C_R   0.399145 0.192153 0.952684 -0.213609
C14   C     C_R   0.718146 0.707259 0.090387 -0.144593
C15   C     C_R   0.368939 0.208641 0.903991 -0.125361
C16   C     C_R   0.501367 0.498986 0.593800 0.909861
C17   C     C_R   0.498853 0.499839 0.405819 0.896623
C18   C     C_R   0.842284 0.618122 0.936259 -0.341201
C19   C     C_R   0.487780 0.161361 0.053907 -0.351691
C20   C     C_2   0.566259 0.956208 0.491317 -0.036163
C21   C     C_2   0.433947 0.044303 0.507909 -0.043887
C22   C     C_R   0.700983 0.500530 0.813829 0.635482
C23   C     C_R   0.606061 0.407405 0.894526 -0.142950
C24   C     C_R   0.538142 0.331384 0.178063 0.630772
C25   C     C_R   0.438633 0.340011 0.826476 0.582861
C26   C     C_R   0.606372 0.603315 0.169460 0.518360
C27   C     C_R   0.512868 0.315173 0.714564 0.178172
C28   C     C_R   0.678149 0.555789 0.276340 0.200255
C29   C     C_R   0.505985 0.336749 0.664814 -0.326678
C30   C     C_R   0.654450 0.564276 0.326982 -0.289443
C31   C     C_R   0.514525 0.615951 0.676826 0.065493
C32   C     C_R   0.360726 0.445004 0.326735 0.071243
C33   C     C_R   0.522620 0.595734 0.727425 0.472229
C34   C     C_R   0.604952 0.438908 0.097741 -0.136494
C35   C     C_R   0.377889 0.446895 0.275103 0.470958
C36   C     C_R   0.526058 0.445080 0.745958 0.175857
C37   C     C_R   0.538535 0.496237 0.250221 0.141124
C38   C     C_3   0.692793 0.834652 0.643591 -0.825665
C39   C     C_3   0.065190 0.469146 0.360174 -0.770940
C40   C     C_3   0.924608 0.746619 0.259818 -0.656040
C41   C     C_3   0.347275 0.070118 0.726897 -0.631575
C42   C     C_3   0.874633 0.028371 0.476313 -0.727891
C43   C     C_3   0.275813 0.030659 0.587947 -0.813512
C44   C     C_R   0.720048 0.505138 0.864216 -0.086880
C45   C     C_R   0.544992 0.311065 0.127110 -0.093166
C46   C     C_R   0.845271 0.606126 0.885177 0.522990
C47   C     C_R   0.493174 0.168756 0.104822 0.503408
C48   C     C_R   0.471623 0.316099 0.874726 -0.014418
H1    H     H_    0.014213 0.380743 0.464237 0.193402
H2    H     H_    0.443297 0.053073 0.037461 0.143070
H3    H     H_    0.438254 0.775191 0.629620 0.241435
H4    H     H_    0.755808 0.768768 0.612715 0.252634
H5    H     H_    0.773370 0.835220 0.675108 0.271400
H6    H     H_    0.685592 0.956199 0.632159 0.232921
H7    H     H_    0.229358 0.306363 0.381321 0.232585
H8    H     H_    0.094581 0.562988 0.386852 0.256788
H9    H     H_    0.948019 0.397820 0.374499 0.251897
H10   H     H_    0.037652 0.522034 0.325631 0.264593
H11   H     H_    0.545505 0.817278 0.742229 0.360346
H12   H     H_    0.985932 0.618839 0.536019 0.193985
H13   H     H_    0.147814 0.343412 0.268085 0.368365
H14   H     H_    0.039243 0.762105 0.876343 0.325612
H15   H     H_    0.409404 0.951594 0.111678 0.329740
H16   H     H_    0.871981 0.547088 0.217939 0.242513
H17   H     H_    0.054514 0.758772 0.239311 0.255397
H18   H     H_    0.942534 0.770394 0.298870 0.212938
H19   H     H_    0.842485 0.834016 0.246470 0.286478
H20   H     H_    0.616590 0.105055 0.722013 0.227602
H21   H     H_    0.323376 0.984517 0.756622 0.269970
H22   H     H_    0.355554 0.008383 0.691262 0.214602
H23   H     H_    0.760017 0.611368 0.347139 0.183769
H24   H     H_    0.234210 0.142968 0.728569 0.272303
H25   H     H_    0.708623 0.955736 0.424250 0.217385
H26   H     H_    0.967452 0.094008 0.450039 0.217587
H27   H     H_    0.923704 0.912616 0.480950 0.232074
H28   H     H_    0.868772 0.091880 0.511839 0.252335
H29   H     H_    0.169849 0.002227 0.521941 0.236374
H30   H     H_    0.173423 0.957221 0.608940 0.247547
H31   H     H_    0.244466 0.153695 0.592388 0.253668
H32   H     H_    0.401943 0.015651 0.602623 0.231926
H33   H     H_    0.503527 0.237361 0.640507 0.163093
H34   H     H_    0.750640 0.819746 0.106376 0.199191
H35   H     H_    0.266012 0.135962 0.889227 0.183482
H36   H     H_    0.809526 0.785010 0.019742 0.148909
H37   H     H_    0.314836 0.108880 0.973747 0.144781
H38   H     H_    0.934730 0.699675 0.951892 0.140573
N1    N     N_R   0.556164 0.426367 0.796368 -0.340442
N2    N     N_2   0.283353 0.984631 0.537133 -0.283477
N3    N     N_R   0.561376 0.476889 0.198092 -0.349495
N4    N     N_2   0.950320 0.457960 0.486880 -0.181069
N5    N     N_2   0.049680 0.542040 0.513120 -0.173388
N6    N     N_2   0.519626 0.766960 0.656988 -0.336989
N7    N     N_2   0.208986 0.371885 0.351691 -0.314633
N8    N     N_2   0.847375 0.591378 0.252657 -0.301896
N9    N     N_2   0.507549 0.162568 0.733007 -0.289793
N10   N     N_2   0.705708 0.013334 0.457460 -0.292682
O1    O     O_R   0.389250 0.738570 0.503220 -0.599286
O2    O     O_2   0.507565 0.207818 0.207529 -0.453123
O3    O     O_2   0.614121 0.746705 0.189511 -0.522725
O4    O     O_2   0.288042 0.281502 0.810338 -0.545752
O5    O     O_3   0.527197 0.718950 0.760098 -0.741570
O6    O     O_3   0.244291 0.395106 0.247302 -0.742347
O7    O     O_3   0.961921 0.698616 0.855746 -0.686671
O8    O     O_3   0.440063 0.040940 0.133102 -0.676393
O9    O     O_R   0.610750 0.261430 0.496780 -0.586041
O10   O     O_R   0.678390 0.711630 0.494810 -0.634949
O11   O     O_R   0.321610 0.288370 0.505190 -0.640925
O12   O     O_R   0.355440 0.513440 0.575450 -0.611201
O13   O     O_R   0.644560 0.486560 0.424550 -0.623221
O14   O     O_R   0.644590 0.486500 0.567040 -0.619275
O15   O     O_R   0.355410 0.513500 0.432960 -0.626551
O16   O     O_2   0.823550 0.571541 0.782499 -0.466116
Zn1   Zn    Zn3+2 0.306940 0.517990 0.505620 0.938149
Zn2   Zn    Zn3+2 0.693060 0.482010 0.494380 0.934820

loop_
_geom_bond_atom_site_label_1
_geom_bond_atom_site_label_2
_ccdc_geom_bond_type
C38   N6    S    
C27   C29   A    
C27   N9    S    
H1    N4    S    
H7    N7    S    
C35   O6    S    
C24   N3    A    
C30   H23   S    
C16   O14   A    
C43   H30   S    
C29   H33   S    
C42   H27   S    
C18   H38   S    
O10   Zn2   S    
C42   N10   S    
C43   N2    S    
C35   C37   A    
C5    C11   A    
C12   O9    A    
C11   C14   A    
C19   C47   A    
C38   H4    S    
C43   H31   S    
C39   H9    S    
C17   O15   A    
C25   N1    A    
C33   C36   A    
C28   N8    S    
C3    C29   A    
O11   Zn1   S    
C7    C19   A    
C39   N7    S    
H29   N2    S    
C40   H19   S    
C31   C33   A    
C23   C48   A    
O14   Zn2   S    
C1    O10   A    
C2    C34   A    
C32   N7    S    
C20   N10   S    
C21   N2    S    
C40   H18   S    
C15   C48   A    
C18   C46   A    
C44   C46   A    
C45   C47   A    
C36   N1    S    
C22   C44   A    
C42   H26   S    
H20   N9    S    
H11   O5    S    
C32   C35   A    
O9    Zn2   S    
C2    C26   A    
C1    O1    A    
C15   H35   S    
C43   H32   S    
C39   H10   S    
C12   C21   S    
C8    C18   A    
C23   C44   A    
N5    Zn1   S    
C26   N3    A    
O12   Zn1   S    
C5    C9    A    
H3    N6    S    
C5    C8    A    
C25   O4    S    
C39   H8    S    
C38   H6    S    
O15   Zn1   S    
C34   C45   A    
C22   N1    A    
C3    C31   A    
C25   C48   A    
C4    C32   A    
O13   Zn2   S    
C41   H24   S    
C4    C17   S    
C22   O16   S    
C40   H17   S    
C13   C15   A    
C9    C34   A    
C11   H36   S    
C24   O2    S    
C24   C45   A    
O1    Zn1   S    
C41   H21   S    
H14   O7    S    
H12   N5    S    
C7    C9    A    
C1    C20   S    
C47   O8    S    
C40   N8    S    
H15   O8    S    
C17   O13   A    
C6    C10   A    
C12   O11   A    
C6    C7    A    
C10   C23   A    
C46   O7    S    
C26   O3    S    
C42   H28   S    
C37   N3    S    
C27   C36   A    
C33   O5    S    
C28   C30   A    
H13   O6    S    
H16   N8    S    
C6    C13   A    
C19   H2    S    
N4    N5    D    
C41   N9    S    
C38   H5    S    
C28   C37   A    
N4    Zn2   S    
C2    C14   A    
C16   O12   A    
C20   C21   D    
C8    C10   A    
C31   N6    S    
C13   H37   S    
C14   H34   S    
H25   N10   S    
C4    C30   A    
C3    C16   S    
C41   H22   S    
