data_str_m3_o11_o17_f0_pcu.sym.141
_audit_creation_date              2012-12-10T17:04:28-0500
_audit_creation_method            fapswitch 2.2
_symmetry_space_group_name_H-M    P1
_symmetry_Int_Tables_number       1
_space_group_crystal_system       triclinic
_cell_length_a                    14.921837
_cell_length_b                    10.236686
_cell_length_c                    10.072011
_cell_angle_alpha                 90.849944
_cell_angle_beta                  87.906711
_cell_angle_gamma                 92.299019
_cell_volume                      1536.09938851

loop_
_atom_site_label
_atom_site_type_symbol
_atom_type_description
_atom_site_fract_x
_atom_site_fract_y
_atom_site_fract_z
_atom_type_partial_charge
C1    C     C_R   0.485036 0.260457 0.499095 0.829721
C2    C     C_R   0.181194 0.446417 0.602651 -0.293713
C3    C     C_R   0.231173 0.517406 0.507197 -0.198493
C4    C     C_R   0.326989 0.505858 0.502025 0.885728
C5    C     C_R   0.190066 0.599951 0.419670 0.467436
C6    C     C_2   0.488129 0.962500 0.406035 0.012504
C7    C     C_2   0.475312 0.879909 0.509895 0.318154
C8    C     C_2   0.422809 0.065365 0.392985 0.221534
C9    C     C_2   0.415929 0.153392 0.493446 0.110363
C10   C     C_2   0.553047 0.578962 0.919554 0.551190
C11   C     C_2   0.548534 0.584791 0.073041 0.513559
C12   C     C_R   0.909619 0.617755 0.438742 -0.066501
C13   C     C_R   0.499877 0.742249 0.501521 0.807763
C14   C     C_R   0.672933 0.501144 0.498486 0.988422
C15   C     C_R   0.815830 0.614392 0.441282 0.411532
C16   C     C_R   0.768803 0.507603 0.498901 -0.337497
C17   C     C_R   0.811402 0.418293 0.576701 0.453679
C18   C     C_R   0.902253 0.440276 0.602007 -0.185992
C19   C     C_R   0.952682 0.531463 0.522223 -0.187719
C20   C     C_3   0.760385 0.812177 0.493161 -0.271118
C21   C     C_3   0.348110 0.849587 0.646985 -0.304566
C22   C     C_3   0.343411 0.028425 0.308882 -0.827915
C23   C     C_R   0.944544 0.371363 0.701524 0.468459
C24   C     C_3   0.324281 0.182674 0.551234 -0.862996
C25   C     C_3   0.585457 0.789739 0.857159 -0.258867
C26   C     C_3   0.378968 0.367217 0.877824 -0.045380
C27   C     C_3   0.688851 0.661779 0.123950 -0.301602
C28   C     C_3   0.570266 0.313089 0.103597 -0.259541
C29   C     C_3   0.762020 0.208458 0.542633 -0.256089
C30   C     C_3   0.857242 0.378176 0.891685 -0.237064
C31   C     C_3   0.106737 0.371892 0.904321 -0.342560
C32   C     C_3   0.237272 0.608412 0.201945 -0.256358
C33   C     C_3   0.925242 0.739758 0.142693 -0.318239
C34   C     C_R   0.038141 0.377057 0.705728 0.427377
C35   C     C_3   0.551932 0.938615 0.289777 -0.890424
C36   C     C_R   0.088685 0.452125 0.611257 -0.058194
C37   C     C_R   0.046160 0.533616 0.523338 -0.012249
C38   C     C_R   0.097190 0.613614 0.432994 -0.009689
C39   C     C_R   0.054430 0.703368 0.356033 -0.326978
C40   C     C_R   0.961104 0.704690 0.356096 0.551439
H1    H     H_    0.214515 0.382407 0.667099 0.201935
H2    H     H_    0.308820 0.117205 0.280030 0.234388
H3    H     H_    0.365976 0.978403 0.215797 0.238610
H4    H     H_    0.289835 0.247429 0.484204 0.220985
H5    H     H_    0.282003 0.091979 0.564349 0.258265
H6    H     H_    0.330308 0.228200 0.650311 0.221120
H7    H     H_    0.610777 0.839658 0.947589 0.188079
H8    H     H_    0.511174 0.797199 0.854413 0.181171
H9    H     H_    0.615068 0.844086 0.770678 0.179137
H10   H     H_    0.427412 0.295759 0.837105 0.165382
H11   H     H_    0.323095 0.378848 0.811580 0.131871
H12   H     H_    0.092958 0.771391 0.292986 0.199741
H13   H     H_    0.347959 0.324811 0.970090 0.151609
H14   H     H_    0.714451 0.649368 0.020234 0.157758
H15   H     H_    0.706152 0.574769 0.180401 0.191279
H16   H     H_    0.725719 0.749043 0.163273 0.253678
H17   H     H_    0.608848 0.340025 0.192776 0.179590
H18   H     H_    0.613153 0.333205 0.013210 0.118175
H19   H     H_    0.554286 0.206439 0.105857 0.176036
H20   H     H_    0.723315 0.124927 0.588492 0.177925
H21   H     H_    0.831304 0.176256 0.519361 0.171296
H22   H     H_    0.728508 0.232828 0.449704 0.118953
H23   H     H_    0.826583 0.846895 0.530725 0.176593
H24   H     H_    0.799670 0.429537 0.852970 0.189847
H25   H     H_    0.906515 0.451766 0.931584 0.094271
H26   H     H_    0.831219 0.317390 0.975944 0.172841
H27   H     H_    0.142068 0.466195 0.877212 0.145878
H28   H     H_    0.154392 0.314742 0.959658 0.185812
H29   H     H_    0.048509 0.390307 0.972574 0.175955
H30   H     H_    0.251961 0.502802 0.206707 0.175627
H31   H     H_    0.288582 0.655148 0.133591 0.202859
H32   H     H_    0.170788 0.618719 0.157995 0.128802
H33   H     H_    0.887871 0.803939 0.078409 0.195974
H34   H     H_    0.716014 0.774956 0.576505 0.154033
H35   H     H_    0.893308 0.639708 0.136389 0.136023
H36   H     H_    0.995683 0.739284 0.102596 0.150558
H37   H     H_    0.586872 0.032315 0.261375 0.215688
H38   H     H_    0.604379 0.870692 0.315224 0.282314
H39   H     H_    0.514660 0.899216 0.203722 0.282717
H40   H     H_    0.728973 0.898203 0.451769 0.165030
H41   H     H_    0.359108 0.762013 0.706887 0.206199
H42   H     H_    0.314489 0.820855 0.553439 0.165805
H43   H     H_    0.301256 0.910249 0.706687 0.183629
H44   H     H_    0.295255 0.961621 0.363650 0.254949
N1    N     N_2   0.500970 0.501330 0.852150 0.048306
N2    N     N_2   0.500990 0.501360 0.147810 0.084274
O1    O     O_R   0.499990 0.319060 0.613040 -0.607638
O2    O     O_3   0.429459 0.923195 0.624554 -0.630259
O3    O     O_3   0.613539 0.659513 0.848398 -0.643708
O4    O     O_3   0.417423 0.491233 0.908510 -0.587531
O5    O     O_3   0.596100 0.684408 0.136252 -0.639761
O6    O     O_3   0.489088 0.379115 0.097092 -0.540703
O7    O     O_3   0.762346 0.314426 0.633669 -0.562971
O8    O     O_3   0.896068 0.295316 0.793700 -0.532819
O9    O     O_3   0.079620 0.297202 0.792713 -0.572869
O10   O     O_3   0.241651 0.672011 0.327329 -0.630344
O11   O     O_3   0.920730 0.790166 0.273863 -0.565789
O12   O     O_R   0.500010 0.319100 0.386900 -0.602885
O13   O     O_R   0.367830 0.499950 0.613080 -0.631638
O14   O     O_R   0.367860 0.499990 0.386940 -0.572575
O15   O     O_R   0.499990 0.680900 0.613100 -0.588222
O16   O     O_R   0.500010 0.680940 0.386960 -0.558813
O17   O     O_R   0.632140 0.500010 0.613060 -0.551724
O18   O     O_R   0.632170 0.500050 0.386920 -0.629520
O19   O     O_3   0.769545 0.716280 0.391923 -0.586538
Zn1   Zn    Zn3+2 0.499980 0.499970 0.650990 1.009410
Zn2   Zn    Zn3+2 0.500020 0.500030 0.349010 1.026815

loop_
_geom_bond_atom_site_label_1
_geom_bond_atom_site_label_2
_ccdc_geom_bond_type
C1    O1    A    
C10   N1    D    
C30   H24   S    
N2    Zn2   S    
C27   H14   S    
C32   H32   S    
C28   H17   S    
C31   H27   S    
C24   H5    S    
C36   C37   A    
C26   H10   S    
C38   C39   A    
C27   H15   S    
C11   N2    D    
C15   C16   A    
C6    C35   S    
C18   C19   A    
C19   C37   A    
C33   H35   S    
C22   H3    S    
C10   O3    S    
C8    C9    D    
C8    C22   S    
C12   C15   A    
C27   O5    S    
C25   H7    S    
C33   O11   S    
C39   H12   S    
C21   O2    S    
C5    C38   A    
C32   H31   S    
C31   H28   S    
C29   H21   S    
C20   H40   S    
C18   C23   A    
C21   H43   S    
C1    C9    S    
C34   O9    S    
C39   C40   A    
C27   H16   S    
C16   C17   A    
C32   H30   S    
C35   H37   S    
O12   Zn2   S    
C22   H44   S    
C12   C40   A    
C37   C38   A    
C33   H36   S    
C14   O18   A    
C7    O2    S    
C29   H20   S    
C31   H29   S    
C23   C34   A    
C17   C18   A    
C20   H34   S    
O16   Zn2   S    
C28   O6    S    
C25   H8    S    
C30   H26   S    
C33   H33   S    
C32   O10   S    
C21   H41   S    
C4    O14   A    
C24   H4    S    
C14   C16   S    
C17   O7    S    
C13   O15   A    
N1    Zn1   S    
C26   H13   S    
C40   O11   S    
C5    O10   S    
C20   O19   S    
C28   H19   S    
C2    C36   A    
O15   Zn1   S    
O13   Zn1   S    
C29   H22   S    
O14   Zn2   S    
C3    C5    A    
C1    O12   A    
C6    C8    S    
N1    O4    S    
C9    C24   S    
C6    C7    D    
C28   H18   S    
C26   O4    S    
C35   H38   S    
C25   O3    S    
C23   O8    S    
C24   H6    S    
C15   O19   S    
C20   H23   S    
C2    C3    A    
C30   O8    S    
N2    O6    S    
C26   H11   S    
C29   O7    S    
C14   O17   A    
C22   H2    S    
O1    Zn1   S    
C31   O9    S    
C12   C19   A    
C35   H39   S    
O17   Zn1   S    
C34   C36   A    
C25   H9    S    
C30   H25   S    
C10   C11   S    
C11   O5    S    
C7    C13   S    
C21   H42   S    
C4    O13   A    
C2    H1    S    
C13   O16   A    
O18   Zn2   S    
C3    C4    S    
