data_str_m2_o16_o18_f0_pcu.sym.181
_audit_creation_date              2012-12-10T17:32:59-0500
_audit_creation_method            fapswitch 2.2
_symmetry_space_group_name_H-M    P1
_symmetry_Int_Tables_number       1
_space_group_crystal_system       triclinic
_cell_length_a                    12.374371
_cell_length_b                    13.26259
_cell_length_c                    14.18224
_cell_angle_alpha                 93.812986
_cell_angle_beta                  107.383034
_cell_angle_gamma                 116.756562
_cell_volume                      1927.43537199

loop_
_atom_site_label
_atom_site_type_symbol
_atom_type_description
_atom_site_fract_x
_atom_site_fract_y
_atom_site_fract_z
_atom_type_partial_charge
C1    C     C_R   0.651575 0.714389 0.510065 0.775444
C2    C     C_R   0.881699 0.546225 0.921679 0.087418
C3    C     C_R   0.867155 0.608494 0.997574 0.171240
C4    C     C_R   0.986197 0.522189 0.947416 0.064936
C5    C     C_R   0.063633 0.545485 0.051538 0.069765
C6    C     C_R   0.047881 0.609367 0.125279 -0.237330
C7    C     C_R   0.953505 0.642895 0.097913 -0.248558
C8    C     C_R   0.018424 0.479373 0.872114 -0.230929
C9    C     C_R   0.117076 0.451857 0.898213 -0.226898
C10   C     C_R   0.184759 0.463237 0.999713 0.145777
C11   C     C_R   0.157610 0.507970 0.077606 0.087554
C12   C     C_R   0.619657 0.519098 0.687202 0.789386
C13   C     C_R   0.281155 0.431739 0.023516 -0.239927
C14   C     C_R   0.351436 0.441307 0.124278 -0.005801
C15   C     C_R   0.222838 0.510622 0.178485 -0.275043
C16   C     C_R   0.161603 0.957461 0.397843 -0.233214
C17   C     C_R   0.257815 0.161119 0.476632 -0.110591
C18   C     C_R   0.739742 0.920049 0.589037 -0.177078
C19   C     C_R   0.838634 0.034828 0.619292 -0.170805
C20   C     C_R   0.939360 0.070036 0.582926 -0.200596
C21   C     C_R   0.941000 0.990803 0.511904 0.083878
C22   C     C_R   0.836467 0.874680 0.477502 0.079099
C23   C     C_R   0.347713 0.285076 0.488574 0.798682
C24   C     C_R   0.046501 0.020986 0.478145 0.074177
C25   C     C_R   0.049513 0.934035 0.417267 0.152842
C26   C     C_R   0.940684 0.824210 0.376644 -0.233928
C27   C     C_R   0.832968 0.797175 0.402013 -0.210608
C28   C     C_R   0.148945 0.134791 0.502498 -0.276765
C29   C     C_R   0.269791 0.069330 0.432240 -0.002306
C30   C     C_R   0.739958 0.838217 0.521277 -0.102194
C31   C     C_R   0.253130 0.687327 0.660933 -0.297718
C32   C     C_R   0.655488 0.339953 0.365176 0.137125
C33   C     C_R   0.733336 0.303945 0.336446 -0.243060
C34   C     C_R   0.382639 0.484169 0.312403 0.792786
C35   C     C_R   0.868070 0.364130 0.386784 -0.222715
C36   C     C_R   0.927845 0.461701 0.467952 -0.002411
C37   C     C_R   0.843683 0.495131 0.495520 0.275540
C38   C     C_R   0.067333 0.526632 0.523162 -0.039177
C39   C     C_R   0.118624 0.622426 0.605028 0.171417
C40   C     C_R   0.035679 0.653184 0.631067 -0.281069
C41   C     C_R   0.901973 0.591371 0.577757 -0.186657
C42   C     C_R   0.159385 0.501444 0.501450 0.011199
C43   C     C_R   0.337643 0.658047 0.636008 0.065824
C44   C     C_R   0.695222 0.542028 0.795511 -0.054618
C45   C     C_R   0.319700 0.478327 0.203583 -0.109703
C46   C     C_R   0.766937 0.636539 0.971774 -0.188750
C47   C     C_R   0.682230 0.604658 0.870912 -0.193001
C48   C     C_R   0.790475 0.509143 0.822183 -0.262258
Cu1   Cu    Cu3+1 0.416420 0.526630 0.522910 0.930425
Cu2   Cu    Cu3+1 0.583580 0.473370 0.477090 0.926894
H1    H     H_    0.947461 0.695302 0.155896 0.129048
H2    H     H_    0.304360 0.402036 0.962955 0.141390
H3    H     H_    0.938638 0.759158 0.324702 0.129185
H4    H     H_    0.166226 0.887026 0.359018 0.135487
H5    H     H_    0.143531 0.205418 0.538576 0.159620
H6    H     H_    0.666772 0.894117 0.623261 0.150600
H7    H     H_    0.016194 0.158854 0.614681 0.128500
H8    H     H_    0.840174 0.096142 0.674721 0.136219
H9    H     H_    0.748419 0.713695 0.363088 0.167826
H10   H     H_    0.441265 0.708253 0.679221 0.114871
H11   H     H_    0.196906 0.535154 0.238753 0.161238
H12   H     H_    0.074706 0.726403 0.693914 0.156384
H13   H     H_    0.292850 0.760634 0.723817 0.135841
H14   H     H_    0.128582 0.430277 0.440173 0.123593
H15   H     H_    0.551120 0.292335 0.325058 0.139456
H16   H     H_    0.922999 0.332178 0.361006 0.135804
H17   H     H_    0.688827 0.228861 0.274292 0.141477
H18   H     H_    0.847815 0.622151 0.604416 0.209106
H19   H     H_    0.139471 0.420094 0.838220 0.143479
H20   H     H_    0.755534 0.684718 0.029316 0.131677
H21   H     H_    0.608691 0.630893 0.851719 0.148092
H22   H     H_    0.790831 0.453423 0.763574 0.151030
H23   H     H_    0.111174 0.639388 0.204294 0.145716
H24   H     H_    0.972773 0.470599 0.792039 0.151011
N1    N     N_R   0.290690 0.566960 0.557640 -0.176039
N2    N     N_R   0.709100 0.433710 0.442970 -0.213004
O1    O     O_R   0.545970 0.684450 0.528810 -0.578380
O2    O     O_R   0.687130 0.639470 0.490120 -0.601824
O3    O     O_R   0.519670 0.535100 0.660030 -0.582649
O4    O     O_R   0.660830 0.490120 0.621340 -0.602832
O5    O     O_R   0.312870 0.360530 0.509880 -0.584181
O6    O     O_R   0.454030 0.315550 0.471190 -0.581462
O7    O     O_R   0.339170 0.509880 0.378660 -0.581322
O8    O     O_R   0.480330 0.464900 0.339970 -0.582014
C49   C     C_R   0.393862 0.082945 0.427735 0.136014
C50   C     C_R   0.396789 0.033640 0.338181 -0.182404
C51   C     C_R   0.509503 0.033064 0.338252 -0.167993
C52   C     C_R   0.620599 0.082773 0.427144 -0.090020
C53   C     C_R   0.619509 0.134014 0.515907 -0.131053
C54   C     C_R   0.506209 0.132439 0.516827 -0.094824
H25   H     H_    0.311210 0.993962 0.268815 0.128113
H26   H     H_    0.510834 0.994276 0.269308 0.129962
H27   H     H_    0.708087 0.083155 0.426706 0.145881
H28   H     H_    0.706014 0.174171 0.584356 0.120147
H29   H     H_    0.505532 0.168555 0.587304 0.112768
C55   C     C_R   0.461363 0.418853 0.140313 0.144335
C56   C     C_R   0.589052 0.512455 0.179696 -0.110048
C57   C     C_R   0.692697 0.495693 0.179899 -0.126131
C58   C     C_R   0.669120 0.386707 0.136320 -0.087829
C59   C     C_R   0.542123 0.292794 0.096921 -0.172864
C60   C     C_R   0.438443 0.308542 0.099168 -0.179085
H30   H     H_    0.607156 0.598774 0.206864 0.102555
H31   H     H_    0.790968 0.567482 0.212570 0.118281
H32   H     H_    0.749489 0.374611 0.134730 0.135270
H33   H     H_    0.523968 0.208052 0.064071 0.128754
H34   H     H_    0.340034 0.235954 0.065872 0.129528

loop_
_geom_bond_atom_site_label_1
_geom_bond_atom_site_label_2
_ccdc_geom_bond_type
C51   C52   A    
C23   O6    A    
C17   C29   A    
C19   C20   A    
C4    C8    A    
C56   C57   A    
Cu2   O8    S    
C54   H29   S    
C49   C50   A    
Cu2   O6    S    
C59   H33   S    
C17   C23   S    
C31   C43   A    
C21   C22   A    
C36   C37   A    
C9    H19   S    
C38   C42   A    
C3    C7    A    
C50   H25   S    
C5    C6    A    
C57   H31   S    
C12   O3    A    
C16   C25   A    
C40   H12   S    
C18   C19   A    
Cu1   O5    S    
C53   H28   S    
C1    C30   S    
C52   H27   S    
C11   C15   A    
C35   C36   A    
C31   C39   A    
C8    C9    A    
Cu1   N1    S    
C18   C30   A    
C13   C14   A    
C41   H18   S    
C23   O5    A    
C9    C10   A    
C29   C49   S    
C56   H30   S    
C44   C47   A    
C18   H6    S    
C58   H32   S    
C55   C60   A    
C1    O2    A    
C15   H11   S    
C34   O8    A    
C48   H22   S    
Cu2   O2    S    
C14   C55   S    
C28   H5    S    
C14   C45   A    
C19   H8    S    
C43   N1    A    
C31   H13   S    
C24   C25   A    
C39   C40   A    
C50   C51   A    
C35   H16   S    
C2    C48   A    
C16   C29   A    
Cu1   O3    S    
C2    C4    A    
Cu2   N2    S    
C13   H2    S    
C58   C59   A    
C55   C56   A    
C8    H24   S    
C42   N1    A    
C34   C45   S    
C20   C21   A    
C47   H21   S    
C43   H10   S    
C40   C41   A    
C37   N2    A    
C57   C58   A    
C22   C27   A    
C26   C27   A    
C34   O7    A    
C15   C45   A    
C53   C54   A    
C26   H3    S    
C42   H14   S    
C33   H17   S    
C6    H23   S    
C60   H34   S    
C46   C47   A    
C22   C30   A    
C17   C28   A    
C24   C28   A    
C4    C5    A    
C10   C13   A    
Cu2   O4    S    
C32   N2    A    
C49   C54   A    
C5    C11   A    
C6    C7    A    
C3    C46   A    
C32   C33   A    
Cu1   O7    S    
C36   C38   A    
C2    C3    A    
C25   C26   A    
C7    H1    S    
C12   C44   S    
C27   H9    S    
C38   C39   A    
C12   O4    A    
C59   C60   A    
C33   C35   A    
Cu1   O1    S    
C37   C41   A    
C16   H4    S    
C46   H20   S    
C10   C11   A    
C52   C53   A    
Cu1   Cu2   S    
C21   C24   A    
C1    O1    A    
C20   H7    S    
C51   H26   S    
C44   C48   A    
C32   H15   S    
