data_str_m2_o10_o28_f0_pcu.sym.178
_audit_creation_date              2013-03-05T15:41:54-0500
_audit_creation_method            fapswitch 2.2
_symmetry_space_group_name_H-M    P1
_symmetry_Int_Tables_number       1
_space_group_crystal_system       triclinic
_cell_length_a                    23.4098
_cell_length_b                    8.824903
_cell_length_c                    7.528613
_cell_angle_alpha                 103.386472
_cell_angle_beta                  95.529728
_cell_angle_gamma                 93.898836
_cell_volume                      1499.46777288

loop_
_atom_site_label
_atom_site_type_symbol
_atom_site_description
_atom_site_fract_x
_atom_site_fract_y
_atom_site_fract_z
_atom_type_partial_charge
O1    O     O_R   0.504120 0.286130 0.619770 -0.590671
O2    O     O_R   0.495880 0.713870 0.380230 -0.583272
O3    O     O_R   0.493410 0.256770 0.308360 -0.592777
O4    O     O_R   0.506590 0.743230 0.691640 -0.602781
C1    C     C_R   0.497325 0.200376 0.453699 0.805141
C2    C     C_R   0.501561 0.799495 0.546450 0.832001
O5    O     O_R   0.423230 0.514630 0.655730 -0.597267
O6    O     O_R   0.576770 0.485370 0.344270 -0.575724
O7    O     O_R   0.412530 0.485280 0.344320 -0.551940
O8    O     O_R   0.587470 0.514720 0.655680 -0.606256
C3    C     C_R   0.390748 0.491333 0.498361 0.844138
C4    C     C_R   0.608896 0.505285 0.500848 0.878643
Cu1   Cu    Cu3+1 0.506340 0.517380 0.684380 0.969650
Cu2   Cu    Cu3+1 0.493660 0.482620 0.315620 1.000191
C5    C     C_R   0.891250 0.672254 0.577890 0.652799
C6    C     C_R   0.106484 0.383931 0.368542 0.647225
N1    N     N_R   0.851658 0.571225 0.452080 -0.439634
N2    N     N_R   0.145626 0.507194 0.457555 -0.434065
C7    C     C_R   0.869929 0.471828 0.303662 0.607090
C8    C     C_R   0.127700 0.651568 0.526690 0.615868
C9    C     C_R   0.929013 0.448222 0.302041 -0.150248
C10   C     C_R   0.068394 0.670979 0.528021 -0.164269
C11   C     C_R   0.968987 0.560582 0.423555 -0.152944
C12   C     C_R   0.028491 0.546503 0.426513 -0.144791
C13   C     C_R   0.949293 0.685689 0.546292 -0.174832
C14   C     C_R   0.047918 0.406174 0.332033 -0.151210
C15   C     C_R   0.949318 0.316938 0.186806 0.421076
C16   C     C_R   0.047736 0.810120 0.626081 0.399087
C17   C     C_R   0.008427 0.292574 0.207019 0.387439
C18   C     C_R   0.988292 0.815739 0.638601 0.399630
O9    O     O_2   0.875589 0.752567 0.737456 -0.548601
O10   O     O_2   0.124037 0.239546 0.321335 -0.581306
O11   O     O_2   0.831055 0.394327 0.162602 -0.512831
O12   O     O_2   0.167288 0.774823 0.594108 -0.524183
C19   C     C_R   0.241373 0.527985 0.643964 -0.089764
C20   C     C_R   0.762613 0.413851 0.482957 -0.028962
C21   C     C_R   0.301141 0.524810 0.651879 -0.302901
C22   C     C_R   0.703299 0.397598 0.490996 -0.328087
H1    H     H_    0.327515 0.567484 0.783028 0.208976
H2    H     H_    0.681589 0.283534 0.484763 0.180559
C23   C     C_R   0.327231 0.473598 0.491624 -0.200869
C24   C     C_R   0.671606 0.526954 0.505010 -0.178748
C25   C     C_R   0.292121 0.410900 0.322758 0.364191
C26   C     C_R   0.699971 0.677084 0.524145 0.363515
C27   C     C_R   0.232309 0.425281 0.311349 0.447983
C28   C     C_R   0.759928 0.693934 0.510707 0.442195
C29   C     C_R   0.206704 0.485812 0.472079 0.132961
C30   C     C_R   0.791139 0.560016 0.481472 0.130121
C31   C     C_2   0.490286 0.033244 0.430454 -0.234206
C32   C     C_2   0.507076 0.966761 0.570995 -0.223336
N3    N     N_2   0.484110 0.456420 0.038520 -0.211201
N4    N     N_2   0.515890 0.543580 0.961480 -0.216163
O13   O     O_3   0.912560 0.214388 0.049612 -0.543426
C33   C     C_3   0.886901 0.093608 0.118914 -0.212500
H3    H     H_    0.840286 0.106529 0.122762 0.213294
H4    H     H_    0.906762 0.086164 0.256872 0.102491
H5    H     H_    0.890002 0.980192 0.021998 0.221754
O14   O     O_3   0.085430 0.934454 0.727698 -0.536507
C34   C     C_3   0.100400 0.034416 0.613995 -0.142233
H6    H     H_    0.099551 0.973494 0.466375 0.148068
H7    H     H_    0.145366 0.086309 0.659163 0.181245
H8    H     H_    0.072511 0.132117 0.629738 0.159618
O15   O     O_3   0.028586 0.171151 0.083928 -0.503154
C35   C     C_3   0.025267 0.033135 0.148966 -0.069165
H9    H     H_    0.986753 0.954705 0.080202 0.179863
H10   H     H_    0.024902 0.054277 0.299736 0.049357
H11   H     H_    0.063365 0.969267 0.112964 0.205870
O16   O     O_3   0.969130 0.949122 0.742812 -0.518451
C36   C     C_3   0.944155 0.035329 0.624244 -0.185303
H12   H     H_    0.907272 0.966905 0.528863 0.165398
H13   H     H_    0.976346 0.077715 0.544563 0.093088
H14   H     H_    0.927728 0.140204 0.707794 0.235034
C37   C     C_1   0.216997 0.586188 0.812814 0.378539
N5    N     N_1   0.197348 0.635615 0.947230 -0.212141
C38   C     C_1   0.794089 0.278833 0.476612 0.321738
N6    N     N_1   0.820088 0.171542 0.470245 -0.331399
O17   O     O_3   0.315924 0.343893 0.165051 -0.562797
C39   C     C_3   0.330186 0.192213 0.174147 -0.292847
H15   H     H_    0.297545 0.127142 0.233922 0.135264
H16   H     H_    0.372884 0.197604 0.254212 0.172897
H17   H     H_    0.332839 0.122725 0.032711 0.206344
O18   O     O_3   0.669103 0.807170 0.544060 -0.567543
C40   C     C_3   0.656145 0.853306 0.727664 -0.323560
H18   H     H_    0.686519 0.817811 0.830821 0.146440
H19   H     H_    0.612259 0.805836 0.738431 0.199644
H20   H     H_    0.657211 0.982636 0.766887 0.191731
O19   O     O_3   0.199319 0.404165 0.142697 -0.568956
C41   C     C_3   0.196987 0.248923 0.036678 -0.119447
H21   H     H_    0.205065 0.161089 0.118874 0.165058
H22   H     H_    0.227194 0.241711 0.930722 0.173809
H23   H     H_    0.152784 0.216980 0.964829 0.213868
O20   O     O_3   0.787907 0.838385 0.513644 -0.563388
C42   C     C_3   0.786458 0.944344 0.685978 -0.114821
H24   H     H_    0.781252 0.887241 0.801620 0.130691
H25   H     H_    0.752495 0.024376 0.675170 0.185638
H26   H     H_    0.827992 0.017919 0.724099 0.207148
C43   C     C_1   0.460105 0.945701 0.254530 0.289697
N7    N     N_1   0.436034 0.876927 0.114457 -0.274905
C44   C     C_1   0.535031 0.054758 0.750014 0.290737
N8    N     N_1   0.557192 0.123865 0.892662 -0.272032
C45   C     C_1   0.442202 0.348942 0.926104 0.606636
N9    N     N_1   0.407084 0.258593 0.833556 -0.353381
C46   C     C_1   0.557649 0.652081 0.073072 0.556638
N10   N     N_1   0.592717 0.743488 0.164139 -0.296279

loop_
_geom_bond_atom_site_label_1
_geom_bond_atom_site_label_2
_geom_bond_distance
_ccdc_geom_bond_type
O19   C41   1.411408 S    
C17   O15   1.386715 S    
N4    C46   1.385733 S    
C42   H24   1.114465 S    
C15   C17   1.413884 A    
C37   N5    1.156948 T    
N1    C30   1.455124 S    
C38   N6    1.154210 T    
C19   C29   1.416086 A    
N2    C29   1.451914 S    
C43   N7    1.157838 T    
O17   C39   1.416582 S    
O5    C3    1.310152 A    
C32   C44   1.457415 S    
C45   N9    1.157697 T    
O1    C1    1.291664 A    
C27   O19   1.387524 S    
C12   C14   1.406217 A    
C22   C24   1.392552 A    
C26   O18   1.384387 S    
C39   H16   1.108544 S    
C5    C13   1.403694 A    
C28   O20   1.387489 S    
O4    Cu1   1.980756 S    
C36   H13   1.104697 S    
C6    O10   1.344759 S    
C4    C24   1.463840 S    
Cu2   N3    2.033549 S    
O16   C36   1.411309 S    
C11   C12   1.405408 A    
C3    C23   1.479223 S    
C8    O12   1.347677 S    
C9    C15   1.417695 A    
C34   H6    1.114544 S    
C42   H25   1.108183 S    
C10   C16   1.420030 A    
Cu1   Cu2   2.706333 S    
C23   C25   1.417400 A    
C1    C31   1.440510 S    
O2    C2    1.292708 A    
C24   C26   1.410855 A    
C26   C28   1.417170 A    
C28   C30   1.416664 A    
C27   C29   1.411727 A    
C6    C14   1.408088 A    
C33   H4    1.114414 S    
C34   H7    1.107608 S    
N3    N4    1.301321 D    
C35   H11   1.109407 S    
O4    C2    1.299877 A    
C7    O11   1.347790 S    
C39   H15   1.114641 S    
O14   C34   1.413940 S    
O13   C33   1.414208 S    
C35   H10   1.107849 S    
C36   H14   1.107055 S    
O7    Cu2   1.933171 S    
C20   C38   1.436940 S    
Cu1   N4    2.033549 S    
C25   C27   1.410689 A    
C40   H18   1.115066 S    
C41   H23   1.106658 S    
O6    C4    1.304356 A    
C2    C32   1.439758 S    
O7    C3    1.302610 A    
O3    Cu2   1.980756 S    
O8    C4    1.300284 A    
C40   H19   1.100361 S    
C41   H22   1.109835 S    
O18   C40   1.416157 S    
C42   H26   1.106095 S    
C9    C11   1.408750 A    
C10   C12   1.413316 A    
O1    Cu1   1.981178 S    
C13   C18   1.414062 A    
C5    N1    1.370573 A    
C33   H3    1.107314 S    
C19   C37   1.443171 S    
C34   H8    1.108070 S    
O6    Cu2   1.934605 S    
C19   C21   1.397145 A    
C8    C10   1.411074 A    
O3    C1    1.300913 A    
O8    Cu1   1.933171 S    
C15   O13   1.384302 S    
C5    O9    1.343826 S    
C16   O14   1.384696 S    
C25   O17   1.384596 S    
C44   N8    1.157911 T    
C35   H9    1.104198 S    
C16   C18   1.407227 A    
C21   H1    1.084723 S    
C22   H2    1.085216 S    
C39   H17   1.108739 S    
C20   C22   1.394777 A    
O20   C42   1.417705 S    
N1    C7    1.374854 A    
C20   C30   1.414517 A    
N2    C8    1.370420 A    
C11   C13   1.401524 A    
C21   C23   1.399995 A    
C36   H12   1.111122 S    
O2    Cu2   1.981178 S    
C31   C43   1.456668 S    
O15   C35   1.414159 S    
O5    Cu1   1.934605 S    
C40   H20   1.108644 S    
C41   H21   1.113106 S    
C14   C17   1.419472 A    
C6    N2    1.371336 A    
C31   C32   1.362676 D    
C46   N10   1.157613 T    
C18   O16   1.383588 S    
N3    C45   1.385694 S    
C7    C9    1.413475 A    
C33   H5    1.105150 S    
