data_str_m9_o11_o18_f0_sra.sym.78
_audit_creation_date              2012-12-11T14:21:20-0500
_audit_creation_method            fapswitch 2.2
_symmetry_space_group_name_H-M    P1
_symmetry_Int_Tables_number       1
_space_group_crystal_system       triclinic
_cell_length_a                    21.957764
_cell_length_b                    7.198646
_cell_length_c                    14.921777
_cell_angle_alpha                 89.859486
_cell_angle_beta                  107.759332
_cell_angle_gamma                 89.96958
_cell_volume                      2246.22160646

loop_
_atom_site_label
_atom_site_type_symbol
_atom_type_description
_atom_site_fract_x
_atom_site_fract_y
_atom_site_fract_z
_atom_type_partial_charge
O1    O     O_R   0.584770 0.505770 0.002090 -0.540683
O2    O     O_R   0.415230 0.005770 0.997910 -0.541531
O3    O     O_R   0.467060 0.173340 0.861950 -0.537123
O4    O     O_R   0.532940 0.673340 0.138050 -0.536762
C1    C     C_R   0.454713 0.344295 0.825623 0.675513
C2    C     C_R   0.545201 0.843733 0.174443 0.676573
O5    O     O_R   0.587510 0.175890 0.993210 -0.541371
O6    O     O_R   0.412490 0.675890 0.006790 -0.541405
O7    O     O_R   0.536540 0.008150 0.130100 -0.536167
O8    O     O_R   0.463460 0.508150 0.869900 -0.536262
C3    C     C_R   0.612804 0.345282 0.996711 0.747907
C4    C     C_R   0.387169 0.845290 0.002956 0.746716
O9    O     O_3   0.483140 0.340040 0.044760 -0.377164
O10   O     O_3   0.516860 0.840040 0.955240 -0.377381
V1    V     V_3+5 0.503130 0.064190 0.991700 1.418251
V2    V     V_3+5 0.496870 0.564190 0.008300 1.419298
C5    C     C_2   0.217214 0.723711 0.014864 0.234490
C6    C     C_2   0.781098 0.227633 0.976040 0.249699
C7    C     C_2   0.180763 0.881000 0.996771 -0.276362
C8    C     C_2   0.819083 0.380498 0.002578 -0.299199
H1    H     H_    0.200093 0.008896 0.978467 0.090836
H2    H     H_    0.801299 0.502083 0.029308 0.105977
C9    C     C_2   0.284050 0.714704 0.009284 -0.198990
C10   C     C_2   0.715313 0.215652 0.986212 -0.182511
C11   C     C_2   0.320634 0.862471 0.005814 -0.323541
C12   C     C_2   0.679014 0.362785 0.992066 -0.335892
H3    H     H_    0.304463 0.576685 0.011177 0.144455
H4    H     H_    0.694937 0.077769 0.984517 0.142564
H5    H     H_    0.302491 0.002165 0.006820 0.132511
H6    H     H_    0.696949 0.502561 0.990183 0.134804
C13   C     C_R   0.926758 0.883260 0.722890 -0.067811
C14   C     C_R   0.073434 0.379734 0.277038 -0.069646
C15   C     C_R   0.573407 0.844848 0.276937 -0.027275
C16   C     C_R   0.426491 0.348393 0.723215 -0.025879
C17   C     C_R   0.939987 0.846974 0.568352 0.226806
C18   C     C_R   0.061330 0.306632 0.429469 0.224169
C19   C     C_R   0.966213 0.875427 0.665485 -0.195765
C20   C     C_R   0.034368 0.346430 0.333436 -0.189304
C21   C     C_R   0.860758 0.862668 0.683915 -0.222377
C22   C     C_R   0.139824 0.372765 0.315956 -0.222553
C23   C     C_R   0.833028 0.817023 0.588143 0.052826
C24   C     C_R   0.168692 0.313513 0.409641 0.053568
C25   C     C_R   0.873126 0.819274 0.529350 0.059562
C26   C     C_R   0.128671 0.289275 0.467701 0.063950
C27   C     C_R   0.766203 0.777869 0.548450 -0.037082
C28   C     C_R   0.236280 0.284430 0.448170 -0.035867
C29   C     C_R   0.738514 0.786324 0.448550 -0.020901
C30   C     C_R   0.263636 0.275535 0.548064 -0.020480
C31   C     C_R   0.780390 0.770216 0.392000 0.195581
C32   C     C_R   0.222282 0.231583 0.602789 0.196011
C33   C     C_R   0.846140 0.788888 0.432920 -0.157478
C34   C     C_R   0.156248 0.240683 0.562133 -0.167039
C35   C     C_R   0.726429 0.720091 0.603513 0.152988
C36   C     C_R   0.277422 0.252862 0.391588 0.153692
C37   C     C_R   0.659634 0.715598 0.563321 0.176639
C38   C     C_R   0.344181 0.259562 0.432289 0.175124
C39   C     C_R   0.631428 0.762307 0.468303 0.082173
C40   C     C_R   0.371079 0.291396 0.529084 0.081763
C41   C     C_R   0.670484 0.800377 0.410155 0.027980
C42   C     C_R   0.331086 0.301315 0.587856 0.028198
C43   C     C_R   0.564247 0.763125 0.429172 -0.111506
C44   C     C_R   0.438028 0.306077 0.568945 -0.111597
C45   C     C_R   0.535777 0.798092 0.333778 -0.177596
C46   C     C_R   0.465410 0.329196 0.665496 -0.180356
C47   C     C_R   0.639805 0.856364 0.316134 -0.201827
C48   C     C_R   0.360009 0.343871 0.683991 -0.200952
H7    H     H_    0.876254 0.776780 0.387652 0.168604
H8    H     H_    0.126404 0.205536 0.605659 0.166101
H9    H     H_    0.666503 0.906476 0.271384 0.113450
H10   H     H_    0.331873 0.373769 0.729990 0.110387
H11   H     H_    0.484358 0.785902 0.303903 0.109556
H12   H     H_    0.517008 0.330571 0.695332 0.111570
H13   H     H_    0.017459 0.890314 0.696597 0.103569
H14   H     H_    0.982867 0.350576 0.302322 0.106415
H15   H     H_    0.831855 0.885986 0.729545 0.115740
H16   H     H_    0.167991 0.414169 0.271591 0.122982
H17   H     H_    0.533291 0.730294 0.471282 0.160238
H18   H     H_    0.469785 0.295091 0.526128 0.161679
O11   O     O_R   0.036450 0.233070 0.130130 -0.537381
O12   O     O_R   0.963550 0.733070 0.869870 -0.539782
O13   O     O_R   0.912470 0.560570 0.006790 -0.545276
O14   O     O_R   0.087530 0.060570 0.993210 -0.550981
C49   C     C_R   0.886513 0.391260 0.000909 0.739240
C50   C     C_R   0.113340 0.891090 0.998390 0.745273
O15   O     O_R   0.032920 0.562940 0.138050 -0.537743
O16   O     O_R   0.967080 0.062940 0.861950 -0.540955
O17   O     O_R   0.084790 0.730500 0.002090 -0.507831
O18   O     O_R   0.915210 0.230500 0.997910 -0.511264
C51   C     C_R   0.045356 0.393912 0.174808 0.705387
C52   C     C_R   0.954619 0.894516 0.825189 0.695253
O19   O     O_3   0.016820 0.396170 0.955260 -0.376696
O20   O     O_3   0.983180 0.896170 0.044740 -0.371253
V3    V     V_3+5 0.996880 0.672090 0.008300 1.466913
V4    V     V_3+5 0.003120 0.172090 0.991700 1.453988
N1    N     N_3   0.191692 0.554620 0.039943 -0.632074
H19   H     H_    0.221690 0.511240 0.105466 0.206478
H20   H     H_    0.193012 0.453161 0.990546 0.217012
N2    N     N_3   0.804382 0.068280 0.938025 -0.627848
H21   H     H_    0.772040 0.958078 0.928111 0.203775
H22   H     H_    0.806417 0.104942 0.871129 0.212960
N3    N     N_3   0.760313 0.699734 0.297520 -0.684296
H23   H     H_    0.719359 0.617486 0.284551 0.242687
H24   H     H_    0.754192 0.809543 0.249656 0.225153
N4    N     N_3   0.244075 0.142894 0.693368 -0.683979
H25   H     H_    0.287188 0.072229 0.703045 0.244522
H26   H     H_    0.247267 0.240658 0.746233 0.219556
N5    N     N_3   0.751841 0.631793 0.693917 -0.690012
H27   H     H_    0.796381 0.570657 0.702093 0.245961
H28   H     H_    0.753251 0.726444 0.747475 0.220039
N6    N     N_3   0.254304 0.178960 0.297770 -0.687919
H29   H     H_    0.211261 0.107269 0.286402 0.247412
H30   H     H_    0.250723 0.285054 0.248545 0.217828
N7    N     N_3   0.619913 0.659937 0.619413 -0.684890
H31   H     H_    0.629192 0.747732 0.677758 0.237484
H32   H     H_    0.632021 0.524145 0.643296 0.257360
N8    N     N_3   0.385250 0.231202 0.374743 -0.681751
H33   H     H_    0.373804 0.329969 0.320655 0.236811
H34   H     H_    0.376572 0.098968 0.344729 0.259016
N9    N     N_3   0.981062 0.844079 0.509437 -0.656404
H35   H     H_    0.027640 0.882575 0.547729 0.249599
H36   H     H_    0.983641 0.706750 0.488309 0.212039
N10   N     N_3   0.020538 0.278619 0.487666 -0.665377
H37   H     H_    0.972372 0.284661 0.447400 0.244157
H38   H     H_    0.028165 0.389226 0.535051 0.212531

loop_
_geom_bond_atom_site_label_1
_geom_bond_atom_site_label_2
_ccdc_geom_bond_type
C40   C44   A    
C32   N4    S    
N3    H23   S    
O14   V4    S    
N5    H28   S    
C35   C37   A    
C17   N9    S    
N1    H19   S    
O1    C3    A    
C50   O17   A    
C46   H12   S    
O2    C4    A    
C16   C48   A    
C2    O7    A    
N4    H26   S    
C15   C47   A    
C21   C23   A    
O5    C3    A    
C5    C9    S    
C6    C10   S    
C7    H1    S    
C10   C12   D    
C31   N3    S    
C39   C41   A    
C40   C42   A    
N8    H33   S    
C36   N6    S    
C24   C28   A    
C27   C29   A    
C43   C45   A    
N6    H29   S    
C44   C46   A    
O16   V4    S    
O15   V3    S    
O12   V3    S    
C43   H17   S    
C31   C33   A    
C32   C34   A    
N5    H27   S    
C5    N1    S    
C21   H15   S    
C17   C25   A    
C34   H8    S    
O6    C4    A    
C26   C34   A    
C30   C32   A    
C49   O18   A    
C42   C48   A    
O6    V2    S    
C23   C25   A    
C24   C26   A    
N4    H25   S    
O13   C49   A    
C30   C42   A    
C28   C30   A    
C9    H3    S    
N9    H36   S    
C11   H5    S    
C36   C38   A    
O11   V4    S    
C29   C31   A    
O16   C52   A    
O15   C51   A    
O5    V1    S    
C37   N7    S    
C3    C12   S    
C27   C35   A    
C22   H16   S    
O4    V2    S    
C18   N10   S    
O13   V3    S    
C35   N5    S    
C14   C51   S    
C15   C45   A    
C13   C52   S    
C1    C16   S    
C28   C36   A    
C16   C46   A    
C38   N8    S    
O1    V2    S    
C33   H7    S    
O2    V1    S    
N8    H34   S    
O4    C2    A    
C45   H11   S    
C12   H6    S    
C14   C20   A    
C37   C39   A    
C18   C26   A    
N10   H38   S    
C7    C50   S    
C14   C22   A    
O3    V1    S    
N7    H31   S    
C20   H14   S    
C19   H13   S    
C17   C19   A    
C44   H18   S    
C10   H4    S    
C8    H2    S    
O3    C1    A    
C8    C49   S    
N9    H35   S    
N1    H20   S    
C39   C43   A    
O14   C50   A    
C2    C15   S    
C4    C11   S    
C18   C20   A    
O7    V1    S    
C1    O8    A    
O8    V2    S    
C41   C47   A    
O19   V4    S    
C25   C33   A    
C48   H10   S    
C47   H9    S    
O17   V3    S    
C22   C24   A    
O20   V3    S    
C5    C7    D    
C38   C40   A    
C6    C8    D    
C9    C11   D    
O12   C52   A    
N2    H22   S    
N6    H30   S    
O11   C51   A    
C29   C41   A    
C13   C19   A    
N3    H24   S    
N2    H21   S    
O9    V2    S    
C13   C21   A    
O18   V4    S    
C23   C27   A    
O10   V1    S    
C6    N2    S    
N10   H37   S    
N7    H32   S    
