data_str_m4_o17_o17_f0_acs.sym.104
_audit_creation_date              2012-12-11T14:29:57-0500
_audit_creation_method            fapswitch 2.2
_symmetry_space_group_name_H-M    P1
_symmetry_Int_Tables_number       1
_space_group_crystal_system       triclinic
_cell_length_a                    12.614665
_cell_length_b                    12.613862
_cell_length_c                    26.92393
_cell_angle_alpha                 89.997244
_cell_angle_beta                  89.996977
_cell_angle_gamma                 119.997148
_cell_volume                      3710.26867427

loop_
_atom_site_label
_atom_site_type_symbol
_atom_type_description
_atom_site_fract_x
_atom_site_fract_y
_atom_site_fract_z
_atom_type_partial_charge
C1    C     C_R   0.556850 0.457644 0.821813 0.565405
C2    C     C_R   0.457649 0.556841 0.178191 0.565535
C3    C     C_R   0.996830 0.307482 0.474170 -0.121970
C4    C     C_R   0.309968 0.001910 0.025682 -0.121914
C5    C     C_R   0.693025 0.688765 0.474002 -0.121821
C6    C     C_R   0.307984 0.997914 0.525725 -0.121837
C7    C     C_R   0.002093 0.310063 0.974300 -0.121916
C8    C     C_R   0.690894 0.691236 0.525468 -0.121872
C9    C     C_R   0.307685 0.997264 0.974213 -0.121897
C10   C     C_R   0.001478 0.309736 0.525638 -0.121990
C11   C     C_R   0.689856 0.692065 0.974278 -0.121850
C12   C     C_R   0.443155 0.900806 0.321809 0.565505
C13   C     C_R   0.099195 0.542358 0.178191 0.565598
C14   C     C_R   0.996291 0.499879 0.973909 0.028532
C15   C     C_R   0.503591 0.003715 0.526094 0.028510
C16   C     C_R   0.500121 0.496406 0.973909 0.028519
C17   C     C_R   0.996086 0.499764 0.526057 0.028538
C18   C     C_R   0.503502 0.003505 0.973873 0.028524
C19   C     C_R   0.500526 0.496156 0.525984 0.028505
C20   C     C_R   0.499940 0.996404 0.473890 0.028513
C21   C     C_R   0.900785 0.443138 0.678180 0.565463
C22   C     C_R   0.003601 0.503550 0.026113 0.028531
C23   C     C_R   0.496756 0.499696 0.473780 0.028515
C24   C     C_R   0.499831 0.996213 0.026077 0.028520
C25   C     C_R   0.003379 0.503455 0.473853 0.028549
C26   C     C_R   0.496465 0.500051 0.026113 0.028517
C27   C     C_R   0.991276 0.690156 0.974233 -0.107996
C28   C     C_R   0.698862 0.008706 0.525753 -0.107775
C29   C     C_R   0.309932 0.301063 0.974258 -0.107905
C30   C     C_R   0.991502 0.690260 0.525763 -0.108049
C31   C     C_R   0.698995 0.008959 0.974244 -0.107959
C32   C     C_R   0.542351 0.099181 0.821805 0.565469
C33   C     C_R   0.309706 0.301393 0.525777 -0.107856
C34   C     C_R   0.690011 0.991003 0.474244 -0.107925
C35   C     C_R   0.008966 0.699010 0.025742 -0.107992
C36   C     C_R   0.300804 0.310169 0.474267 -0.107928
C37   C     C_R   0.690145 0.991285 0.025756 -0.107980
C38   C     C_R   0.009168 0.699116 0.474251 -0.108200
C39   C     C_R   0.301083 0.309905 0.025768 -0.107878
C40   C     C_R   0.963251 0.578279 0.896701 -0.142556
C41   C     C_R   0.615047 0.036770 0.603292 -0.142810
C42   C     C_R   0.421747 0.384943 0.896712 -0.142666
C43   C     C_R   0.556915 0.457649 0.678165 0.565355
C44   C     C_R   0.963321 0.578290 0.603287 -0.142585
C45   C     C_R   0.615088 0.036800 0.896693 -0.142609
C46   C     C_R   0.421806 0.385145 0.603268 -0.142745
C47   C     C_R   0.578249 0.963175 0.396699 -0.142558
C48   C     C_R   0.036842 0.615108 0.103294 -0.142572
C49   C     C_R   0.384803 0.421681 0.396672 -0.142570
C50   C     C_R   0.578272 0.963268 0.103291 -0.142591
C51   C     C_R   0.036851 0.615138 0.396688 -0.142423
C52   C     C_R   0.384952 0.421715 0.103308 -0.142635
C53   C     C_R   0.037813 0.518750 0.129297 0.009998
C54   C     C_R   0.900795 0.443148 0.821813 0.565469
C55   C     C_R   0.480911 0.962189 0.370705 0.010052
C56   C     C_R   0.481278 0.519072 0.129298 0.009969
C57   C     C_R   0.037697 0.518732 0.370677 0.010116
C58   C     C_R   0.480839 0.962125 0.129272 0.009963
C59   C     C_R   0.481272 0.518784 0.370623 0.010103
C60   C     C_R   0.518744 0.037864 0.629283 0.009826
C61   C     C_R   0.962135 0.480859 0.870719 0.009956
C62   C     C_R   0.519462 0.481292 0.629201 0.009797
C63   C     C_R   0.518728 0.037749 0.870691 0.009964
C64   C     C_R   0.962066 0.480787 0.629257 0.009857
C65   C     C_R   0.542360 0.099207 0.678187 0.565443
C66   C     C_R   0.519123 0.481262 0.870719 0.009942
C67   C     C_R   0.985643 0.591270 0.947970 0.012455
C68   C     C_R   0.605631 0.014363 0.552022 0.012371
C69   C     C_R   0.408766 0.394342 0.947984 0.012397
C70   C     C_R   0.985667 0.591264 0.552012 0.012472
C71   C     C_R   0.605657 0.014376 0.947960 0.012435
C72   C     C_R   0.408868 0.394438 0.551984 0.012370
C73   C     C_R   0.591238 0.985571 0.447967 0.012403
C74   C     C_R   0.014428 0.605686 0.052027 0.012450
C75   C     C_R   0.394325 0.408658 0.447928 0.012428
C76   C     C_R   0.457648 0.556785 0.321787 0.565592
C77   C     C_R   0.591247 0.985626 0.052018 0.012426
C78   C     C_R   0.014413 0.605697 0.447954 0.012497
C79   C     C_R   0.394372 0.408720 0.052040 0.012405
C80   C     C_R   0.997008 0.404132 0.895768 0.224148
C81   C     C_R   0.407143 0.002964 0.604245 0.224199
C82   C     C_R   0.595805 0.592870 0.895757 0.224179
C83   C     C_R   0.996723 0.403921 0.604182 0.224130
C84   C     C_R   0.407050 0.002625 0.895708 0.224192
C85   C     C_R   0.596620 0.592651 0.604061 0.224095
C86   C     C_R   0.404290 0.997223 0.395737 0.224172
C87   C     C_R   0.443145 0.900796 0.178185 0.565489
C88   C     C_R   0.002755 0.407089 0.104277 0.224184
C89   C     C_R   0.593137 0.594992 0.395557 0.224285
C90   C     C_R   0.404074 0.996935 0.104215 0.224156
C91   C     C_R   0.002428 0.406998 0.395676 0.224176
C92   C     C_R   0.592915 0.595699 0.104265 0.224189
C93   C     C_R   0.000095 0.404881 0.947768 0.028925
C94   C     C_R   0.404799 0.999900 0.552245 0.028921
C95   C     C_R   0.595069 0.595222 0.947758 0.028927
C96   C     C_R   0.999717 0.404657 0.552182 0.028935
C97   C     C_R   0.404634 0.999487 0.947708 0.028917
C98   C     C_R   0.099168 0.542349 0.321801 0.565622
C99   C     C_R   0.595843 0.594778 0.552060 0.028954
C100  C     C_R   0.405041 0.000361 0.447737 0.028905
C101  C     C_R   0.999632 0.404694 0.052276 0.028906
C102  C     C_R   0.595758 0.594265 0.447554 0.028898
C103  C     C_R   0.404813 0.999982 0.052214 0.028916
C104  C     C_R   0.999226 0.404531 0.447676 0.028900
C105  C     C_R   0.595292 0.594968 0.052265 0.028892
C106  C     C_R   0.997461 0.307772 0.025769 -0.121915
C107  C     C_R   0.310304 0.002540 0.474256 -0.121839
C108  C     C_R   0.692167 0.689738 0.025746 -0.121864
Cl1   Cl    Cl    0.959778 0.269231 0.137249 -0.555195
Cl2   Cl    Cl    0.269211 0.959592 0.862729 -0.555247
Cl3   Cl    Cl    0.039382 0.308696 0.637070 -0.555581
Cl4   Cl    Cl    0.690814 0.730727 0.862815 -0.555393
Cl5   Cl    Cl    0.309329 0.040128 0.362782 -0.555203
Cl6   Cl    Cl    0.730766 0.690614 0.137220 -0.555052
Cl7   Cl    Cl    0.959339 0.269167 0.362671 -0.555236
Cl8   Cl    Cl    0.308951 0.039691 0.137129 -0.555344
Cl9   Cl    Cl    0.730898 0.689410 0.362466 -0.554879
Cl10  Cl    Cl    0.269282 0.960067 0.637190 -0.555168
Cl11  Cl    Cl    0.039806 0.309060 0.862839 -0.555426
Cl12  Cl    Cl    0.692298 0.730541 0.636847 -0.555674
Cr1   Cr    Cr6+3 0.487630 0.241180 0.750000 1.138217
Cr2   Cr    Cr6+3 0.753550 0.512370 0.750000 1.138426
Cr3   Cr    Cr6+3 0.758820 0.246450 0.750000 1.138241
Cr4   Cr    Cr6+3 0.241180 0.487630 0.250000 1.138194
Cr5   Cr    Cr6+3 0.512370 0.753550 0.250000 1.138203
Cr6   Cr    Cr6+3 0.246450 0.758820 0.250000 1.138359
H1    H     H_    0.058627 0.699239 0.122428 0.177438
H2    H     H_    0.699231 0.058627 0.877559 0.177397
H3    H     H_    0.941848 0.640819 0.622456 0.177746
H4    H     H_    0.359351 0.300859 0.877568 0.177279
H5    H     H_    0.016683 0.777894 0.045089 0.133487
H6    H     H_    0.761153 0.983249 0.454892 0.133414
H7    H     H_    0.222234 0.238719 0.045125 0.133614
H8    H     H_    0.017058 0.778089 0.454915 0.133185
H9    H     H_    0.761392 0.983749 0.045122 0.133535
H10   H     H_    0.221694 0.239207 0.454964 0.133352
H11   H     H_    0.777661 0.016266 0.545111 0.133841
H12   H     H_    0.640602 0.941408 0.377557 0.177092
H13   H     H_    0.983702 0.761388 0.954868 0.133520
H14   H     H_    0.238279 0.222826 0.545187 0.133840
H15   H     H_    0.777892 0.016708 0.954897 0.133525
H16   H     H_    0.984123 0.761584 0.545141 0.133672
H17   H     H_    0.238733 0.222231 0.954903 0.133570
H18   H     H_    0.997293 0.231689 0.044384 0.165621
H19   H     H_    0.234384 0.002708 0.455650 0.165648
H20   H     H_    0.768222 0.765676 0.044353 0.165654
H21   H     H_    0.996492 0.231330 0.455546 0.165600
H22   H     H_    0.233951 0.001912 0.044277 0.165577
H23   H     H_    0.300847 0.359349 0.122451 0.177318
H24   H     H_    0.769251 0.764430 0.455341 0.165782
H25   H     H_    0.231964 0.997885 0.544332 0.165675
H26   H     H_    0.002133 0.234067 0.955703 0.165591
H27   H     H_    0.767148 0.767107 0.544014 0.165560
H28   H     H_    0.231590 0.997052 0.955597 0.165636
H29   H     H_    0.001362 0.233649 0.544225 0.165536
H30   H     H_    0.765816 0.768113 0.955671 0.165665
H31   H     H_    0.058794 0.699331 0.377566 0.177384
H32   H     H_    0.640728 0.941676 0.122450 0.177355
H33   H     H_    0.300491 0.359604 0.377594 0.177199
H34   H     H_    0.699122 0.058427 0.622438 0.177434
H35   H     H_    0.941612 0.640710 0.877548 0.177409
H36   H     H_    0.359091 0.301286 0.622480 0.177401
O1    O     O_R   0.460870 0.120930 0.805240 -0.433681
O2    O     O_R   0.120930 0.460870 0.194760 -0.433653
O3    O     O_R   0.539130 0.660060 0.305240 -0.433799
O4    O     O_R   0.339940 0.879070 0.194760 -0.433611
O5    O     O_R   0.498910 0.350470 0.801870 -0.504318
O6    O     O_R   0.851560 0.501090 0.698130 -0.504117
O7    O     O_R   0.649530 0.148440 0.801870 -0.504320
O8    O     O_R   0.498910 0.350470 0.698130 -0.504235
O9    O     O_R   0.851560 0.501090 0.801870 -0.504253
O10   O     O_R   0.649530 0.148440 0.698130 -0.504281
O11   O     O_R   0.350470 0.498910 0.301870 -0.504403
O12   O     O_R   0.660060 0.539130 0.694760 -0.433403
O13   O     O_R   0.501090 0.851560 0.198130 -0.504264
O14   O     O_R   0.148440 0.649530 0.301870 -0.504283
O15   O     O_R   0.350470 0.498910 0.198130 -0.504328
O16   O     O_R   0.501090 0.851560 0.301870 -0.504372
O17   O     O_R   0.148440 0.649530 0.198130 -0.504242
O18   O     O_3   0.666667 0.333333 0.750000 -0.297127
O19   O     O_3   0.333333 0.666667 0.250000 -0.297117
O20   O     O_R   0.879070 0.339940 0.805240 -0.433661
O21   O     O_R   0.460870 0.120930 0.694760 -0.433556
O22   O     O_R   0.660060 0.539130 0.805240 -0.433665
O23   O     O_R   0.879070 0.339940 0.694760 -0.433574
O24   O     O_R   0.120930 0.460870 0.305240 -0.433761
O25   O     O_R   0.539130 0.660060 0.194760 -0.433590
O26   O     O_R   0.339940 0.879070 0.305240 -0.433697

loop_
_geom_bond_atom_site_label_1
_geom_bond_atom_site_label_2
_ccdc_geom_bond_type
C3    C104  A    
C12   O16   A    
C32   O7    A    
C4    C103  A    
C35   C74   A    
C3    H21   S    
C89   C102  A    
C45   C71   A    
Cr5   O3    S    
C91   C104  A    
C58   C87   S    
C15   C94   A    
C88   C101  A    
C44   C64   A    
Cr2   O18   S    
C22   C101  A    
C46   C62   A    
C86   Cl5   S    
C18   C24   A    
C84   C97   A    
C84   Cl2   S    
C76   O11   A    
C28   C68   A    
C8    C99   A    
Cr3   O20   S    
C65   O21   A    
C107  H19   S    
C43   O12   A    
C87   O4    A    
C15   C68   A    
C33   H14   S    
Cr1   O1    S    
C32   O1    A    
C101  C106  A    
C33   C36   A    
C30   C38   A    
C59   C89   A    
C2    O25   A    
C21   C64   S    
C33   C72   A    
C30   C70   A    
C1    O22   A    
C52   H23   S    
C6    C94   A    
C40   C67   A    
C6    C107  A    
C54   O20   A    
C1    O5    A    
C44   C70   A    
C51   C57   A    
C18   C97   A    
C90   Cl8   S    
C41   C68   A    
C52   C79   A    
C86   C100  A    
C14   C93   A    
C13   C53   S    
Cr3   O10   S    
Cr1   O21   S    
C21   O6    A    
C31   C71   A    
Cr1   O8    S    
C80   Cl11  S    
C34   H6    S    
C17   C70   A    
C12   O26   A    
C19   C72   A    
C15   C20   A    
Cr1   O5    S    
C36   H10   S    
C26   C105  A    
C62   C85   A    
C43   O8    A    
Cr1   O18   S    
C29   C69   A    
C16   C26   A    
C48   C53   A    
C7    C93   A    
C105  C108  A    
Cr2   O6    S    
C16   C69   A    
C65   O10   A    
Cr5   O19   S    
C25   C78   A    
C50   C58   A    
C48   C74   A    
C76   O3    A    
C42   C66   A    
C47   C73   A    
C37   H9    S    
C19   C99   A    
Cr4   O11   S    
C38   C78   A    
C27   C35   A    
C44   H3    S    
Cr2   O12   S    
C37   C77   A    
C81   Cl10  S    
C45   C63   A    
C42   C69   A    
C27   H13   S    
C5    H24   S    
C31   C37   A    
C82   Cl4   S    
Cr3   O23   S    
C85   Cl12  S    
C19   C23   A    
C64   C83   A    
C85   C99   A    
C36   C75   A    
C66   C82   A    
C41   H34   S    
C98   O14   A    
C60   C81   A    
C24   C77   A    
C20   C100  A    
C10   C96   A    
C14   C67   A    
C29   C39   A    
C49   C75   A    
C1    C66   S    
C7    C106  A    
Cr6   O17   S    
C42   H4    S    
C17   C96   A    
C21   O23   A    
C8    H27   S    
C58   C90   A    
Cr4   O15   S    
Cr3   O7    S    
C11   H30   S    
C88   Cl1   S    
C31   H15   S    
C2    O15   A    
C89   Cl9   S    
C60   C65   S    
C83   Cl3   S    
C6    H25   S    
Cr5   O13   S    
C50   C77   A    
C35   H5    S    
Cr5   O16   S    
Cr6   O14   S    
C13   O2    A    
C47   C55   A    
C39   H7    S    
C11   C95   A    
C18   C71   A    
C50   H32   S    
C5    C102  A    
C100  C107  A    
C9    C97   A    
C82   C95   A    
C57   C91   A    
C46   C72   A    
C54   O9    A    
C28   H11   S    
C41   C60   A    
C23   C75   A    
Cr3   O18   S    
Cr6   O4    S    
C49   C59   A    
C10   H29   S    
C9    H28   S    
C5    C8    A    
C45   H2    S    
C25   C104  A    
C106  H18   S    
C54   C61   S    
C32   C63   S    
C87   O13   A    
C26   C79   A    
C30   H16   S    
C63   C84   A    
Cr5   O25   S    
C24   C103  A    
C17   C25   A    
C14   C22   A    
C55   C86   A    
Cr6   O26   S    
C80   C93   A    
C51   C78   A    
C40   H35   S    
C98   O24   A    
C108  H20   S    
C13   O17   A    
C48   H1    S    
Cr4   O24   S    
C81   C94   A    
C16   C95   A    
C83   C96   A    
C47   H12   S    
Cr2   O22   S    
C91   Cl7   S    
C20   C73   A    
C53   C88   A    
C51   H31   S    
C38   H8    S    
C57   C98   S    
C90   C103  A    
C12   C55   S    
C27   C67   A    
C40   C61   A    
C34   C73   A    
C28   C34   A    
C7    H26   S    
C23   C102  A    
C92   C105  A    
Cr4   O19   S    
C29   H17   S    
Cr2   O9    S    
C46   H36   S    
C11   C108  A    
C3    C10   A    
C22   C74   A    
C49   H33   S    
Cr6   O19   S    
C2    C56   S    
C61   C80   A    
C4    C9    A    
C56   C92   A    
C92   Cl6   S    
C59   C76   S    
C52   C56   A    
C43   C62   S    
C39   C79   A    
Cr4   O2    S    
C4    H22   S    
