data_str_m9_o18_o22_f0_sra.sym.74
_audit_creation_date              2012-12-11T15:29:44-0500
_audit_creation_method            fapswitch 2.2
_symmetry_space_group_name_H-M    P1
_symmetry_Int_Tables_number       1
_space_group_crystal_system       triclinic
_cell_length_a                    21.370593
_cell_length_b                    7.270686
_cell_length_c                    14.907788
_cell_angle_alpha                 90.001518
_cell_angle_beta                  73.397212
_cell_angle_gamma                 89.999022
_cell_volume                      2219.78334411

loop_
_atom_site_label
_atom_site_type_symbol
_atom_type_description
_atom_site_fract_x
_atom_site_fract_y
_atom_site_fract_z
_atom_type_partial_charge
O1    O     O_R   0.464160 0.506670 0.130070 -0.537621
O2    O     O_R   0.535840 0.006670 0.869930 -0.537621
O3    O     O_R   0.589710 0.179080 0.006710 -0.534593
O4    O     O_R   0.410290 0.679080 0.993290 -0.534587
C1    C     C_R   0.615665 0.344461 0.004420 0.699623
C2    C     C_R   0.384334 0.844463 0.995580 0.699615
O5    O     O_R   0.467940 0.177220 0.138010 -0.534919
O6    O     O_R   0.532060 0.677220 0.861990 -0.534918
O7    O     O_R   0.413200 0.002810 0.002170 -0.547685
O8    O     O_R   0.586800 0.502810 0.997830 -0.547688
C3    C     C_R   0.455160 0.345760 0.174150 0.689640
C4    C     C_R   0.544842 0.845754 0.825850 0.689637
O9    O     O_3   0.482180 0.337850 0.955280 -0.382177
O10   O     O_3   0.517820 0.837850 0.044720 -0.382189
V1    V     V_3+5 0.503310 0.064600 0.008300 1.398792
V2    V     V_3+5 0.496690 0.564600 0.991700 1.398814
C5    C     C_R   0.574075 0.859199 0.724580 -0.027973
C6    C     C_R   0.425926 0.359233 0.275422 -0.028000
C7    C     C_R   0.931627 0.866950 0.276154 -0.080194
C8    C     C_R   0.068372 0.366932 0.723845 -0.080197
C9    C     C_R   0.564551 0.944753 0.572840 -0.172679
C10   C     C_R   0.435431 0.445059 0.427139 -0.172676
C11   C     C_R   0.535524 0.909840 0.667349 -0.165470
C12   C     C_R   0.464465 0.410074 0.332638 -0.165454
C13   C     C_R   0.642045 0.847449 0.687339 -0.236099
C14   C     C_R   0.357960 0.347366 0.312669 -0.236100
C15   C     C_R   0.673427 0.902198 0.594189 0.100143
C16   C     C_R   0.326564 0.402208 0.405803 0.100152
C17   C     C_R   0.632805 0.940005 0.535870 0.147136
C18   C     C_R   0.367178 0.440203 0.464112 0.147131
C19   C     C_R   0.743291 0.914714 0.555843 -0.023099
C20   C     C_R   0.256697 0.414656 0.444142 -0.023102
C21   C     C_R   0.770008 0.922886 0.456712 0.044822
C22   C     C_R   0.229978 0.422928 0.543272 0.044816
C23   C     C_R   0.727303 0.960025 0.401626 -0.165821
C24   C     C_R   0.272675 0.460226 0.598351 -0.165822
C25   C     C_R   0.660429 0.973305 0.441078 -0.212792
C26   C     C_R   0.339546 0.473589 0.558896 -0.212808
C27   C     C_R   0.787299 0.933375 0.611512 0.145470
C28   C     C_R   0.212685 0.433169 0.388469 0.145441
C29   C     C_R   0.855484 0.922881 0.570328 0.185927
C30   C     C_R   0.144500 0.422700 0.429661 0.185914
C31   C     C_R   0.882239 0.899935 0.472322 -0.010044
C32   C     C_R   0.117749 0.399848 0.527672 -0.010020
C33   C     C_R   0.838695 0.902241 0.415275 -0.007388
C34   C     C_R   0.161296 0.402234 0.584714 -0.007407
C35   C     C_R   0.951386 0.881645 0.428579 0.344108
C36   C     C_R   0.048606 0.381563 0.571424 0.344165
C37   C     C_R   0.974341 0.863570 0.330811 -0.206188
C38   C     C_R   0.025655 0.363507 0.669192 -0.206231
C39   C     C_R   0.864957 0.881556 0.317517 -0.194290
C40   C     C_R   0.135040 0.381580 0.682474 -0.194307
H1    H     H_    0.629870 0.006025 0.396449 0.119591
H2    H     H_    0.370098 0.506447 0.603518 0.119595
H3    H     H_    0.834780 0.873341 0.270767 0.097148
H4    H     H_    0.165223 0.373406 0.729218 0.097158
H5    H     H_    0.025894 0.846032 0.296203 0.107325
H6    H     H_    0.974104 0.345957 0.703802 0.107353
H7    H     H_    0.533658 0.978489 0.528782 0.117613
H8    H     H_    0.466316 0.478946 0.471188 0.117618
H9    H     H_    0.483031 0.921962 0.695888 0.107509
H10   H     H_    0.516955 0.422298 0.304094 0.107507
H11   H     H_    0.668971 0.793502 0.732257 0.110098
H12   H     H_    0.331049 0.293267 0.267767 0.110103
H13   H     H_    0.744255 0.989240 0.327768 0.119906
H14   H     H_    0.255715 0.489518 0.672201 0.119912
C41   C     C_3   0.218307 0.672580 0.962257 -0.440431
C42   C     C_3   0.781692 0.172591 0.037756 -0.440408
H15   H     H_    0.192649 0.562501 0.010349 0.124490
H16   H     H_    0.807353 0.062491 0.989674 0.124485
H17   H     H_    0.210912 0.641277 0.892864 0.159747
H18   H     H_    0.789084 0.141317 0.107153 0.159743
C43   C     C_3   0.292166 0.667083 0.956788 0.195169
C44   C     C_3   0.707834 0.167089 0.043218 0.195166
H19   H     H_    0.299307 0.552813 0.002851 0.105601
H20   H     H_    0.700698 0.052811 0.997154 0.105570
H21   H     H_    0.173140 0.765760 0.139753 0.070710
H22   H     H_    0.826859 0.265707 0.860254 0.070716
H23   H     H_    0.276953 0.770157 0.141841 0.111964
H24   H     H_    0.723046 0.270108 0.858165 0.112011
C45   C     C_3   0.195803 0.889232 0.098761 0.205379
C46   C     C_3   0.804196 0.389194 0.901239 0.205387
C47   C     C_3   0.229571 0.006442 0.927539 -0.319283
C48   C     C_3   0.770429 0.506467 0.072452 -0.319295
C49   C     C_3   0.187826 0.863398 0.997960 0.053653
C50   C     C_3   0.812174 0.363397 0.002040 0.053631
H25   H     H_    0.208597 0.146413 0.937064 0.147897
H26   H     H_    0.791401 0.646437 0.062913 0.147914
H27   H     H_    0.230246 0.967286 0.855086 0.126855
H28   H     H_    0.769756 0.467344 0.144908 0.126859
C51   C     C_3   0.313375 0.851137 0.994827 0.025878
C52   C     C_3   0.686624 0.351133 0.005173 0.025873
C53   C     C_3   0.269163 0.883629 0.096154 -0.382687
C54   C     C_3   0.730836 0.383595 0.903846 -0.382698
C55   C     C_3   0.300780 0.011881 0.933731 -0.340413
C56   C     C_3   0.699218 0.511893 0.066265 -0.340397
H29   H     H_    0.335660 0.007444 0.862350 0.135583
H30   H     H_    0.664341 0.507465 0.137648 0.135589
H31   H     H_    0.309439 0.144260 0.965046 0.146468
H32   H     H_    0.690556 0.644263 0.034949 0.146456
H33   H     H_    0.283937 0.011744 0.125340 0.164503
H34   H     H_    0.716061 0.511700 0.874654 0.164525
O11   O     O_R   0.913210 0.208550 0.002110 -0.542822
O12   O     O_R   0.086790 0.708550 0.997890 -0.542825
O13   O     O_R   0.032060 0.539960 0.861980 -0.537075
O14   O     O_R   0.967940 0.039960 0.138020 -0.537074
C57   C     C_R   0.043168 0.372529 0.825666 0.697658
C58   C     C_R   0.956834 0.872534 0.174333 0.697661
O15   O     O_R   0.910290 0.538020 0.993280 -0.540558
O16   O     O_R   0.089710 0.038020 0.006720 -0.540557
O17   O     O_R   0.964160 0.712340 0.130090 -0.535306
O18   O     O_R   0.035840 0.212340 0.869910 -0.535309
C59   C     C_R   0.883755 0.370187 0.999875 0.663045
C60   C     C_R   0.116245 0.870186 0.000126 0.663039
O19   O     O_3   0.017820 0.379210 0.044690 -0.378740
O20   O     O_3   0.982180 0.879210 0.955310 -0.378740
V3    V     V_3+5 0.996690 0.652500 0.991710 1.386425
V4    V     V_3+5 0.003310 0.152500 0.008290 1.386433
N1    N     N_2   0.997177 0.876552 0.482560 -0.484961
H35   H     H_    0.992081 0.768224 0.528252 0.300401
C61   C     C_3   0.064418 0.933203 0.442282 -0.539935
H36   H     H_    0.082937 0.994481 0.497938 0.208935
H37   H     H_    0.069080 0.036902 0.386380 0.185637
H38   H     H_    0.095219 0.813023 0.413357 0.209157
N2    N     N_2   0.002808 0.376459 0.517457 -0.484908
H39   H     H_    0.007870 0.268056 0.471810 0.300467
C62   C     C_3   0.935587 0.433326 0.557724 -0.539819
H40   H     H_    0.917091 0.494646 0.502059 0.208932
H41   H     H_    0.930961 0.537041 0.613616 0.185576
H42   H     H_    0.904740 0.313252 0.586671 0.209143
N3    N     N_2   0.332114 0.634404 0.860815 -0.510740
H43   H     H_    0.320815 0.713932 0.810288 0.257796
C63   C     C_3   0.345642 0.444861 0.833192 -0.575916
H44   H     H_    0.377880 0.438773 0.760266 0.192825
H45   H     H_    0.299488 0.370994 0.836917 0.184842
H46   H     H_    0.371861 0.377809 0.878751 0.217867
N4    N     N_2   0.667882 0.134429 0.139188 -0.510749
H47   H     H_    0.679182 0.213939 0.189722 0.257802
C64   C     C_3   0.654326 0.944896 0.166804 -0.575872
H48   H     H_    0.622051 0.938842 0.239708 0.192816
H49   H     H_    0.700466 0.870995 0.163138 0.184828
H50   H     H_    0.628136 0.877857 0.121206 0.217855
N5    N     N_2   0.161285 0.047475 0.150981 -0.512391
H51   H     H_    0.111980 0.026659 0.180946 0.238560
C65   C     C_3   0.177024 0.233848 0.117575 -0.521338
H52   H     H_    0.160239 0.331290 0.176184 0.183456
H53   H     H_    0.150231 0.271716 0.066964 0.205351
H54   H     H_    0.230098 0.254619 0.087435 0.180583
N6    N     N_2   0.838714 0.547418 0.849010 -0.512354
H55   H     H_    0.888020 0.526597 0.819050 0.238556
C66   C     C_3   0.822970 0.733803 0.882400 -0.521331
H56   H     H_    0.839742 0.831212 0.823779 0.183380
H57   H     H_    0.849768 0.771711 0.932999 0.205340
H58   H     H_    0.769896 0.754573 0.912548 0.180568
N7    N     N_3   0.897574 0.936556 0.629793 -0.653787
H59   H     H_    0.889686 0.821027 0.672929 0.228921
H60   H     H_    0.886216 0.053631 0.671901 0.252523
N8    N     N_3   0.102407 0.436287 0.370197 -0.653748
H61   H     H_    0.110314 0.320751 0.327060 0.228989
H62   H     H_    0.113746 0.553363 0.328091 0.252498
N9    N     N_3   0.765919 0.997426 0.706611 -0.714157
H63   H     H_    0.757223 0.885975 0.752510 0.227675
H64   H     H_    0.725529 0.084497 0.717710 0.239046
N10   N     N_3   0.234058 0.497003 0.293334 -0.714187
H65   H     H_    0.242777 0.385438 0.247502 0.227757
H66   H     H_    0.274429 0.584150 0.282193 0.239025

loop_
_geom_bond_atom_site_label_1
_geom_bond_atom_site_label_2
_ccdc_geom_bond_type
C47   H25   S    
C43   N3    S    
C3    C6    S    
C46   C54   S    
H22   C46   S    
N7    H60   S    
C21   C33   A    
C57   O18   A    
O1    C3    A    
H23   C53   S    
O2    C4    A    
O16   V4    S    
C2    O7    A    
C65   H52   S    
O15   V3    S    
C35   C37   A    
O5    C3    A    
O13   C57   A    
C5    C11   A    
C45   N5    S    
C44   H20   S    
C50   C59   S    
C6    C12   A    
C10   C12   A    
C49   C60   S    
O11   C59   A    
C48   C50   S    
C45   C53   S    
C9    H7    S    
N6    C66   S    
C10   H8    S    
C64   H50   S    
C55   H31   S    
C41   H17   S    
C15   C17   A    
C33   C39   A    
C42   C44   S    
C2    C51   S    
C34   C40   A    
C52   C56   S    
C37   H5    S    
O20   V3    S    
C18   C26   A    
C13   H11   S    
C66   H58   S    
C44   C52   S    
C14   H12   S    
C1    C52   S    
C61   H38   S    
C8    C38   A    
N9    H64   S    
C36   N2    S    
C56   H30   S    
C4    C5    S    
C63   H46   S    
C66   H56   S    
C19   C21   A    
C22   C34   A    
C27   N9    S    
O16   C60   A    
C39   H3    S    
C42   H18   S    
C8    C57   S    
C25   H1    S    
C7    C58   S    
C36   C38   A    
N2    H39   S    
O6    V2    S    
O14   V4    S    
N8    H62   S    
C43   H19   S    
O13   V3    S    
C30   N8    S    
C48   H28   S    
C1    O8    A    
C65   H53   S    
C32   C34   A    
N9    H63   S    
N1    C61   S    
C47   H27   S    
C44   N4    S    
C41   C49   S    
C61   H37   S    
C15   C19   A    
C38   H6    S    
C16   C20   A    
C43   C51   S    
C27   C29   A    
C53   H33   S    
O5    V1    S    
N3    C63   S    
C46   C50   S    
C9    C17   A    
C41   H15   S    
C20   C22   A    
O4    V2    S    
C62   H41   S    
C51   C53   S    
N4    C64   S    
C7    C37   A    
C24   H14   S    
C26   H2    S    
H21   C45   S    
O6    C4    A    
O19   V4    S    
C47   C55   S    
C6    C14   A    
C52   C54   S    
O1    V2    S    
N1    H35   S    
O2    V1    S    
C31   C33   A    
C61   H36   S    
C41   C43   S    
C42   C50   S    
O4    C2    A    
C47   C49   S    
C20   C28   A    
C9    C11   A    
N8    H61   S    
O12   C60   A    
O11   V4    S    
H24   C54   S    
N3    H43   S    
C48   C56   S    
C65   H54   S    
O3    V1    S    
N2    C62   S    
O12   V3    S    
N5    C65   S    
N10   H65   S    
C12   H10   S    
C10   C18   A    
C23   C25   A    
C29   C31   A    
C48   H26   S    
C28   C30   A    
O3    C1    A    
C64   H48   S    
C55   H29   S    
C28   N10   S    
C62   H40   S    
O15   C59   A    
C13   C15   A    
N4    H47   S    
C14   C16   A    
C58   O17   A    
O17   V3    S    
C5    C13   A    
N10   H66   S    
N5    H51   S    
O7    V1    S    
C30   C32   A    
C16   C18   A    
C8    C40   A    
C32   C36   A    
O8    V2    S    
N6    H55   S    
C24   C26   A    
O18   V4    S    
C64   H49   S    
C63   H44   S    
O14   C58   A    
C56   H32   S    
C35   N1    S    
C21   C23   A    
C19   C27   A    
C22   C24   A    
C66   H57   S    
C62   H42   S    
C46   N6    S    
C51   C55   S    
C7    C39   A    
C11   H9    S    
C54   H34   S    
C42   H16   S    
O9    V2    S    
C17   C25   A    
N7    H59   S    
C63   H45   S    
C23   H13   S    
O10   V1    S    
C31   C35   A    
C45   C49   S    
C40   H4    S    
C29   N7    S    
