data_str_m4_o12_o15_f0_acs.sym.131
_audit_creation_date              2012-12-11T14:13:07-0500
_audit_creation_method            fapswitch 2.2
_symmetry_space_group_name_H-M    P1
_symmetry_Int_Tables_number       1
_space_group_crystal_system       triclinic
_cell_length_a                    11.557899
_cell_length_b                    18.618314
_cell_length_c                    10.125072
_cell_angle_alpha                 90.034584
_cell_angle_beta                  110.26594
_cell_angle_gamma                 89.834915
_cell_volume                      2043.91273421

loop_
_atom_site_label
_atom_site_type_symbol
_atom_type_description
_atom_site_fract_x
_atom_site_fract_y
_atom_site_fract_z
_atom_type_partial_charge
C1    C     C_R   0.071353 0.647862 0.139098 0.576272
C2    C     C_R   0.929452 0.352152 0.861527 0.565164
C3    C     C_R   0.929091 0.147821 0.861168 0.566295
C4    C     C_R   0.070928 0.852187 0.138839 0.563893
C5    C     C_R   0.421815 0.471535 0.571982 0.054094
C6    C     C_R   0.575394 0.527341 0.429213 0.050516
C7    C     C_R   0.577650 0.971672 0.429268 0.050974
C8    C     C_R   0.422351 0.028330 0.570774 0.050672
C9    C     C_2   0.375206 0.937846 0.977221 -0.082015
C10   C     C_2   0.624927 0.062131 0.022474 -0.083198
C11   C     C_2   0.641558 0.438846 0.981670 -0.083100
C12   C     C_2   0.403530 0.572596 0.926712 -0.080550
C13   C     C_2   0.485471 0.962038 0.985877 -0.083871
C14   C     C_2   0.514714 0.037909 0.013953 -0.082863
C15   C     C_2   0.543501 0.472197 0.992725 -0.064541
C16   C     C_2   0.518048 0.548217 0.954795 -0.103925
C17   C     C_2   0.997205 0.917098 0.100950 0.216521
C18   C     C_2   0.002875 0.082931 0.899082 0.216497
C19   C     C_2   0.006207 0.416104 0.900615 0.228382
C20   C     C_2   0.001370 0.582040 0.104043 0.224817
C21   C     C_2   0.033773 0.966785 0.026492 -0.121475
C22   C     C_2   0.966362 0.033243 0.973586 -0.121950
C23   C     C_2   0.981116 0.462557 0.990263 -0.137930
C24   C     C_2   0.040221 0.532334 0.031011 -0.131148
C25   C     C_R   0.437361 0.637524 0.374397 0.574994
C26   C     C_R   0.562739 0.362296 0.626624 0.551800
C27   C     C_R   0.562643 0.137585 0.625914 0.555910
C28   C     C_R   0.437363 0.862418 0.374102 0.556110
C29   C     C_R   0.377578 0.645407 0.962580 0.556097
C30   C     C_R   0.650539 0.360439 0.985940 0.555498
C31   C     C_R   0.644392 0.137399 0.998340 0.544776
C32   C     C_R   0.355683 0.862610 0.001520 0.542632
C33   C     C_R   0.538953 0.439532 0.588971 -0.010511
C34   C     C_R   0.460160 0.560368 0.414171 -0.006315
C35   C     C_R   0.461148 0.939476 0.413080 -0.011969
C36   C     C_R   0.538859 0.060523 0.586965 -0.012636
C37   C     C_R   0.342233 0.451370 0.647601 0.223012
C38   C     C_R   0.650488 0.544739 0.347565 0.218743
C39   C     C_R   0.656308 0.952647 0.351525 0.224460
C40   C     C_R   0.343675 0.047367 0.648492 0.224443
C41   C     C_R   0.223475 0.480413 0.609799 -0.038239
C42   C     C_R   0.766850 0.513208 0.378370 -0.023852
C43   C     C_R   0.772589 0.984281 0.384227 -0.024440
C44   C     C_R   0.227391 0.015735 0.615780 -0.024174
C45   C     C_R   0.177419 0.524323 0.494721 0.261781
C46   C     C_R   0.816405 0.471375 0.496389 0.270231
C47   C     C_R   0.819812 0.026743 0.501507 0.267245
C48   C     C_R   0.180181 0.973262 0.498516 0.266832
C49   C     C_R   0.254258 0.542672 0.420177 -0.093331
C50   C     C_R   0.744348 0.456997 0.579049 -0.093984
C51   C     C_R   0.745035 0.042503 0.580355 -0.094501
C52   C     C_R   0.254973 0.957490 0.419693 -0.094319
C53   C     C_R   0.379393 0.525597 0.469934 -0.090254
C54   C     C_R   0.619316 0.474512 0.532910 -0.089730
C55   C     C_R   0.619981 0.025309 0.531778 -0.088999
C56   C     C_R   0.380026 0.974687 0.468275 -0.089047
Cr1   Cr    Cr6+3 0.187610 0.750000 0.979860 1.045755
Cr2   Cr    Cr6+3 0.812390 0.250000 0.020140 1.046028
Cr3   Cr    Cr6+3 0.245810 0.750000 0.341640 1.049151
Cr4   Cr    Cr6+3 0.754190 0.250000 0.658360 1.054804
Cr5   Cr    Cr6+3 0.485760 0.750000 0.219910 1.078344
Cr6   Cr    Cr6+3 0.514240 0.250000 0.780090 1.087241
H1    H     H_    0.165045 0.468043 0.669011 0.204280
H2    H     H_    0.820339 0.522338 0.311526 0.205158
H3    H     H_    0.828669 0.973840 0.320460 0.200228
H4    H     H_    0.171298 0.026185 0.679526 0.200099
H5    H     H_    0.219004 0.566678 0.319562 0.120222
H6    H     H_    0.782439 0.434043 0.680613 0.113729
H7    H     H_    0.781179 0.066321 0.681261 0.109448
H8    H     H_    0.218837 0.933668 0.318792 0.110561
H9    H     H_    0.443202 0.075091 0.017738 0.164193
H10   H     H_    0.557009 0.924837 0.982247 0.162472
H11   H     H_    0.593863 0.585137 0.968136 0.142224
H12   H     H_    0.476328 0.441658 0.022777 0.164364
H13   H     H_    0.698675 0.024940 0.030337 0.065982
H14   H     H_    0.301425 0.975055 0.969137 0.066632
H15   H     H_    0.327772 0.534680 0.903113 0.091434
H16   H     H_    0.705257 0.468035 0.945203 0.023308
H17   H     H_    0.882040 0.042729 0.995041 0.109104
H18   H     H_    0.118111 0.957292 0.005066 0.109208
H19   H     H_    0.120560 0.544563 0.003030 0.114464
H20   H     H_    0.909973 0.448742 0.032569 0.132932
O1    O     O_R   0.267710 0.668200 0.902110 -0.503593
O2    O     O_R   0.732290 0.331800 0.097890 -0.482756
O3    O     O_R   0.732290 0.168200 0.097890 -0.484114
O4    O     O_R   0.267710 0.831800 0.902110 -0.490561
O5    O     O_R   0.099480 0.674460 0.038850 -0.515525
O6    O     O_R   0.900520 0.325540 0.961150 -0.537933
O7    O     O_R   0.900520 0.174460 0.961150 -0.526030
O8    O     O_R   0.099480 0.825540 0.038850 -0.526667
O9    O     O_R   0.116720 0.669210 0.267660 -0.534038
O10   O     O_R   0.883280 0.330790 0.732340 -0.525006
O11   O     O_R   0.883280 0.169210 0.732340 -0.525315
O12   O     O_R   0.116720 0.830790 0.267660 -0.527704
O13   O     O_R   0.366710 0.675440 0.427590 -0.492374
O14   O     O_R   0.633290 0.324560 0.572410 -0.483170
O15   O     O_R   0.633290 0.175440 0.572410 -0.482631
O16   O     O_R   0.366710 0.824560 0.427590 -0.486601
O17   O     O_R   0.534870 0.669390 0.371760 -0.444954
O18   O     O_R   0.465130 0.330610 0.628240 -0.437902
O19   O     O_R   0.465130 0.169390 0.628240 -0.438259
O20   O     O_R   0.534870 0.830610 0.371760 -0.440530
O21   O     O_R   0.453080 0.674480 0.075160 -0.462848
O22   O     O_R   0.546920 0.325520 0.924840 -0.457408
O23   O     O_R   0.546920 0.174480 0.924840 -0.459542
O24   O     O_R   0.453080 0.825520 0.075160 -0.467108
O25   O     O_3   0.306390 0.750000 0.180470 -0.339661
O26   O     O_3   0.693610 0.250000 0.819530 -0.365822
O27   O     O_3   0.058698 0.549238 0.461480 -0.639661
H21   H     H_    0.042213 0.585453 0.386911 0.377333
O28   O     O_3   0.932559 0.443583 0.523472 -0.636048
H22   H     H_    0.955275 0.414351 0.609295 0.378036
O29   O     O_3   0.937129 0.053171 0.532556 -0.641609
H23   H     H_    0.960408 0.079894 0.621498 0.371490
O30   O     O_3   0.062855 0.946845 0.467448 -0.642792
H24   H     H_    0.039610 0.920076 0.378557 0.371394
O31   O     O_3   0.382158 0.407414 0.763266 -0.683256
H25   H     H_    0.313112 0.395396 0.796200 0.334435
O32   O     O_3   0.607145 0.587731 0.231634 -0.679594
H26   H     H_    0.677929 0.606049 0.207474 0.333144
O33   O     O_3   0.618029 0.906923 0.239015 -0.681628
H27   H     H_    0.689179 0.892045 0.211741 0.335966
O34   O     O_3   0.381933 0.093106 0.760982 -0.681796
H28   H     H_    0.310787 0.107964 0.788282 0.337271
O35   O     O_3   0.112884 0.079914 0.875117 -0.756594
H29   H     H_    0.177171 0.066497 0.965418 0.310925
O36   O     O_3   0.887181 0.920140 0.124873 -0.757807
H30   H     H_    0.822905 0.933454 0.034493 0.310238
O37   O     O_3   0.896448 0.576347 0.138264 -0.752008
H31   H     H_    0.832793 0.552286 0.059648 0.310739
O38   O     O_3   0.103693 0.422945 0.853050 -0.756224
H32   H     H_    0.171734 0.448315 0.924976 0.308940

loop_
_geom_bond_atom_site_label_1
_geom_bond_atom_site_label_2
_ccdc_geom_bond_type
C1    O5    A    
C44   C48   A    
C31   O3    A    
C23   H20   S    
C5    C37   A    
C12   C29   S    
C14   H9    S    
C44   H4    S    
O28   H22   S    
C7    C55   A    
C20   O37   S    
C6    C34   A    
C8    C56   A    
O34   H28   S    
Cr6   O23   S    
C50   C54   A    
C37   C41   A    
C5    C53   A    
Cr5   O21   S    
C22   H17   S    
C38   C42   A    
C18   O35   S    
C42   C46   A    
C45   O27   S    
Cr6   O26   S    
C15   C16   S    
Cr1   O4    S    
C29   O21   A    
C3    C18   S    
C8    C36   A    
C9    C13   D    
C9    C32   S    
C50   H6    S    
C11   C15   D    
C10   C31   S    
C25   O17   A    
C20   C24   D    
C11   C30   S    
C5    C33   A    
C23   C24   S    
C6    C38   A    
C2    O6    A    
Cr3   O12   S    
C40   C44   A    
Cr6   O22   S    
Cr4   O26   S    
C25   C34   S    
Cr6   O19   S    
Cr4   O11   S    
C35   C56   A    
C1    O9    A    
C32   O24   A    
C13   C14   S    
C19   O38   S    
C31   O23   A    
Cr5   O17   S    
Cr3   O13   S    
C6    C54   A    
C4    O8    A    
Cr4   O10   S    
C26   O14   A    
Cr2   O26   S    
Cr1   O8    S    
C16   H11   S    
C12   C16   D    
C28   C35   S    
Cr4   O15   S    
C10   C14   D    
C17   O36   S    
C39   C43   A    
C27   O19   A    
C17   C21   D    
Cr1   O5    S    
C4    C17   S    
C19   C23   D    
C24   H19   S    
C11   H16   S    
Cr2   O2    S    
C10   H13   S    
C26   C33   S    
C46   O28   S    
C45   C49   A    
C43   H3    S    
C32   O4    A    
C12   H15   S    
Cr1   O1    S    
C3    O11   A    
Cr3   O9    S    
C2    O10   A    
Cr5   O24   S    
O33   H27   S    
C48   O30   S    
C4    O12   A    
C38   O32   S    
Cr4   O14   S    
C9    H14   S    
C25   O13   A    
O35   H29   S    
Cr6   O18   S    
C41   H1    S    
O38   H32   S    
Cr2   O3    S    
C42   H2    S    
O29   H23   S    
C28   O16   A    
C33   C54   A    
C47   O29   S    
C40   O34   S    
C27   O15   A    
C1    C20   S    
C7    C39   A    
C49   H5    S    
Cr1   O25   S    
C2    C19   S    
C18   C22   D    
C7    C35   A    
Cr2   O6    S    
C47   C51   A    
O32   H26   S    
C29   O1    A    
C13   H10   S    
C27   C36   S    
C8    C40   A    
C46   C50   A    
O31   H25   S    
C39   O33   S    
C3    O7    A    
Cr5   O20   S    
O37   H31   S    
C36   C55   A    
O27   H21   S    
O30   H24   S    
C52   C56   A    
C49   C53   A    
C21   H18   S    
C51   C55   A    
C30   O2    A    
Cr5   O25   S    
Cr2   O7    S    
Cr3   O25   S    
C52   H8    S    
C28   O20   A    
C48   C52   A    
C15   H12   S    
C37   O31   S    
C34   C53   A    
C30   O22   A    
Cr3   O16   S    
C41   C45   A    
C51   H7    S    
C21   C22   S    
C43   C47   A    
O36   H30   S    
C26   O18   A    
