data_str_m2_o5_o28_f0_pcu.sym.112
_audit_creation_date              2013-03-05T16:35:50-0500
_audit_creation_method            fapswitch 2.2
_symmetry_space_group_name_H-M    P1
_symmetry_Int_Tables_number       1
_space_group_crystal_system       triclinic
_cell_length_a                    23.545247
_cell_length_b                    9.158318
_cell_length_c                    7.776733
_cell_angle_alpha                 89.999337
_cell_angle_beta                  89.998659
_cell_angle_gamma                 89.528252
_cell_volume                      1676.877886

loop_
_atom_site_label
_atom_site_type_symbol
_atom_site_description
_atom_site_fract_x
_atom_site_fract_y
_atom_site_fract_z
_atom_type_partial_charge
O1    O     O_R   0.500000 0.288390 0.642760 -0.571035
O2    O     O_R   0.500000 0.711610 0.357240 -0.587098
O3    O     O_R   0.500000 0.711610 0.642760 -0.571022
O4    O     O_R   0.500000 0.288390 0.357240 -0.587080
H1    H     H_    0.942348 0.139955 0.393596 0.183479
H2    H     H_    0.057656 0.859958 0.393820 0.183477
H3    H     H_    0.954888 0.873576 0.447097 0.176476
H4    H     H_    0.045115 0.126316 0.446869 0.176460
C1    C     C_R   0.500089 0.219875 0.499930 0.842403
C2    C     C_R   0.499913 0.780124 0.499929 0.842378
O5    O     O_R   0.417880 0.500000 0.642820 -0.591788
O6    O     O_R   0.582120 0.500000 0.357180 -0.577479
O7    O     O_R   0.582120 0.500000 0.642820 -0.591785
O8    O     O_R   0.417880 0.500000 0.357180 -0.577506
C3    C     C_R   0.209087 0.482232 0.467544 0.179861
C4    C     C_R   0.790914 0.517670 0.467506 0.179871
C5    C     C_R   0.390885 0.498741 0.500056 0.815572
C6    C     C_R   0.609114 0.501262 0.500052 0.815578
Cu1   Cu    Cu3+1 0.500000 0.500000 0.669080 0.982703
Cu2   Cu    Cu3+1 0.500000 0.500000 0.330920 0.979213
C7    C     C_R   0.295552 0.618707 0.528261 -0.022417
C8    C     C_R   0.704435 0.381227 0.528178 -0.022428
C9    C     C_R   0.301432 0.358832 0.467381 -0.032398
C10   C     C_R   0.698579 0.641127 0.467406 -0.032397
C11   C     C_R   0.328546 0.492349 0.499843 -0.085221
C12   C     C_R   0.671453 0.507618 0.499829 -0.085249
C13   C     C_R   0.884398 0.639277 0.475026 0.559690
C14   C     C_R   0.115605 0.360602 0.474950 0.559701
C15   C     C_R   0.879312 0.390551 0.386922 0.553334
C16   C     C_R   0.120691 0.609368 0.386998 0.553329
N1    N     N_R   0.852339 0.517080 0.440404 -0.456350
N2    N     N_R   0.147664 0.482818 0.440414 -0.456348
C17   C     C_R   0.938390 0.376601 0.401389 -0.007961
C18   C     C_R   0.061613 0.623309 0.401466 -0.007958
C19   C     C_R   0.942900 0.638979 0.440160 -0.010469
C20   C     C_R   0.057103 0.360915 0.440078 -0.010475
C21   C     C_R   0.970262 0.503948 0.418363 -0.021482
C22   C     C_R   0.029741 0.495955 0.418362 -0.021486
C23   C     C_R   0.966227 0.240101 0.403629 -0.143953
C24   C     C_R   0.033776 0.759808 0.403789 -0.143948
C25   C     C_R   0.975108 0.767608 0.433897 -0.147835
C26   C     C_R   0.024895 0.232289 0.433734 -0.147825
C27   C     C_1   0.500042 0.065247 0.499522 -0.210155
C28   C     C_1   0.499961 0.934752 0.499521 -0.210163
C29   C     C_R   0.236287 0.604576 0.542908 -0.009886
C30   C     C_R   0.763703 0.395308 0.542802 -0.009892
C31   C     C_R   0.243842 0.361660 0.418381 -0.008239
C32   C     C_R   0.756169 0.638278 0.418399 -0.008214
N3    N     N_1   0.500000 0.500000 0.076820 -0.055044
N4    N     N_1   0.500000 0.500000 0.923180 -0.052453
O9    O     O_2   0.860823 0.758457 0.548689 -0.525593
O10   O     O_2   0.139179 0.241389 0.548542 -0.525594
O11   O     O_2   0.849384 0.278452 0.321566 -0.530581
O12   O     O_2   0.150620 0.721498 0.321713 -0.530577
C33   C     C_1   0.204432 0.714118 0.637752 0.302797
N5    N     N_1   0.179102 0.801600 0.713843 -0.230761
C34   C     C_1   0.795549 0.285700 0.637570 0.302807
N6    N     N_1   0.820871 0.198165 0.713599 -0.230747
C35   C     C_1   0.222880 0.247511 0.306959 0.306135
N7    N     N_1   0.206290 0.156360 0.217403 -0.248449
C36   C     C_1   0.777144 0.752456 0.307033 0.306125
N8    N     N_1   0.793744 0.843629 0.217522 -0.248434
C37   C     C_3   0.321382 0.768784 0.508374 -0.402373
C38   C     C_3   0.315015 0.820687 0.320192 -0.293470
C39   C     C_3   0.369412 0.887365 0.249770 -0.849268
H5    H     H_    0.386165 0.971102 0.338490 0.246902
H6    H     H_    0.402015 0.800730 0.231074 0.280326
H7    H     H_    0.360594 0.939369 0.123661 0.246151
H8    H     H_    0.303289 0.729053 0.233431 0.238648
H9    H     H_    0.279987 0.902428 0.312145 0.237048
H10   H     H_    0.299611 0.848170 0.593713 0.196025
H11   H     H_    0.366526 0.768091 0.549619 0.196325
C40   C     C_3   0.678582 0.231174 0.508294 -0.402401
C41   C     C_3   0.684954 0.179258 0.320122 -0.293462
C42   C     C_3   0.630579 0.112411 0.249771 -0.849221
H12   H     H_    0.613826 0.028791 0.338658 0.246902
H13   H     H_    0.597962 0.198986 0.230841 0.280267
H14   H     H_    0.639427 0.060205 0.123783 0.246137
H15   H     H_    0.696631 0.270915 0.233324 0.238613
H16   H     H_    0.720018 0.097612 0.312074 0.237062
H17   H     H_    0.700335 0.151771 0.593654 0.196023
H18   H     H_    0.633435 0.231910 0.549513 0.196331
C43   C     C_3   0.331566 0.215861 0.508309 -0.411983
C44   C     C_3   0.337117 0.199674 0.705133 -0.303189
C45   C     C_3   0.370176 0.062888 0.759692 -0.828735
H19   H     H_    0.340541 0.978525 0.807205 0.238244
H20   H     H_    0.395490 0.016912 0.652458 0.255882
H21   H     H_    0.399623 0.089600 0.866590 0.250655
H22   H     H_    0.358890 0.295929 0.759896 0.234570
H23   H     H_    0.294001 0.196884 0.763527 0.235551
H24   H     H_    0.307424 0.121317 0.459347 0.216366
H25   H     H_    0.374009 0.213501 0.446186 0.188540
C46   C     C_3   0.668453 0.784106 0.508358 -0.411979
C47   C     C_3   0.662904 0.800275 0.705186 -0.303194
C48   C     C_3   0.629838 0.937044 0.759767 -0.828690
H26   H     H_    0.659473 0.021420 0.807261 0.238256
H27   H     H_    0.604510 0.983018 0.652547 0.255860
H28   H     H_    0.600399 0.910308 0.866691 0.250632
H29   H     H_    0.641136 0.704007 0.759944 0.234566
H30   H     H_    0.706021 0.803073 0.763569 0.235556
H31   H     H_    0.692600 0.878650 0.459402 0.216388
H32   H     H_    0.626011 0.786482 0.446246 0.188523

loop_
_geom_bond_atom_site_label_1
_geom_bond_atom_site_label_2
_geom_bond_distance
_ccdc_geom_bond_type
C33   N5    1.157524 T    
C46   C47   1.543255 S    
C40   C41   1.545591 S    
C20   C26   1.407091 A    
Cu1   Cu2   2.629781 S    
C6    C12   1.469418 S    
C3    C31   1.421361 A    
C27   C28   1.195135 T    
C4    C32   1.421364 A    
C34   N6    1.157531 T    
C48   H28   1.111131 S    
C3    N2    1.461507 S    
C45   H19   1.108704 S    
C4    N1    1.461507 S    
C43   H25   1.110005 S    
C16   O12   1.349373 S    
O5    Cu1   1.944297 S    
C21   C22   1.401751 A    
C9    C43   1.517857 S    
O7    C6    1.279410 A    
C18   C24   1.406828 A    
C19   C21   1.399992 A    
H4    C26   1.082320 S    
C15   C17   1.400347 A    
O2    Cu2   1.948773 S    
C48   H26   1.108745 S    
C39   H6    1.109016 S    
O3    Cu1   1.948768 S    
C38   H9    1.111032 S    
C9    C11   1.406909 A    
C35   N7    1.157537 T    
C41   H16   1.111066 S    
O8    C5    1.280145 A    
C36   N8    1.157537 T    
C44   H23   1.112605 S    
C40   H17   1.107098 S    
C13   O9    1.348204 S    
C23   C26   1.402304 A    
C7    C29   1.407066 A    
C45   H20   1.106275 S    
C1    C27   1.416145 S    
O1    Cu1   1.948774 S    
C41   C42   1.525169 S    
C16   C18   1.400336 A    
C13   N1    1.381529 A    
C10   C32   1.408533 A    
O8    Cu2   1.944288 S    
C14   N2    1.381528 A    
O1    C1    1.275730 A    
C44   C45   1.529432 S    
C4    C30   1.421608 A    
O7    Cu1   1.944286 S    
C13   C19   1.403868 A    
C2    C28   1.416143 S    
C17   C21   1.398289 A    
C42   H12   1.106728 S    
Cu2   N3    1.976067 S    
C43   C44   1.543258 S    
C47   H30   1.112597 S    
C39   H7    1.109109 S    
O6    Cu2   1.944295 S    
C17   C23   1.406832 A    
C38   H8    1.113370 S    
C42   H13   1.109102 S    
C29   C33   1.449355 S    
C24   C25   1.402298 A    
C8    C30   1.407077 A    
C37   H10   1.107095 S    
C39   H5    1.106694 S    
C41   H15   1.113389 S    
H1    C23   1.082536 S    
C30   C34   1.449363 S    
H2    C24   1.082532 S    
C44   H22   1.108491 S    
C3    C29   1.421602 A    
C46   H31   1.107239 S    
O2    C2    1.274779 A    
C40   H18   1.110243 S    
C45   H21   1.111077 S    
C7    C11   1.405962 A    
O5    C5    1.279416 A    
C18   C22   1.398287 A    
C10   C12   1.406908 A    
C46   H32   1.110005 S    
C48   H27   1.106364 S    
C43   H24   1.107228 S    
C5    C11   1.469430 S    
C38   C39   1.525133 S    
C9    C31   1.408537 A    
C20   C22   1.399990 A    
C15   N1    1.380936 A    
O3    C2    1.275726 A    
C10   C46   1.517868 S    
C16   N2    1.380934 A    
C14   O10   1.348197 S    
Cu1   N4    1.976067 S    
C32   C36   1.447712 S    
C15   O11   1.349375 S    
C47   H29   1.108490 S    
H3    C25   1.082328 S    
C47   C48   1.529442 S    
C19   C25   1.407091 A    
C42   H14   1.109198 S    
C7    C37   1.515483 S    
C31   C35   1.447706 S    
C37   C38   1.545607 S    
O4    Cu2   1.948769 S    
C37   H11   1.110229 S    
C14   C20   1.403878 A    
N3    N4    1.194818 T    
C8    C12   1.405965 A    
O6    C6    1.280140 A    
C8    C40   1.515495 S    
O4    C1    1.274774 A    
