data_str_m9_o16_o23_f0_sra.sym.10
_audit_creation_date              2012-12-11T15:12:39-0500
_audit_creation_method            fapswitch 2.2
_symmetry_space_group_name_H-M    P1
_symmetry_Int_Tables_number       1
_space_group_crystal_system       triclinic
_cell_length_a                    22.610793
_cell_length_b                    6.941293
_cell_length_c                    19.096347
_cell_angle_alpha                 89.996655
_cell_angle_beta                  99.246064
_cell_angle_gamma                 90.000251
_cell_volume                      2958.19555064

loop_
_atom_site_label
_atom_site_type_symbol
_atom_type_description
_atom_site_fract_x
_atom_site_fract_y
_atom_site_fract_z
_atom_type_partial_charge
O1    O     O_R   0.448420 0.506120 0.415750 -0.540526
O2    O     O_R   0.551580 0.006120 0.584250 -0.540521
O3    O     O_R   0.436490 0.174470 0.555610 -0.540985
O4    O     O_R   0.563510 0.674470 0.444390 -0.540982
C1    C     C_R   0.420322 0.344901 0.574910 0.712677
C2    C     C_R   0.579678 0.844909 0.425091 0.712678
O5    O     O_R   0.441310 0.176330 0.414520 -0.532956
O6    O     O_R   0.558690 0.676330 0.585480 -0.532960
O7    O     O_R   0.556430 0.007110 0.442150 -0.528374
O8    O     O_R   0.443570 0.507110 0.557850 -0.528372
C3    C     C_R   0.426555 0.345419 0.387806 0.690266
C4    C     C_R   0.573445 0.845409 0.612195 0.690260
O9    O     O_3   0.537770 0.339560 0.509230 -0.364397
O10   O     O_3   0.462230 0.839560 0.490770 -0.364399
V1    V     V_3+5 0.492990 0.064280 0.498290 1.434741
V2    V     V_3+5 0.507010 0.564280 0.501710 1.434740
C5    C     C_R   0.866124 0.958860 0.691238 -0.161102
C6    C     C_R   0.133872 0.458807 0.308762 -0.161102
H1    H     H_    0.953158 0.986017 0.754671 0.100923
H2    H     H_    0.046837 0.485954 0.245329 0.100922
H3    H     H_    0.783029 0.944441 0.575817 0.118900
H4    H     H_    0.216969 0.444403 0.424183 0.118901
H5    H     H_    0.883813 0.976842 0.642156 0.107465
H6    H     H_    0.116182 0.476780 0.357844 0.107465
C7    C     C_R   0.884814 0.940077 0.819694 -0.042285
C8    C     C_R   0.115183 0.440041 0.180308 -0.042283
C9    C     C_R   0.592587 0.834374 0.745557 0.001125
C10   C     C_R   0.407414 0.334470 0.254444 0.001124
C11   C     C_R   0.631346 0.841850 0.810346 -0.156302
C12   C     C_R   0.368655 0.341963 0.189655 -0.156306
C13   C     C_R   0.692385 0.866109 0.813603 -0.182464
C14   C     C_R   0.307615 0.366181 0.186398 -0.182465
C15   C     C_R   0.718067 0.885078 0.751614 0.082991
C16   C     C_R   0.281932 0.385099 0.248388 0.082994
C17   C     C_R   0.678928 0.880809 0.684423 0.059337
C18   C     C_R   0.321071 0.380827 0.315578 0.059334
C19   C     C_R   0.781467 0.909385 0.754642 0.077308
C20   C     C_R   0.218531 0.409368 0.245359 0.077307
C21   C     C_R   0.804363 0.931885 0.690200 0.138442
C22   C     C_R   0.195634 0.431851 0.309801 0.138443
C23   C     C_R   0.765584 0.927736 0.625127 -0.204772
C24   C     C_R   0.234414 0.427710 0.374874 -0.204772
C25   C     C_R   0.704078 0.902101 0.622165 -0.184947
C26   C     C_R   0.295920 0.402096 0.377836 -0.184950
C27   C     C_R   0.823168 0.912489 0.819341 -0.211894
C28   C     C_R   0.176829 0.412459 0.180660 -0.211896
C29   C     C_R   0.905819 0.963878 0.755316 -0.172369
C30   C     C_R   0.094177 0.463824 0.244684 -0.172371
C31   C     C_R   0.615588 0.855025 0.681178 -0.134840
C32   C     C_R   0.384411 0.355067 0.318824 -0.134837
H7    H     H_    0.809567 0.894733 0.870458 0.091224
H8    H     H_    0.190430 0.394704 0.129544 0.091225
H9    H     H_    0.718088 0.870612 0.866124 0.112149
H10   H     H_    0.281912 0.370698 0.133878 0.112150
H11   H     H_    0.613906 0.830248 0.859859 0.121158
H12   H     H_    0.386096 0.330397 0.140143 0.121158
H13   H     H_    0.676298 0.899766 0.570410 0.108442
H14   H     H_    0.323701 0.399764 0.429590 0.108441
C33   C     C_3   0.813466 0.745641 0.270145 -0.323707
C34   C     C_3   0.186521 0.245701 0.729852 -0.323705
C35   C     C_3   0.791191 0.099529 0.254864 -0.335711
C36   C     C_3   0.208829 0.599561 0.745143 -0.335718
C37   C     C_3   0.744164 0.080334 0.305741 -0.322239
C38   C     C_3   0.255854 0.580344 0.694265 -0.322238
H15   H     H_    0.786565 0.747443 0.375936 0.136999
H16   H     H_    0.213421 0.247529 0.624060 0.136998
H17   H     H_    0.857807 0.777001 0.302651 0.135700
H18   H     H_    0.142183 0.277112 0.697349 0.135700
H19   H     H_    0.777685 0.218261 0.216428 0.134877
H20   H     H_    0.222345 0.718268 0.783581 0.134876
H21   H     H_    0.835420 0.139269 0.285974 0.136646
H22   H     H_    0.164603 0.639353 0.714033 0.136646
H23   H     H_    0.766470 0.105439 0.361301 0.136311
H24   H     H_    0.233550 0.605493 0.638706 0.136309
H25   H     H_    0.709546 0.193966 0.293402 0.137006
H26   H     H_    0.290482 0.693941 0.706606 0.137016
C39   C     C_1   0.627624 0.855001 0.382426 -0.183731
C40   C     C_1   0.372375 0.354973 0.617575 -0.183727
C41   C     C_3   0.796771 0.908235 0.214373 0.294573
C42   C     C_3   0.203231 0.408257 0.785629 0.294573
C43   C     C_3   0.765137 0.726840 0.319787 -0.333726
C44   C     C_3   0.234847 0.226878 0.680207 -0.333735
C45   C     C_3   0.714608 0.877748 0.299721 0.290012
C46   C     C_3   0.285392 0.377729 0.700279 0.290015
C47   C     C_3   0.686898 0.841866 0.221097 -0.331316
C48   C     C_3   0.313097 0.341780 0.778902 -0.331313
C49   C     C_3   0.734543 0.860244 0.171374 -0.331385
C50   C     C_3   0.265455 0.360189 0.828625 -0.331381
C51   C     C_1   0.667309 0.864136 0.346145 -0.098980
C52   C     C_1   0.332690 0.364102 0.653855 -0.098976
C53   C     C_1   0.841945 0.925722 0.165622 -0.102014
C54   C     C_1   0.158058 0.425757 0.834380 -0.102012
C55   C     C_1   0.878109 0.938657 0.124996 -0.194462
C56   C     C_1   0.121893 0.438685 0.875006 -0.194462
H27   H     H_    0.736873 0.722804 0.141901 0.137840
H28   H     H_    0.263112 0.222742 0.858096 0.137838
H29   H     H_    0.720743 0.974964 0.131333 0.136223
H30   H     H_    0.279267 0.474882 0.868669 0.136221
H31   H     H_    0.666522 0.695969 0.214885 0.134093
H32   H     H_    0.333456 0.195856 0.785107 0.134083
H33   H     H_    0.817585 0.605928 0.242745 0.135272
H34   H     H_    0.182391 0.105981 0.757249 0.135275
H35   H     H_    0.745847 0.578966 0.315337 0.136062
H36   H     H_    0.254123 0.078984 0.684651 0.136068
H37   H     H_    0.650825 0.947025 0.204554 0.143527
H38   H     H_    0.349184 0.446887 0.795448 0.143529
O11   O     O_R   0.056480 0.288780 0.942210 -0.535540
O12   O     O_R   0.943520 0.788780 0.057790 -0.535545
O13   O     O_R   0.058700 0.616820 0.085490 -0.537133
O14   O     O_R   0.941300 0.116820 0.914510 -0.537138
C57   C     C_R   0.072641 0.448367 0.112644 0.692855
C58   C     C_R   0.927357 0.948377 0.887357 0.692852
O15   O     O_R   0.063520 0.618570 0.944410 -0.537779
O16   O     O_R   0.936480 0.118570 0.055590 -0.537776
O17   O     O_R   0.948420 0.787670 0.915740 -0.535041
O18   O     O_R   0.051580 0.287670 0.084260 -0.535046
C59   C     C_R   0.078167 0.449700 0.923024 0.726855
C60   C     C_R   0.921834 0.949692 0.076977 0.726857
O19   O     O_3   0.962260 0.453430 0.990800 -0.366193
O20   O     O_3   0.037740 0.953430 0.009200 -0.366193
V3    V     V_3+5 0.007000 0.728750 0.001710 1.419916
V4    V     V_3+5 0.993000 0.228750 0.998290 1.419917
C61   C     C_R   0.528180 0.808011 0.749171 0.073280
C62   C     C_R   0.510760 0.659654 0.791690 -0.131956
C63   C     C_R   0.452990 0.655567 0.808261 -0.119689
C64   C     C_R   0.411199 0.794664 0.780217 -0.112414
C65   C     C_R   0.427187 0.936857 0.735074 -0.125896
C66   C     C_R   0.485777 0.946613 0.720764 -0.109129
H39   H     H_    0.542916 0.552755 0.815047 0.108821
H40   H     H_    0.441468 0.547245 0.844466 0.100590
H41   H     H_    0.366857 0.794650 0.794566 0.094101
H42   H     H_    0.394787 0.043514 0.713228 0.113947
H43   H     H_    0.498563 0.067318 0.690688 0.113599
C67   C     C_R   0.471822 0.308123 0.250831 0.073274
C68   C     C_R   0.489244 0.159782 0.208313 -0.131956
C69   C     C_R   0.547017 0.155697 0.191751 -0.119687
C70   C     C_R   0.588807 0.294777 0.219802 -0.112409
C71   C     C_R   0.572816 0.436954 0.264943 -0.125900
C72   C     C_R   0.514223 0.446713 0.279244 -0.109125
H44   H     H_    0.457089 0.052894 0.184953 0.108822
H45   H     H_    0.558541 0.047388 0.155547 0.100591
H46   H     H_    0.633153 0.294762 0.205461 0.094095
H47   H     H_    0.605217 0.543595 0.286795 0.113956
H48   H     H_    0.501436 0.567406 0.309319 0.113605

loop_
_geom_bond_atom_site_label_1
_geom_bond_atom_site_label_2
_ccdc_geom_bond_type
C12   C14   A    
C70   H46   S    
C50   H28   S    
O4    V2    S    
C64   C65   A    
O17   V3    S    
C9    C11   A    
O1    C3    A    
O12   V3    S    
O2    C4    A    
C2    O7    A    
C41   C49   S    
C4    C31   S    
C18   C32   A    
C61   C62   A    
C21   C23   A    
C40   C52   T    
O5    C3    A    
C39   C51   T    
C5    H5    S    
C46   C52   S    
C6    H6    S    
C36   C42   S    
C46   C48   S    
C71   H47   S    
O13   C57   A    
C56   C59   S    
C48   C50   S    
H16   C44   S    
C27   H7    S    
C28   H8    S    
C36   H20   S    
C5    C21   A    
C35   C37   S    
C6    C22   A    
C65   H42   S    
C38   C46   S    
C36   C38   S    
C7    C58   S    
C33   H17   S    
C34   C44   S    
C63   H40   S    
C26   H14   S    
C49   H27   S    
C17   C31   A    
C13   C15   A    
C57   O18   A    
C17   C25   A    
C7    C29   A    
C41   C53   S    
C8    C30   A    
C35   H21   S    
C47   C49   S    
O6    V2    S    
C11   C13   A    
C23   C25   A    
C48   H38   S    
C24   C26   A    
C34   H34   S    
C14   H10   S    
C43   C45   S    
O20   V4    S    
O19   V3    S    
C68   H44   S    
C45   C51   S    
C33   H33   S    
O12   C60   A    
C68   C69   A    
O4    C2    A    
C33   C41   S    
C67   C72   A    
C10   C32   A    
C2    C39   S    
O5    V1    S    
C37   H23   S    
C12   H12   S    
C15   C19   A    
C37   C45   S    
C14   C16   A    
C42   C54   S    
C69   H45   S    
C47   H31   S    
C53   C55   T    
C72   H48   S    
H15   C43   S    
O6    C4    A    
C54   C56   T    
C38   H26   S    
C36   H22   S    
O1    V2    S    
O16   C60   A    
C13   H9    S    
O2    V1    S    
H2    C30   S    
O18   V4    S    
O15   C59   A    
C45   C47   S    
C44   C46   S    
O9    V1    S    
C63   C64   A    
H3    C23   S    
C18   C26   A    
C55   C60   S    
C19   C27   A    
C65   C66   A    
C7    C27   A    
C48   H32   S    
O20   V3    S    
C43   H35   S    
O19   V4    S    
C35   H19   S    
C34   C42   S    
C9    C61   S    
C16   C20   A    
C5    C29   A    
C69   C70   A    
O3    C1    A    
C6    C30   A    
C38   H24   S    
C67   C68   A    
C11   H11   S    
C70   C71   A    
H1    C29   S    
C10   C12   A    
O7    V1    S    
C1    O8    A    
C42   C50   S    
C3    C32   S    
O8    V2    S    
C66   H43   S    
O14   V4    S    
C20   C22   A    
O13   V3    S    
C61   C66   A    
H4    C24   S    
C37   H25   S    
C64   H41   S    
C35   C41   S    
C22   C24   A    
C15   C17   A    
C16   C18   A    
C62   H39   S    
O10   V2    S    
O14   C58   A    
C20   C28   A    
C71   C72   A    
C25   H13   S    
O16   V4    S    
C10   C67   S    
O15   V3    S    
C34   H18   S    
C19   C21   A    
O9    V2    S    
C33   C43   S    
C44   H36   S    
O10   V1    S    
O3    V1    S    
C47   H37   S    
O11   V4    S    
C1    C40   S    
C8    C28   A    
C8    C57   S    
O11   C59   A    
C58   O17   A    
C50   H30   S    
C9    C31   A    
C62   C63   A    
C49   H29   S    
