data_str_m12_o22_o24_f0_bcu.sym.237
_audit_creation_date              2012-12-11T15:56:55-0500
_audit_creation_method            fapswitch 2.2
_symmetry_space_group_name_H-M    P1
_symmetry_Int_Tables_number       1
_space_group_crystal_system       triclinic
_cell_length_a                    17.640913
_cell_length_b                    24.597672
_cell_length_c                    15.04464
_cell_angle_alpha                 89.929519
_cell_angle_beta                  127.161606
_cell_angle_gamma                 90.014602
_cell_volume                      5202.58627186

loop_
_atom_site_label
_atom_site_type_symbol
_atom_type_description
_atom_site_fract_x
_atom_site_fract_y
_atom_site_fract_z
_atom_type_partial_charge
C1    C     C_R   0.319124 0.136432 0.904496 0.033000
C2    C     C_R   0.336347 0.852590 0.907681 0.021987
C3    C     C_R   0.819117 0.636427 0.904492 0.032990
C4    C     C_R   0.836349 0.352590 0.907680 0.021978
C5    C     C_R   0.647293 0.151440 0.094659 -0.143021
C6    C     C_R   0.647322 0.848408 0.094600 -0.145191
C7    C     C_R   0.147292 0.651440 0.094660 -0.143000
C8    C     C_R   0.147330 0.348411 0.094604 -0.145177
C9    C     C_R   0.556105 0.848029 0.909716 -0.162233
C10   C     C_R   0.554824 0.152712 0.910135 -0.169533
C11   C     C_R   0.056111 0.348031 0.909719 -0.162230
C12   C     C_R   0.054822 0.652713 0.910137 -0.169535
C13   C     C_R   0.547433 0.000107 0.724863 -0.010644
C14   C     C_R   0.047432 0.500107 0.724862 -0.010647
C15   C     C_R   0.824749 0.000386 0.275147 0.034304
C16   C     C_R   0.324771 0.500387 0.275252 0.034341
C17   C     C_R   0.618264 0.182953 0.004301 0.015749
C18   C     C_R   0.616278 0.816916 0.003681 0.004000
C19   C     C_R   0.118260 0.682955 0.004304 0.015734
C20   C     C_R   0.116290 0.316920 0.003686 0.004003
C21   C     C_3   0.048064 0.948025 0.461469 -0.168856
C22   C     C_3   0.031675 0.025179 0.521186 -0.130135
C23   C     C_3   0.548210 0.448030 0.461172 -0.168863
C24   C     C_3   0.531719 0.524968 0.521417 -0.129872
C25   C     C_3   0.971022 0.974185 0.465277 -0.155939
C26   C     C_3   0.471152 0.473973 0.465216 -0.156085
C27   C     C_3   0.928106 0.000585 0.351752 0.183230
C28   C     C_3   0.428132 0.500587 0.351847 0.183195
C29   C     C_3   0.004011 0.974366 0.346208 -0.148795
C30   C     C_3   0.989006 0.051687 0.407509 -0.158967
C31   C     C_3   0.504046 0.474588 0.346059 -0.148624
C32   C     C_3   0.488949 0.551688 0.407899 -0.158896
C33   C     C_3   0.067506 0.025668 0.404747 -0.150605
C34   C     C_3   0.567452 0.525888 0.404894 -0.150725
C35   C     C_R   0.430677 0.854722 0.095235 -0.147264
C36   C     C_R   0.413055 0.134879 0.093025 -0.134130
C37   C     C_R   0.930683 0.354718 0.095234 -0.147270
C38   C     C_R   0.913052 0.634878 0.093022 -0.134131
C39   C     C_3   0.108839 0.999122 0.517789 0.192346
C40   C     C_3   0.608894 0.499127 0.517780 0.192288
C41   C     C_3   0.308083 0.792905 0.119836 -0.388898
C42   C     C_3   0.275203 0.191199 0.109798 -0.381934
C43   C     C_3   0.808093 0.292899 0.119831 -0.388903
C44   C     C_3   0.775186 0.691192 0.109785 -0.381936
C45   C     C_3   0.747401 0.250083 0.123488 -0.431741
C46   C     C_3   0.724653 0.739734 0.117449 -0.432907
C47   C     C_3   0.247398 0.750085 0.123495 -0.431748
C48   C     C_3   0.224673 0.239742 0.117462 -0.432913
C49   C     C_3   0.812082 0.229163 0.985055 -0.143464
C50   C     C_3   0.806158 0.754458 0.995594 -0.135992
C51   C     C_3   0.312075 0.729169 0.985058 -0.143469
C52   C     C_3   0.306163 0.254461 0.995589 -0.135994
C53   C     C_3   0.188974 0.804084 0.915366 -0.436784
C54   C     C_3   0.164847 0.191455 0.902702 -0.452111
C55   C     C_3   0.688982 0.304079 0.915359 -0.436776
C56   C     C_3   0.664839 0.691453 0.902688 -0.452098
C57   C     C_3   0.295438 0.788471 0.007866 0.350501
C58   C     C_3   0.272066 0.197156 0.003913 0.352150
C59   C     C_3   0.795446 0.288465 0.007862 0.350502
C60   C     C_3   0.772056 0.697152 0.003906 0.352146
C61   C     C_3   0.680564 0.222669 0.007543 0.407895
C62   C     C_3   0.670187 0.771908 0.006392 0.412548
C63   C     C_3   0.180558 0.722673 0.007548 0.407898
C64   C     C_3   0.170199 0.271913 0.006400 0.412560
C65   C     C_3   0.742382 0.191005 0.982829 -0.435823
C66   C     C_3   0.743012 0.797942 0.992856 -0.441002
C67   C     C_3   0.242375 0.691010 0.982831 -0.435825
C68   C     C_3   0.243020 0.297946 0.992853 -0.441010
C69   C     C_3   0.621675 0.266983 0.918945 -0.428830
C70   C     C_3   0.603907 0.731567 0.911204 -0.439611
C71   C     C_3   0.121668 0.766989 0.918956 -0.428832
C72   C     C_3   0.103917 0.231569 0.911219 -0.439622
C73   C     C_3   0.611268 0.051363 0.638492 -0.401234
C74   C     C_3   0.613020 0.949400 0.640104 -0.401511
C75   C     C_3   0.111262 0.551366 0.638487 -0.401241
C76   C     C_3   0.113027 0.449404 0.640109 -0.401513
C77   C     C_R   0.544088 0.045367 0.302397 -0.146721
C78   C     C_R   0.542986 0.954417 0.301820 -0.144541
C79   C     C_R   0.044088 0.545367 0.302397 -0.146717
C80   C     C_R   0.042985 0.454417 0.301820 -0.144536
C81   C     C_3   0.612433 0.051586 0.537114 -0.403587
C82   C     C_3   0.615283 0.949362 0.539468 -0.403838
C83   C     C_3   0.112429 0.551588 0.537110 -0.403586
C84   C     C_3   0.115290 0.449365 0.539472 -0.403832
C85   C     C_3   0.455488 0.999579 0.524018 -0.391422
C86   C     C_3   0.955488 0.499576 0.524017 -0.391405
C87   C     C_3   0.557988 0.000127 0.635008 0.398685
C88   C     C_3   0.057988 0.500128 0.635008 0.398683
C89   C     C_3   0.561709 0.999976 0.464916 0.403883
C90   C     C_3   0.061709 0.499977 0.464917 0.403879
C91   C     C_3   0.457807 0.999126 0.424534 -0.400536
C92   C     C_3   0.957807 0.499123 0.424533 -0.400542
C93   C     C_R   0.247017 0.954730 0.689508 -0.143039
C94   C     C_R   0.248247 0.044402 0.687737 -0.135358
C95   C     C_R   0.747048 0.454733 0.689489 -0.142984
C96   C     C_R   0.748273 0.544404 0.687728 -0.135352
C97   C     C_R   0.328444 0.154920 0.999014 -0.068835
C98   C     C_R   0.356338 0.827640 0.003497 -0.059111
C99   C     C_R   0.828437 0.654916 0.999010 -0.068833
C100  C     C_R   0.856347 0.327635 0.003495 -0.059112
C101  C     C_R   0.556562 0.999869 0.363745 -0.009031
C102  C     C_R   0.056562 0.499869 0.363746 -0.009021
C103  C     C_R   0.203017 0.999340 0.624261 0.001368
C104  C     C_R   0.703082 0.499343 0.624230 0.001301
C105  C     C_R   0.518568 0.045768 0.751761 -0.138280
C106  C     C_R   0.518496 0.954374 0.751614 -0.135926
C107  C     C_R   0.018568 0.545768 0.751761 -0.138280
C108  C     C_R   0.018495 0.454375 0.751613 -0.135925
C109  C     C_R   0.769779 0.954384 0.249396 -0.145226
C110  C     C_R   0.769500 0.046021 0.250040 -0.129900
C111  C     C_R   0.269792 0.454384 0.249454 -0.145221
C112  C     C_R   0.269510 0.546023 0.250099 -0.129910
H1    H     H_    0.073279 0.905399 0.484094 0.109023
H2    H     H_    0.042840 0.045619 0.593944 0.106798
H3    H     H_    0.573525 0.405409 0.483514 0.109046
H4    H     H_    0.542915 0.545237 0.594340 0.106760
H5    H     H_    0.989919 0.953620 0.272087 0.118199
H6    H     H_    0.964095 0.094345 0.383921 0.097232
H7    H     H_    0.489945 0.454025 0.271775 0.118162
H8    H     H_    0.463955 0.594345 0.384591 0.097124
H9    H     H_    0.109649 0.046638 0.382441 0.108657
H10   H     H_    0.609518 0.547038 0.382673 0.108668
H11   H     H_    0.382541 0.788852 0.194870 0.136358
H12   H     H_    0.347331 0.187459 0.189026 0.134387
H13   H     H_    0.882551 0.288842 0.194863 0.136367
H14   H     H_    0.847311 0.687449 0.189015 0.134388
H15   H     H_    0.285084 0.833977 0.126149 0.160746
H16   H     H_    0.238197 0.153024 0.103219 0.159223
H17   H     H_    0.785101 0.333972 0.126149 0.160745
H18   H     H_    0.738176 0.653016 0.103197 0.159221
H19   H     H_    0.206343 0.768991 0.148986 0.163087
H20   H     H_    0.175206 0.225421 0.134867 0.175129
H21   H     H_    0.706345 0.268993 0.148974 0.163092
H22   H     H_    0.675183 0.725412 0.134846 0.175136
H23   H     H_    0.795225 0.219616 0.188555 0.144641
H24   H     H_    0.778008 0.765950 0.188529 0.144384
H25   H     H_    0.295224 0.719618 0.188558 0.144651
H26   H     H_    0.278030 0.265960 0.188537 0.144387
H27   H     H_    0.780410 0.157180 0.044073 0.167250
H28   H     H_    0.786455 0.828910 0.059343 0.165018
H29   H     H_    0.280404 0.657185 0.044071 0.167259
H30   H     H_    0.286465 0.328915 0.059337 0.165029
H31   H     H_    0.170331 0.798492 0.832095 0.173956
H32   H     H_    0.153908 0.204021 0.825862 0.188707
H33   H     H_    0.670342 0.298488 0.832088 0.173945
H34   H     H_    0.653907 0.704019 0.825852 0.188702
H35   H     H_    0.470662 0.844493 0.182442 0.096395
H36   H     H_    0.448233 0.144587 0.179521 0.098353
H37   H     H_    0.970671 0.344487 0.182440 0.096398
H38   H     H_    0.948228 0.644587 0.179518 0.098356
H39   H     H_    0.175084 0.847316 0.923237 0.164054
H40   H     H_    0.138561 0.149193 0.893860 0.160949
H41   H     H_    0.675092 0.347310 0.923232 0.164049
H42   H     H_    0.638552 0.649191 0.893841 0.160942
H43   H     H_    0.080395 0.790907 0.938846 0.159489
H44   H     H_    0.058939 0.209599 0.927991 0.169053
H45   H     H_    0.580394 0.290901 0.938823 0.159485
H46   H     H_    0.558923 0.709595 0.927967 0.169047
H47   H     H_    0.569387 0.249232 0.834736 0.147764
H48   H     H_    0.554390 0.751850 0.829136 0.149665
H49   H     H_    0.069374 0.749240 0.834748 0.147765
H50   H     H_    0.054395 0.251850 0.829150 0.149664
H51   H     H_    0.789490 0.229565 0.898220 0.122107
H52   H     H_    0.789934 0.755854 0.911716 0.111506
H53   H     H_    0.289483 0.729573 0.898223 0.122118
H54   H     H_    0.289933 0.255854 0.911707 0.111497
H55   H     H_    0.696438 0.171432 0.899136 0.148353
H56   H     H_    0.705072 0.820247 0.912008 0.150039
H57   H     H_    0.196431 0.671440 0.899135 0.148353
H58   H     H_    0.205075 0.320249 0.912003 0.150037
H59   H     H_    0.575950 0.089331 0.635822 0.145286
H60   H     H_    0.578460 0.911133 0.637699 0.146343
H61   H     H_    0.075939 0.589332 0.635813 0.145287
H62   H     H_    0.078473 0.411134 0.637710 0.146343
H63   H     H_    0.685329 0.051891 0.717040 0.156271
H64   H     H_    0.686817 0.949422 0.719119 0.154996
H65   H     H_    0.185323 0.551897 0.717036 0.156268
H66   H     H_    0.186824 0.449428 0.719123 0.154995
H67   H     H_    0.687061 0.053197 0.565464 0.152683
H68   H     H_    0.690222 0.949394 0.568737 0.152556
H69   H     H_    0.187057 0.553202 0.565462 0.152687
H70   H     H_    0.190229 0.449399 0.568742 0.152560
H71   H     H_    0.575740 0.089121 0.488340 0.145770
H72   H     H_    0.581471 0.911130 0.492259 0.145496
H73   H     H_    0.075733 0.589123 0.488334 0.145766
H74   H     H_    0.081481 0.411131 0.492267 0.145497
H75   H     H_    0.415293 0.036011 0.518420 0.153207
H76   H     H_    0.416083 0.963085 0.519919 0.154529
H77   H     H_    0.915288 0.536006 0.518416 0.153211
H78   H     H_    0.916087 0.463080 0.519920 0.154530
H79   H     H_    0.556644 0.087302 0.328695 0.085206
H80   H     H_    0.553445 0.912314 0.327033 0.084151
H81   H     H_    0.056643 0.587302 0.328694 0.085206
H82   H     H_    0.053443 0.412314 0.327032 0.084152
H83   H     H_    0.418296 0.035126 0.370768 0.152987
H84   H     H_    0.420588 0.962136 0.373440 0.153972
H85   H     H_    0.918292 0.535122 0.370766 0.152989
H86   H     H_    0.920591 0.462133 0.373441 0.153972
H87   H     H_    0.242695 0.915356 0.656418 0.123264
H88   H     H_    0.244197 0.083578 0.653125 0.135431
H89   H     H_    0.742737 0.415359 0.656409 0.123261
H90   H     H_    0.744232 0.583584 0.653134 0.135412
H91   H     H_    0.523740 0.087922 0.736343 0.089825
H92   H     H_    0.523310 0.912315 0.735525 0.090032
H93   H     H_    0.023741 0.587922 0.736345 0.089826
H94   H     H_    0.023307 0.412316 0.735521 0.090030
H95   H     H_    0.793336 0.912594 0.263965 0.098709
H96   H     H_    0.792126 0.087936 0.264578 0.088884
H97   H     H_    0.293347 0.412593 0.264024 0.098682
H98   H     H_    0.292125 0.587939 0.264625 0.088865
H99   H     H_    0.689924 0.163395 0.181317 0.090538
H100  H     H_    0.690064 0.836192 0.181169 0.088014
H101  H     H_    0.189922 0.663394 0.181320 0.090534
H102  H     H_    0.190073 0.336195 0.181173 0.088010
H103  H     H_    0.516025 0.836276 0.823272 0.097625
H104  H     H_    0.515027 0.165051 0.823884 0.088763
H105  H     H_    0.016034 0.336276 0.823274 0.097627
H106  H     H_    0.015024 0.665053 0.823886 0.088770
H107  H     H_    0.930723 0.953145 0.490148 0.109018
H108  H     H_    0.430932 0.452751 0.490002 0.108974
N1    N     N_R   0.392450 0.103580 0.942190 -0.053832
N2    N     N_R   0.392450 0.896420 0.942190 -0.052675
N3    N     N_R   0.892450 0.603580 0.942190 -0.053832
N4    N     N_R   0.892450 0.396420 0.942190 -0.052676
N5    N     N_R   0.450490 0.896000 0.057360 -0.042728
N6    N     N_R   0.450490 0.104000 0.057360 -0.043490
N7    N     N_R   0.950490 0.396000 0.057360 -0.042729
N8    N     N_R   0.950490 0.604000 0.057360 -0.043491
N9    N     N_R   0.525490 0.028390 0.207550 -0.034315
N10   N     N_R   0.525490 0.971610 0.207550 -0.034625
N11   N     N_R   0.025490 0.528390 0.207550 -0.034317
N12   N     N_R   0.025490 0.471610 0.207550 -0.034627
N13   N     N_R   0.317450 0.971190 0.792000 -0.042642
N14   N     N_R   0.317450 0.028810 0.792000 -0.043960
N15   N     N_R   0.817450 0.471190 0.792000 -0.042657
N16   N     N_R   0.817450 0.528810 0.792000 -0.043972
N17   N     N_R   0.473900 0.028390 0.792280 -0.036905
N18   N     N_R   0.473900 0.971610 0.792280 -0.036232
N19   N     N_R   0.973900 0.528390 0.792280 -0.036900
N20   N     N_R   0.973900 0.471610 0.792280 -0.036228
N21   N     N_R   0.682310 0.971180 0.208170 -0.039690
N22   N     N_R   0.682310 0.028820 0.208170 -0.039941
N23   N     N_R   0.182310 0.471180 0.208170 -0.039681
N24   N     N_R   0.182310 0.528820 0.208170 -0.039933
N25   N     N_R   0.606470 0.103570 0.057210 -0.034206
N26   N     N_R   0.606470 0.896430 0.057210 -0.032246
N27   N     N_R   0.106470 0.603570 0.057210 -0.034209
N28   N     N_R   0.106470 0.396430 0.057210 -0.032248
N29   N     N_R   0.549740 0.896000 0.943240 -0.031583
N30   N     N_R   0.549740 0.104000 0.943240 -0.032191
N31   N     N_R   0.049740 0.396000 0.943240 -0.031585
N32   N     N_R   0.049740 0.604000 0.943240 -0.032193
Ni1   Ni    Ni4+2 0.433780 0.065390 0.868430 0.211823
Ni2   Ni    Ni4+2 0.433780 0.934610 0.868430 0.216212
Ni3   Ni    Ni4+2 0.933780 0.565390 0.868430 0.211814
Ni4   Ni    Ni4+2 0.933780 0.434610 0.868430 0.216204
Ni5   Ni    Ni4+2 0.565800 0.934190 0.131570 0.203382
Ni6   Ni    Ni4+2 0.565800 0.065810 0.131570 0.207213
Ni7   Ni    Ni4+2 0.065800 0.434190 0.131570 0.203384
Ni8   Ni    Ni4+2 0.065800 0.565810 0.131570 0.207214
C113  C     C_R   0.263673 0.160639 0.791621 0.111248
C114  C     C_R   0.307935 0.197368 0.764761 -0.184249
C115  C     C_R   0.256834 0.220492 0.658300 -0.126370
C116  C     C_R   0.161238 0.207017 0.577773 -0.098047
C117  C     C_R   0.116758 0.170111 0.603372 -0.118806
C118  C     C_R   0.167955 0.146408 0.709339 -0.208399
H109  H     H_    0.381639 0.208529 0.826624 0.113105
H110  H     H_    0.291292 0.249022 0.638370 0.102173
H111  H     H_    0.121662 0.225139 0.495553 0.091199
H112  H     H_    0.042767 0.159731 0.541116 0.102896
H113  H     H_    0.133187 0.117430 0.728064 0.112601
C119  C     C_R   0.298981 0.823471 0.802408 0.130772
C120  C     C_R   0.204898 0.830590 0.706400 -0.225768
C121  C     C_R   0.169766 0.800170 0.610236 -0.123775
C122  C     C_R   0.228164 0.762302 0.609102 -0.076897
C123  C     C_R   0.321423 0.754498 0.704458 -0.141275
C124  C     C_R   0.356273 0.784651 0.800742 -0.185402
H114  H     H_    0.158603 0.859661 0.706107 0.115103
H115  H     H_    0.097121 0.805771 0.536825 0.095771
H116  H     H_    0.200912 0.738647 0.534801 0.089920
H117  H     H_    0.366326 0.724557 0.704366 0.104062
H118  H     H_    0.427099 0.776667 0.875282 0.122728
C125  C     C_R   0.763679 0.660640 0.791623 0.111204
C126  C     C_R   0.807951 0.697381 0.764798 -0.184251
C127  C     C_R   0.756860 0.720525 0.658357 -0.126375
C128  C     C_R   0.661262 0.707061 0.577814 -0.098119
C129  C     C_R   0.616772 0.670141 0.603377 -0.118702
C130  C     C_R   0.667961 0.646412 0.709318 -0.208334
H119  H     H_    0.881655 0.708538 0.826677 0.113116
H120  H     H_    0.791327 0.749066 0.638456 0.102181
H121  H     H_    0.621690 0.725203 0.495612 0.091215
H122  H     H_    0.542776 0.659777 0.541117 0.102862
H123  H     H_    0.633182 0.617421 0.728005 0.112623
C131  C     C_R   0.798985 0.323476 0.802408 0.130745
C132  C     C_R   0.704909 0.330604 0.706393 -0.225704
C133  C     C_R   0.669792 0.300197 0.610219 -0.123814
C134  C     C_R   0.728193 0.262331 0.609086 -0.076935
C135  C     C_R   0.821441 0.254515 0.704451 -0.141275
C136  C     C_R   0.856279 0.284657 0.800742 -0.185386
H124  H     H_    0.658613 0.359673 0.706100 0.115140
H125  H     H_    0.597155 0.305809 0.536799 0.095800
H126  H     H_    0.700955 0.238687 0.534779 0.089932
H127  H     H_    0.866345 0.224576 0.704357 0.104064
H128  H     H_    0.927099 0.276668 0.875286 0.122726
C137  C     C_R   0.913099 0.205359 0.059069 0.183246
C138  C     C_R   0.963423 0.196785 0.174856 -0.149891
C139  C     C_R   0.049639 0.168462 0.236811 -0.136631
C140  C     C_R   0.085552 0.146198 0.184067 -0.095103
C141  C     C_R   0.035195 0.152196 0.069218 -0.128549
C142  C     C_R   0.950411 0.181936 0.007384 -0.190095
H129  H     H_    0.935048 0.208542 0.217961 0.101831
H130  H     H_    0.087027 0.162185 0.325388 0.105108
H131  H     H_    0.151392 0.123371 0.231769 0.095674
H132  H     H_    0.061594 0.133306 0.027856 0.106125
H133  H     H_    0.911577 0.184107 0.917930 0.104454
C143  C     C_R   0.911549 0.769544 0.079448 0.181701
C144  C     C_R   0.957669 0.773249 0.195287 -0.161287
C145  C     C_R   0.049401 0.794648 0.267140 -0.136302
C146  C     C_R   0.095249 0.814942 0.224572 -0.094388
C147  C     C_R   0.049693 0.813370 0.110118 -0.130112
C148  C     C_R   0.959892 0.789598 0.038348 -0.158955
H134  H     H_    0.922747 0.762606 0.231381 0.106013
H135  H     H_    0.083525 0.797407 0.355581 0.103380
H136  H     H_    0.165111 0.833059 0.279923 0.097690
H137  H     H_    0.083345 0.831806 0.076858 0.100746
H138  H     H_    0.926062 0.789853 0.949757 0.092151
C149  C     C_R   0.413092 0.705366 0.059071 0.183215
C150  C     C_R   0.463422 0.696799 0.174861 -0.149819
C151  C     C_R   0.549639 0.668478 0.236816 -0.136619
C152  C     C_R   0.585546 0.646207 0.184071 -0.095158
C153  C     C_R   0.535183 0.652198 0.069219 -0.128546
C154  C     C_R   0.450399 0.681938 0.007385 -0.190091
H139  H     H_    0.435051 0.708559 0.217968 0.101839
H140  H     H_    0.587033 0.662207 0.325396 0.105081
H141  H     H_    0.651387 0.623381 0.231774 0.095688
H142  H     H_    0.561578 0.633303 0.027857 0.106124
H143  H     H_    0.411560 0.684105 0.917929 0.104460
C155  C     C_R   0.411554 0.269548 0.079434 0.181691
C156  C     C_R   0.457682 0.273254 0.195273 -0.161252
C157  C     C_R   0.549417 0.294652 0.267118 -0.136260
C158  C     C_R   0.595259 0.314943 0.224542 -0.094385
C159  C     C_R   0.549694 0.313370 0.110085 -0.130116
C160  C     C_R   0.459891 0.289599 0.038323 -0.158954
H144  H     H_    0.422765 0.262615 0.231375 0.106006
H145  H     H_    0.583547 0.297411 0.355561 0.103334
H146  H     H_    0.665123 0.333058 0.279886 0.097680
H147  H     H_    0.583342 0.331805 0.076819 0.100747
H148  H     H_    0.426055 0.289853 0.949731 0.092153

loop_
_geom_bond_atom_site_label_1
_geom_bond_atom_site_label_2
_ccdc_geom_bond_type
N25   N30   A    
C116  H111  S    
C55   C59   S    
C15   C109  A    
C77   C101  A    
C42   C58   S    
N27   N32   A    
C67   H57   S    
C128  H121  S    
N18   Ni2   S    
C126  C127  A    
N15   Ni4   S    
C8    H102  S    
C159  H147  S    
C86   C88   S    
C55   H33   S    
C44   H18   S    
C137  C142  A    
C29   C33   S    
C62   C70   S    
C1    N1    A    
C121  C122  A    
C17   C61   S    
C36   H36   S    
N19   N20   A    
C19   C63   S    
C119  C120  A    
C151  H140  S    
C79   C102  A    
C36   C97   A    
C51   C57   S    
C42   H16   S    
N30   Ni1   S    
C78   C101  A    
N22   Ni6   S    
N6    Ni6   S    
C73   C81   S    
C44   C46   S    
N2    Ni2   S    
C11   C20   A    
C45   H23   S    
C152  C153  A    
C50   H52   S    
C28   C32   S    
C157  C158  A    
C56   H42   S    
C37   H37   S    
C159  C160  A    
C94   N14   A    
C54   H40   S    
C21   C29   S    
C47   H19   S    
C143  C144  A    
C23   C31   S    
C73   H63   S    
C117  H112  S    
C24   C32   S    
C74   H64   S    
N9    N10   A    
N13   N14   A    
C46   H22   S    
N28   Ni7   S    
C91   H83   S    
C110  N22   A    
C90   C92   S    
C141  H132  S    
C138  C139  A    
N25   Ni6   S    
C79   N11   A    
C52   C58   S    
C145  H135  S    
C14   C107  A    
C46   C62   S    
C7    C19   A    
C96   C104  A    
N19   Ni3   S    
C135  C136  A    
C53   C71   S    
N4    Ni4   S    
C111  N23   A    
C71   H49   S    
C89   C101  S    
C125  C130  A    
C35   N5    A    
C77   N9    A    
C6    N26   A    
C13   C106  A    
C96   H90   S    
C45   H21   S    
C76   H66   S    
C120  H114  S    
C48   H26   S    
C84   H70   S    
C122  H116  S    
C14   C88   S    
C113  C118  A    
C4    N4    A    
N31   Ni4   S    
N16   Ni3   S    
C75   H65   S    
C107  H93   S    
C48   C64   S    
C140  H131  S    
C65   H27   S    
C61   C65   S    
C112  N24   A    
C66   H28   S    
C105  N17   A    
C23   C40   S    
C16   C111  A    
C124  H118  S    
C72   H44   S    
C27   C29   S    
C41   H15   S    
N24   Ni8   S    
C43   H13   S    
C9    H103  S    
C52   C155  S    
C82   C89   S    
C64   C68   S    
C24   C26   S    
C118  H113  S    
C113  C114  A    
C155  C160  A    
C82   H72   S    
C83   H69   S    
C139  H130  S    
C90   C102  S    
C144  H134  S    
C116  C117  A    
N12   Ni7   S    
C69   H45   S    
C68   H30   S    
C74   C87   S    
C89   C91   S    
C136  H128  S    
C43   C59   S    
N9    Ni6   S    
C156  H144  S    
C34   H10   S    
N17   N18   A    
C59   C100  S    
C84   C90   S    
C80   N12   A    
C92   H86   S    
N1    Ni1   S    
C86   H78   S    
C62   C66   S    
C121  H115  S    
C43   H17   S    
C21   H1    S    
C114  H109  S    
C18   C62   S    
C51   C67   S    
C30   H6    S    
N2    N5    A    
C80   C102  A    
C10   N30   A    
N10   Ni5   S    
C134  H126  S    
C13   C87   S    
C41   C47   S    
C31   C34   S    
C42   C48   S    
C43   C45   S    
C55   C69   S    
N13   Ni2   S    
N32   Ni3   S    
C24   H4    S    
C152  H141  S    
C51   H53   S    
C157  H145  S    
C55   H41   S    
C21   C25   S    
C3    N3    A    
C22   C30   S    
C153  H142  S    
C150  C151  A    
C154  H143  S    
N8    Ni8   S    
C114  C115  A    
C95   H89   S    
C2    C119  S    
C138  H129  S    
C79   H81   S    
C50   C60   S    
C76   H62   S    
C131  C136  A    
N26   Ni5   S    
C10   H104  S    
C51   C149  S    
C85   H76   S    
C22   C39   S    
C69   H47   S    
C23   H3    S    
C70   H48   S    
C135  H127  S    
C49   H51   S    
C3    C99   A    
C9    C18   A    
C22   H2    S    
C123  C124  A    
C125  C126  A    
C53   H39   S    
C72   H50   S    
C129  H122  S    
C37   C100  A    
N26   N29   A    
C85   H75   S    
C54   H32   S    
C84   H74   S    
C122  C123  A    
C76   C84   S    
N27   Ni8   S    
C115  C116  A    
C140  C141  A    
N17   Ni1   S    
C93   H87   S    
C49   C137  S    
C47   C63   S    
C131  C132  A    
C105  H91   S    
C5    C17   A    
N23   N24   A    
C2    N2    A    
C134  C135  A    
C23   C26   S    
C12   H106  S    
C109  H95   S    
C73   C87   S    
C68   H58   S    
N15   N16   A    
C35   C98   A    
C11   H105  S    
C81   C89   S    
C14   C108  A    
N29   Ni2   S    
C15   C110  A    
C93   C103  A    
C74   C82   S    
C142  H133  S    
C115  H110  S    
C5    H99   S    
C139  C140  A    
C77   H79   S    
C78   H80   S    
C81   H67   S    
C13   C105  A    
C132  C133  A    
C53   C57   S    
C93   N13   A    
C141  C142  A    
C107  N19   A    
N1    N6    A    
C56   C60   S    
C70   H46   S    
C112  H98   S    
C153  C154  A    
C127  C128  A    
C156  C157  A    
C109  N21   A    
C71   H43   S    
C8    C20   A    
C130  H123  S    
C31   H7    S    
N21   Ni5   S    
C108  H94   S    
C143  C148  A    
C25   H107  S    
N4    N7    A    
C16   C112  A    
C146  H136  S    
C36   N6    A    
C28   C31   S    
C5    N25   A    
C38   C99   A    
C49   C59   S    
C158  H146  S    
C39   C103  S    
C132  H124  S    
C78   N10   A    
N11   Ni8   S    
C65   H55   S    
C12   N32   A    
C66   H56   S    
C41   C57   S    
C149  C150  A    
C91   H84   S    
C75   C83   S    
C149  C154  A    
C44   C60   S    
C57   C98   S    
C12   C19   A    
C45   C61   S    
C94   H88   S    
C56   H34   S    
C106  H92   S    
C146  C147  A    
C37   N7    A    
C8    N28   A    
C137  C138  A    
C106  N18   A    
C48   H20   S    
C110  H96   S    
C32   C34   S    
C16   C28   S    
C119  C124  A    
C7    N27   A    
C75   H61   S    
C151  C152  A    
C60   C99   S    
C85   C91   S    
C42   H12   S    
C158  C159  A    
C44   H14   S    
C33   C39   S    
C49   C65   S    
C34   C40   S    
C150  H139  S    
C4    C131  S    
N21   N22   A    
C128  C129  A    
C6    H100  S    
C123  H117  S    
C10   C17   A    
N20   Ni4   S    
C52   H54   S    
C15   C27   S    
C108  N20   A    
C73   H59   S    
C117  C118  A    
C76   C88   S    
C74   H60   S    
C52   C68   S    
N28   N31   A    
N7    Ni7   S    
C50   C143  S    
C3    C125  S    
C160  H148  S    
C27   C30   S    
C33   H9    S    
C58   C97   S    
C95   N15   A    
C32   H8    S    
C85   C87   S    
C133  H125  S    
C6    C18   A    
C63   C67   S    
C26   H108  S    
C1    C97   A    
N3    N8    A    
N23   Ni7   S    
C147  H137  S    
C29   H5    S    
C127  H120  S    
C22   C25   S    
C11   N31   A    
C53   H31   S    
C20   C64   S    
C9    N29   A    
C111  H97   S    
C145  C146  A    
C40   C104  S    
C21   C39   S    
C47   H25   S    
C120  C121  A    
C96   N16   A    
C35   H35   S    
C50   C66   S    
N14   Ni1   S    
C7    H101  S    
C1    C113  S    
C56   C70   S    
C4    C100  A    
C129  C130  A    
C81   H71   S    
C92   H85   S    
C95   C104  A    
C38   N8    A    
C54   C58   S    
C61   C69   S    
C83   C90   S    
C133  C134  A    
C86   H77   S    
C30   C33   S    
C63   C71   S    
C126  H119  S    
C25   C27   S    
C80   H82   S    
C94   C103  A    
C26   C28   S    
C147  C148  A    
C41   H11   S    
N5    Ni5   S    
C86   C92   S    
C24   C40   S    
C148  H138  S    
C64   C72   S    
C144  C145  A    
C46   H24   S    
N3    Ni3   S    
C75   C88   S    
C54   C72   S    
C2    C98   A    
C155  C156  A    
C82   H68   S    
N11   N12   A    
C83   H73   S    
C38   H38   S    
C67   H29   S    
