data_str_m9_o13_o20_f0_sra.sym.71
_audit_creation_date              2012-12-11T14:47:38-0500
_audit_creation_method            fapswitch 2.2
_symmetry_space_group_name_H-M    P1
_symmetry_Int_Tables_number       1
_space_group_crystal_system       triclinic
_cell_length_a                    19.292817
_cell_length_b                    6.956521
_cell_length_c                    19.473676
_cell_angle_alpha                 89.999252
_cell_angle_beta                  96.032204
_cell_angle_gamma                 89.982091
_cell_volume                      2599.10776753

loop_
_atom_site_label
_atom_site_type_symbol
_atom_type_description
_atom_site_fract_x
_atom_site_fract_y
_atom_site_fract_z
_atom_type_partial_charge
O1    O     O_R   0.673510 0.377480 0.186100 -0.533551
O2    O     O_R   0.326490 0.622520 0.813900 -0.530960
O3    O     O_R   0.826490 0.877480 0.313900 -0.533205
O4    O     O_R   0.173510 0.122520 0.686100 -0.530468
O5    O     O_R   0.807790 0.705750 0.184090 -0.524922
O6    O     O_R   0.192210 0.294250 0.815910 -0.521581
O7    O     O_R   0.692210 0.205750 0.315910 -0.525438
O8    O     O_R   0.307790 0.794250 0.684090 -0.521965
C1    C     C_1   0.477357 0.992642 0.520395 -0.027737
C2    C     C_1   0.521674 0.003559 0.478550 -0.026632
C3    C     C_1   0.022584 0.492656 0.979546 -0.028556
C4    C     C_1   0.978253 0.503464 0.021380 -0.025888
C5    C     C_R   0.830788 0.538075 0.166163 0.720656
C6    C     C_R   0.169359 0.461776 0.833984 0.722070
C7    C     C_R   0.669197 0.038115 0.333823 0.720478
C8    C     C_R   0.330648 0.961730 0.666021 0.721885
O9    O     O_R   0.672870 0.707110 0.178120 -0.534943
O10   O     O_R   0.327130 0.292890 0.821880 -0.537334
O11   O     O_R   0.827130 0.207110 0.321880 -0.535296
O12   O     O_R   0.172870 0.792890 0.678120 -0.537606
O13   O     O_R   0.690610 0.878650 0.307880 -0.518907
O14   O     O_R   0.309390 0.121350 0.692120 -0.522400
O15   O     O_R   0.809390 0.378650 0.192120 -0.519299
O16   O     O_R   0.190610 0.621350 0.807880 -0.523156
C9    C     C_R   0.647537 0.538256 0.161179 0.720272
C10   C     C_R   0.352421 0.461900 0.838924 0.718644
C11   C     C_R   0.852476 0.038197 0.338809 0.720308
C12   C     C_R   0.147552 0.961943 0.661104 0.718400
C13   C     C_1   0.381940 0.971353 0.613352 -0.205727
C14   C     C_1   0.617511 0.027416 0.386088 -0.207409
C15   C     C_1   0.118057 0.471495 0.886642 -0.205768
C16   C     C_1   0.882436 0.527305 0.113864 -0.206956
O17   O     O_3   0.755980 0.544260 0.292580 -0.359570
O18   O     O_3   0.244020 0.455740 0.707420 -0.359307
O19   O     O_3   0.744020 0.044260 0.207420 -0.359499
O20   O     O_3   0.255980 0.955740 0.792580 -0.359553
V1    V     V_3+5 0.748890 0.818640 0.242100 1.426211
V2    V     V_3+5 0.251110 0.181360 0.757900 1.426249
V3    V     V_3+5 0.751110 0.318640 0.257900 1.424319
V4    V     V_3+5 0.248890 0.681360 0.742100 1.424624
C17   C     C_R   0.084454 0.973414 0.610282 -0.109354
C18   C     C_R   0.915342 0.027121 0.389820 -0.108997
C19   C     C_R   0.415431 0.473139 0.889847 -0.109111
C20   C     C_R   0.584641 0.527573 0.110203 -0.108632
C21   C     C_1   0.425156 0.980445 0.570333 -0.021832
C22   C     C_1   0.574010 0.016650 0.428778 -0.019632
C23   C     C_1   0.074812 0.480574 0.929632 -0.022838
C24   C     C_1   0.925912 0.516527 0.071148 -0.019473
C25   C     C_R   0.041695 0.992624 0.417460 -0.031254
C26   C     C_R   0.958347 0.017416 0.582632 -0.031876
C27   C     C_R   0.458005 0.501730 0.082572 -0.031276
C28   C     C_R   0.541816 0.509621 0.917481 -0.031591
C29   C     C_R   0.982701 0.016149 0.368240 -0.053168
C30   C     C_R   0.017756 0.003040 0.631997 -0.052847
C31   C     C_R   0.517163 0.523238 0.131742 -0.053613
C32   C     C_R   0.482419 0.496096 0.868126 -0.052937
C33   C     C_R   0.907666 0.024496 0.460544 -0.242343
C34   C     C_R   0.091697 0.966553 0.539446 -0.240652
C35   C     C_R   0.592372 0.520309 0.039533 -0.241718
C36   C     C_R   0.407960 0.471876 0.960681 -0.241279
C37   C     C_R   0.966071 0.010591 0.510912 0.085022
C38   C     C_R   0.033622 0.989115 0.489149 0.084264
C39   C     C_R   0.533919 0.507888 0.989187 0.084787
C40   C     C_R   0.466141 0.493225 0.010944 0.084476
H1    H     H_    0.143599 0.947503 0.524065 0.124374
H2    H     H_    0.855371 0.034116 0.475714 0.124806
H3    H     H_    0.355866 0.457581 0.976043 0.124136
H4    H     H_    0.644752 0.525339 0.024361 0.124535
C41   C     C_R   0.009613 0.025356 0.706409 0.095174
C42   C     C_R   0.993387 0.206316 0.732429 -0.109989
C43   C     C_R   0.979329 0.225327 0.801008 -0.120971
C44   C     C_R   0.982133 0.064479 0.844191 -0.083668
C45   C     C_R   0.998751 0.884290 0.818678 -0.124062
C46   C     C_R   0.012699 0.864354 0.750017 -0.135994
H5    H     H_    0.990300 0.331556 0.699195 0.094875
H6    H     H_    0.965713 0.364532 0.820466 0.109289
H7    H     H_    0.970985 0.079237 0.897264 0.113563
H8    H     H_    0.999682 0.759692 0.851825 0.118275
H9    H     H_    0.024196 0.723433 0.730426 0.094021
C47   C     C_R   0.992525 0.041433 0.294439 0.094365
C48   C     C_R   0.006392 0.225306 0.269521 -0.124906
C49   C     C_R   0.021273 0.249049 0.201363 -0.120123
C50   C     C_R   0.022148 0.089669 0.157743 -0.083799
C51   C     C_R   0.008308 0.906274 0.182354 -0.123943
C52   C     C_R   0.993225 0.881810 0.250495 -0.116997
H10   H     H_    0.006915 0.349281 0.303256 0.093892
H11   H     H_    0.032813 0.390732 0.182635 0.107932
H12   H     H_    0.034054 0.108065 0.105050 0.113433
H13   H     H_    0.010259 0.782933 0.148889 0.115517
H14   H     H_    0.983541 0.738852 0.269363 0.089865
C53   C     C_R   0.490961 0.512658 0.793668 0.094952
C54   C     C_R   0.505404 0.692423 0.765670 -0.111008
C55   C     C_R   0.520228 0.706509 0.697167 -0.119880
C56   C     C_R   0.520222 0.541719 0.656136 -0.084132
C57   C     C_R   0.505610 0.362546 0.683733 -0.122824
C58   C     C_R   0.490646 0.347667 0.752238 -0.134000
H15   H     H_    0.506613 0.820595 0.797355 0.093370
H16   H     H_    0.532524 0.844882 0.676184 0.109214
H17   H     H_    0.532136 0.552629 0.603186 0.112623
H18   H     H_    0.507133 0.234870 0.652400 0.116672
H19   H     H_    0.480684 0.207703 0.773486 0.093016
C59   C     C_R   0.507545 0.552249 0.205433 0.094272
C60   C     C_R   0.491247 0.736100 0.228806 -0.121587
C61   C     C_R   0.477012 0.762703 0.297033 -0.121783
C62   C     C_R   0.479161 0.606212 0.342239 -0.083459
C63   C     C_R   0.495488 0.422925 0.319196 -0.124839
C64   C     C_R   0.509932 0.395609 0.250994 -0.120498
H20   H     H_    0.488497 0.857769 0.193883 0.094421
H21   H     H_    0.463778 0.904332 0.314650 0.107857
H22   H     H_    0.467762 0.626724 0.394991 0.114434
H23   H     H_    0.496032 0.301818 0.353976 0.116909
H24   H     H_    0.521563 0.252602 0.233367 0.091186
C65   C     C_R   0.111640 0.975350 0.392813 0.104782
C66   C     C_R   0.134187 0.797734 0.369051 -0.125450
C67   C     C_R   0.198764 0.783332 0.342849 -0.118275
C68   C     C_R   0.241033 0.945962 0.340244 -0.092703
C69   C     C_R   0.218830 0.123165 0.363939 -0.121178
C70   C     C_R   0.154284 0.138131 0.390188 -0.132019
H25   H     H_    0.101501 0.671400 0.370239 0.097210
H26   H     H_    0.215875 0.646375 0.324273 0.107278
H27   H     H_    0.290905 0.934763 0.319725 0.107272
H28   H     H_    0.251476 0.249082 0.361660 0.109246
H29   H     H_    0.137186 0.276346 0.407749 0.104004
C71   C     C_R   0.888502 0.041817 0.607158 0.102860
C72   C     C_R   0.856046 0.886093 0.636690 -0.113712
C73   C     C_R   0.791817 0.911317 0.662760 -0.121666
C74   C     C_R   0.759752 0.091872 0.659568 -0.093811
C75   C     C_R   0.791808 0.247427 0.630183 -0.118705
C76   C     C_R   0.856005 0.222755 0.603991 -0.147246
H30   H     H_    0.880764 0.746067 0.639963 0.098841
H31   H     H_    0.767059 0.791141 0.685715 0.108286
H32   H     H_    0.710159 0.111347 0.680001 0.106053
H33   H     H_    0.767088 0.387326 0.628017 0.109649
H34   H     H_    0.880801 0.344566 0.582020 0.107452
C77   C     C_R   0.387896 0.490858 0.107217 0.104559
C78   C     C_R   0.364885 0.318144 0.134467 -0.121519
C79   C     C_R   0.300153 0.310166 0.160623 -0.120348
C80   C     C_R   0.258204 0.474377 0.159748 -0.093028
C81   C     C_R   0.280875 0.646723 0.132605 -0.119287
C82   C     C_R   0.345566 0.655240 0.106362 -0.137117
H35   H     H_    0.397311 0.190687 0.135964 0.097062
H36   H     H_    0.282677 0.176988 0.181855 0.108332
H37   H     H_    0.208216 0.468193 0.180242 0.106224
H38   H     H_    0.248482 0.773915 0.132202 0.110520
H39   H     H_    0.363023 0.789831 0.086110 0.105633
C83   C     C_R   0.611824 0.528664 0.892931 0.103481
C84   C     C_R   0.644028 0.368495 0.865952 -0.115614
C85   C     C_R   0.708458 0.388468 0.839834 -0.119916
C86   C     C_R   0.740968 0.568175 0.840447 -0.092966
C87   C     C_R   0.709161 0.728130 0.867320 -0.119943
C88   C     C_R   0.644762 0.708715 0.893549 -0.143528
H40   H     H_    0.618953 0.229050 0.864677 0.098315
H41   H     H_    0.733034 0.264864 0.818839 0.107747
H42   H     H_    0.790711 0.583555 0.819966 0.105446
H43   H     H_    0.734236 0.867327 0.867502 0.108730
H44   H     H_    0.620158 0.833815 0.913565 0.105921

loop_
_geom_bond_atom_site_label_1
_geom_bond_atom_site_label_2
_ccdc_geom_bond_type
C34   C38   A    
C25   C65   S    
C79   H36   S    
C1    C21   S    
C55   C56   A    
O5    V1    S    
C69   C70   A    
C45   C46   A    
C5    C16   S    
C3    C23   S    
C57   C58   A    
O10   C10   A    
C69   H28   S    
C6    C15   S    
C4    C24   S    
C75   C76   A    
C47   C52   A    
C66   C67   A    
C77   C78   A    
C31   C59   S    
O17   V3    S    
O18   V4    S    
C56   H17   S    
O19   V1    S    
C62   H22   S    
C17   C34   A    
C83   C84   A    
C80   H37   S    
C18   C29   A    
C43   H6    S    
O12   V4    S    
C25   C29   A    
C63   C64   A    
C20   C35   A    
C67   C68   A    
O14   V2    S    
C12   C17   S    
C68   C69   A    
C5    O15   A    
C64   H24   S    
C6    O16   A    
C74   H32   S    
C53   C58   A    
C27   C77   S    
C72   H30   S    
C32   C53   S    
C84   C85   A    
C36   H3    S    
C2    C22   S    
C8    O14   A    
C45   H8    S    
O6    V2    S    
C42   C43   A    
O11   C11   A    
C1    C2    T    
C33   H2    S    
O5    C5    A    
C66   H25   S    
O7    C7    A    
C50   H12   S    
O8    C8    A    
C15   C23   T    
C58   H19   S    
O1    C9    A    
C16   C24   T    
C59   C60   A    
C46   H9    S    
C9    C20   S    
C61   C62   A    
O4    C12   A    
C54   H15   S    
C48   C49   A    
C63   H23   S    
C77   C82   A    
C68   H27   S    
O20   V4    S    
C29   C47   S    
C26   C71   S    
C51   C52   A    
C53   C54   A    
C57   H18   S    
C44   C45   A    
O12   C12   A    
C8    C13   S    
C18   C33   A    
C65   C70   A    
C13   C21   T    
C83   C88   A    
O19   V3    S    
C86   H42   S    
C44   H7    S    
C35   H4    S    
O6    C6    A    
C81   H38   S    
C34   H1    S    
C50   C51   A    
C52   H14   S    
C41   C46   A    
O2    C10   A    
O9    V1    S    
C88   H44   S    
C85   C86   A    
C60   H20   S    
O11   V3    S    
C19   C36   A    
C10   C19   S    
O4    V2    S    
C49   C50   A    
C56   C57   A    
C87   H43   S    
C72   C73   A    
C51   H13   S    
C74   C75   A    
C59   C64   A    
C42   H5    S    
C7    C14   S    
O17   V1    S    
C65   C66   A    
C62   C63   A    
C28   C83   S    
C25   C38   A    
C76   H34   S    
O18   V2    S    
C14   C22   T    
C27   C40   A    
C48   H10   S    
C47   C48   A    
C28   C39   A    
C82   H39   S    
C81   C82   A    
C33   C37   A    
C79   C80   A    
C35   C39   A    
C36   C40   A    
O9    C9    A    
O3    C11   A    
C84   H40   S    
O10   V2    S    
C43   C44   A    
C26   C30   A    
C86   C87   A    
C11   C18   S    
C61   H21   S    
C30   C41   S    
C28   C32   A    
C73   H31   S    
C73   C74   A    
O15   V3    S    
O20   V2    S    
C54   C55   A    
O16   V4    S    
C78   H35   S    
C71   C76   A    
C20   C31   A    
C27   C31   A    
C70   H29   S    
C37   C38   A    
C41   C42   A    
C17   C30   A    
C80   C81   A    
O1    V3    S    
C39   C40   A    
O2    V4    S    
C19   C32   A    
C7    O13   A    
O13   V1    S    
O3    V1    S    
C67   H26   S    
C85   H41   S    
C60   C61   A    
C26   C37   A    
O7    V3    S    
C87   C88   A    
C78   C79   A    
O8    V4    S    
C75   H33   S    
C55   H16   S    
C49   H11   S    
C3    C4    T    
C71   C72   A    
