data_str_m9_o18_o25_f0_sra.sym.49
_audit_creation_date              2012-12-11T15:32:36-0500
_audit_creation_method            fapswitch 2.2
_symmetry_space_group_name_H-M    P1
_symmetry_Int_Tables_number       1
_space_group_crystal_system       triclinic
_cell_length_a                    6.95952
_cell_length_b                    20.413788
_cell_length_c                    24.421879
_cell_angle_alpha                 89.676419
_cell_angle_beta                  90.622052
_cell_angle_gamma                 89.65628
_cell_volume                      3469.29686909

loop_
_atom_site_label
_atom_site_type_symbol
_atom_type_description
_atom_site_fract_x
_atom_site_fract_y
_atom_site_fract_z
_atom_type_partial_charge
O1    O     O_R   0.507320 0.423560 0.460500 -0.535316
O2    O     O_R   0.170760 0.556250 0.437010 -0.529624
O3    O     O_R   0.004030 0.576440 0.539500 -0.537954
C1    C     C_R   0.338753 0.576379 0.421123 0.711475
O4    O     O_R   0.177370 0.422820 0.454110 -0.538198
O5    O     O_R   0.010680 0.442050 0.556720 -0.532888
C2    C     C_R   0.345639 0.398688 0.443599 0.699346
O6    O     O_R   0.500680 0.557950 0.443280 -0.533910
O7    O     O_3   0.340380 0.506470 0.533650 -0.368393
V1    V     V_3+5 0.064130 0.498800 0.493760 1.464033
O8    O     O_R   0.681160 0.443750 0.562990 -0.533885
C3    C     C_R   0.850797 0.423753 0.578857 0.713632
O9    O     O_R   0.674560 0.577180 0.545890 -0.539823
C4    C     C_R   0.843180 0.601008 0.556671 0.689891
V2    V     V_3+5 0.564560 0.501200 0.506240 1.456967
O10   O     O_3   0.838180 0.493530 0.466350 -0.364512
C5    C     C_R   0.974178 0.836813 0.912608 -0.119236
C6    C     C_R   0.850220 0.661501 0.589266 -0.044169
C7    C     C_R   0.016226 0.719264 0.908910 -0.145866
C8    C     C_R   0.014149 0.777084 0.938918 0.356475
C9    C     C_R   0.936406 0.837875 0.855955 -0.248923
C10   C     C_R   0.939703 0.779444 0.824209 0.037414
C11   C     C_R   0.981135 0.719545 0.851982 -0.013397
C12   C     C_R   0.905631 0.778616 0.766049 0.063527
C13   C     C_R   0.917059 0.718128 0.736539 0.004371
C14   C     C_R   0.961899 0.660442 0.766116 -0.284538
C15   C     C_R   0.987679 0.660320 0.823040 0.412637
C16   C     C_R   0.861650 0.836411 0.736303 -0.149589
C17   C     C_R   0.830912 0.835581 0.680091 -0.184043
C18   C     C_R   0.840725 0.777287 0.650859 0.127222
C19   C     C_R   0.883591 0.717368 0.678262 0.112439
C20   C     C_R   0.805310 0.778726 0.594158 -0.155405
C21   C     C_R   0.809082 0.721321 0.563755 -0.168883
C22   C     C_R   0.887767 0.659338 0.645979 -0.211516
H1    H     H_    0.915284 0.611586 0.663427 0.091295
H2    H     H_    0.778517 0.723486 0.520177 0.109521
H3    H     H_    0.797533 0.881358 0.659238 0.146976
H4    H     H_    0.047164 0.673896 0.930577 0.192427
H5    H     H_    0.908831 0.885360 0.838045 0.117348
H6    H     H_    0.981031 0.614174 0.746069 0.126228
H7    H     H_    0.848920 0.883695 0.755184 0.140150
H8    H     H_    0.772352 0.824500 0.573289 0.121936
C23   C     C_3   0.845034 0.308652 0.769428 -0.277889
C24   C     C_3   0.034901 0.274337 0.787033 0.366055
H9    H     H_    0.788706 0.356122 0.784559 0.137225
C25   C     C_1   0.961616 0.122281 0.875739 -0.161615
C26   C     C_1   0.862942 0.378464 0.624727 -0.163199
C27   C     C_3   0.740517 0.241578 0.773707 -0.163135
C28   C     C_3   0.931380 0.208301 0.791800 -0.041764
C29   C     C_3   0.788503 0.226903 0.712819 -0.114431
C30   C     C_3   0.894141 0.293163 0.709057 -0.022587
C31   C     C_3   0.978785 0.193798 0.731675 0.348480
C32   C     C_3   0.083999 0.259716 0.727079 0.305412
C33   C     C_1   0.949392 0.161028 0.837915 0.098733
C34   C     C_1   0.875525 0.340167 0.662836 0.099074
H10   H     H_    0.688318 0.206793 0.681606 0.212557
H11   H     H_    0.598771 0.233678 0.793023 0.202171
C35   C     C_3   0.490562 0.718505 0.206750 -0.447740
C36   C     C_3   0.295389 0.703154 0.234650 0.423916
H12   H     H_    0.556220 0.692974 0.171499 0.163996
C37   C     C_1   0.348449 0.622089 0.375356 -0.158439
C38   C     C_1   0.476860 0.878435 0.124937 -0.187170
C39   C     C_3   0.583522 0.723858 0.264685 0.359380
C40   C     C_3   0.388773 0.708183 0.291821 -0.070318
C41   C     C_3   0.532740 0.797367 0.266243 0.407475
C42   C     C_3   0.439344 0.792967 0.208992 -0.094700
C43   C     C_3   0.338405 0.782354 0.294065 -0.373188
C44   C     C_3   0.246123 0.776570 0.236343 0.445823
C45   C     C_1   0.363789 0.660728 0.337556 0.138129
C46   C     C_1   0.463474 0.840205 0.163082 0.058847
H13   H     H_    0.274521 0.808174 0.329400 0.150489
C47   C     C_R   0.472980 0.161838 0.088887 -0.072072
C48   C     C_R   0.347841 0.337635 0.411519 -0.056650
C49   C     C_R   0.540956 0.277307 0.095531 -0.166540
C50   C     C_R   0.529426 0.220492 0.064588 -0.154101
C51   C     C_R   0.425364 0.160551 0.144671 -0.217656
C52   C     C_R   0.426112 0.218647 0.176834 0.092143
C53   C     C_R   0.493546 0.276677 0.151262 0.133636
C54   C     C_R   0.370760 0.221111 0.233618 -0.060911
C55   C     C_R   0.408734 0.279511 0.264783 0.003399
C56   C     C_R   0.482460 0.334657 0.237165 -0.158574
C57   C     C_R   0.518652 0.333606 0.181513 -0.201978
C58   C     C_R   0.272449 0.168971 0.260243 0.390154
C59   C     C_R   0.242306 0.170547 0.316505 -0.264288
C60   C     C_R   0.288368 0.225328 0.347557 0.061250
C61   C     C_R   0.367840 0.281521 0.322342 0.084054
C62   C     C_R   0.245529 0.225124 0.403577 -0.127322
C63   C     C_R   0.273044 0.280920 0.435019 -0.149267
C64   C     C_R   0.398245 0.337747 0.355867 -0.193147
H14   H     H_    0.572204 0.377714 0.162153 0.124206
H15   H     H_    0.452937 0.383139 0.339891 0.097521
H16   H     H_    0.231013 0.280428 0.477616 0.126926
H17   H     H_    0.173151 0.128949 0.335663 0.149281
H18   H     H_    0.590295 0.321841 0.075964 0.117286
H19   H     H_    0.569197 0.221914 0.021824 0.114783
H20   H     H_    0.401524 0.112852 0.162096 0.170616
H21   H     H_    0.511758 0.380355 0.257226 0.126809
H22   H     H_    0.184134 0.182198 0.422806 0.126134
O11   O     O_R   0.323550 0.942140 0.056770 -0.526983
O12   O     O_R   0.647080 0.077200 0.045890 -0.542624
O13   O     O_R   0.813610 0.057920 0.943260 -0.537294
C65   C     C_R   0.478625 0.101177 0.056540 0.685488
O14   O     O_R   0.653470 0.943760 0.063000 -0.541459
O15   O     O_R   0.820050 0.923540 0.960490 -0.532740
C66   C     C_R   0.485595 0.923759 0.078945 0.749436
O16   O     O_R   0.317110 0.076520 0.039540 -0.539254
O17   O     O_3   0.483830 0.993580 0.966380 -0.364106
V3    V     V_3+5 0.760140 0.001190 0.006240 1.440093
O18   O     O_R   0.149510 0.922740 0.954070 -0.526326
C67   C     C_R   0.980965 0.898572 0.943747 0.783574
O19   O     O_R   0.143120 0.056170 0.936970 -0.535459
C68   C     C_R   0.973551 0.076424 0.921256 0.710647
V4    V     V_3+5 0.259690 0.998700 0.993700 1.478394
O20   O     O_3   0.986130 0.006420 0.033620 -0.375963
O21   O     O_3   0.036354 0.602779 0.850591 -0.556171
C69   C     C_3   0.888114 0.556143 0.844808 0.085967
H23   H     H_    0.904571 0.529214 0.805678 0.115416
H24   H     H_    0.742026 0.578965 0.846088 0.127044
C70   C     C_3   0.903226 0.506896 0.891653 -0.709034
H25   H     H_    0.878235 0.531908 0.931237 0.226334
H26   H     H_    0.793905 0.467994 0.886140 0.175809
H27   H     H_    0.048390 0.484034 0.892631 0.227741
O22   O     O_3   0.167397 0.295152 0.827405 -0.540334
C71   C     C_3   0.214299 0.361428 0.818366 0.129612
H28   H     H_    0.087458 0.393416 0.825716 0.108373
H29   H     H_    0.266477 0.369797 0.776009 0.160520
C72   C     C_3   0.373460 0.380985 0.858074 -0.714951
H30   H     H_    0.502359 0.349675 0.851881 0.225965
H31   H     H_    0.412769 0.432983 0.851029 0.176786
H32   H     H_    0.324106 0.375157 0.900913 0.224203
Cl1   Cl    Cl    0.309103 0.271591 0.694627 -0.657877
Cl2   Cl    Cl    0.066241 0.117583 0.706670 -0.575750
O23   O     O_3   0.158913 0.654420 0.222119 -0.506868
C73   C     C_3   0.193765 0.627557 0.170157 0.124975
H33   H     H_    0.327374 0.597331 0.171442 0.119281
H34   H     H_    0.206369 0.666356 0.138216 0.119722
C74   C     C_3   0.026450 0.583776 0.154267 -0.639417
H35   H     H_    0.891203 0.612954 0.152530 0.227757
H36   H     H_    0.052188 0.562020 0.113405 0.166307
H37   H     H_    0.011191 0.543699 0.184835 0.224317
O24   O     O_3   0.064596 0.805374 0.225805 -0.519233
C75   C     C_3   0.011050 0.800035 0.170100 0.194159
H38   H     H_    0.880821 0.769054 0.167179 0.169930
H39   H     H_    0.121620 0.777547 0.143375 0.111960
C76   C     C_3   0.962687 0.867939 0.147852 -0.643529
H40   H     H_    0.090042 0.900148 0.150437 0.206616
H41   H     H_    0.916146 0.864281 0.104407 0.216915
H42   H     H_    0.846430 0.890463 0.172260 0.231418
O25   O     O_3   0.663053 0.847905 0.278854 -0.523646
C77   C     C_3   0.695478 0.850224 0.335854 0.157004
H43   H     H_    0.740004 0.801557 0.352598 0.150200
H44   H     H_    0.563865 0.867345 0.357044 0.097380
C78   C     C_3   0.855613 0.898636 0.347736 -0.661150
H45   H     H_    0.813000 0.948306 0.333094 0.219781
H46   H     H_    0.884628 0.900459 0.392500 0.160785
H47   H     H_    0.988792 0.883323 0.326582 0.246153
Cl3   Cl    Cl    0.805135 0.687702 0.285977 -0.605675
O26   O     O_3   0.198197 0.116047 0.232339 -0.562472
C79   C     C_3   0.011429 0.132184 0.213228 0.075307
H48   H     H_    0.012655 0.176702 0.186579 0.130052
H49   H     H_    0.912916 0.140599 0.248190 0.131041
C80   C     C_3   0.933878 0.075520 0.179507 -0.659227
H50   H     H_    0.928485 0.030351 0.205010 0.223508
H51   H     H_    0.786726 0.087343 0.164395 0.173194
H52   H     H_    0.027955 0.066609 0.143824 0.220099
Cl4   Cl    Cl    0.063055 0.773023 0.009835 -0.724242

loop_
_geom_bond_atom_site_label_1
_geom_bond_atom_site_label_2
_ccdc_geom_bond_type
C24   C28   S    
C13   C19   A    
C42   C44   S    
C62   C63   A    
C39   C41   S    
C25   C68   S    
C4    C6    S    
O2    C1    A    
C7    C8    A    
C1    O6    A    
C23   C30   S    
C5    C67   S    
C5    C8    A    
C73   C74   S    
C76   H40   S    
C50   H19   S    
C27   H11   S    
C2    C48   S    
C38   C66   S    
C52   C53   A    
C31   C32   S    
O13   C68   A    
C74   H36   S    
C14   C15   A    
C47   C65   S    
C26   C34   T    
C16   C17   A    
V4    O20   S    
C3    C26   S    
C79   H48   S    
O5    C3    A    
C18   C19   A    
C35   H12   S    
C28   C33   S    
C16   H7    S    
C21   H2    S    
C69   H23   S    
C38   C46   T    
C22   H1    S    
V3    O20   S    
C49   H18   S    
O17   V4    S    
C55   C61   A    
O8    V2    S    
C24   C32   S    
C35   C42   S    
C63   H16   S    
C41   C43   S    
C77   C78   S    
C29   C31   S    
O17   V3    S    
C79   H49   S    
O14   V3    S    
C32   Cl1   S    
C11   C15   A    
C78   H46   S    
C23   C27   S    
C43   H13   S    
O18   V4    S    
C62   H22   S    
O13   V3    S    
C70   H26   S    
C9    C10   A    
C75   C76   S    
O24   C75   S    
C47   C50   A    
C76   H41   S    
C56   C57   A    
C80   H51   S    
C60   C62   A    
O11   C66   A    
C74   H37   S    
O12   V3    S    
C49   C50   A    
O16   V4    S    
C43   C44   S    
C31   Cl2   S    
C40   C43   S    
O22   C71   S    
C59   C60   A    
C52   C54   A    
C51   C52   A    
O14   C66   A    
O18   C67   A    
O4    C2    A    
C73   H34   S    
C35   C36   S    
C60   C61   A    
C1    C37   S    
C36   O23   S    
C29   H10   S    
C54   C55   A    
C30   C32   S    
O26   C79   S    
C7    C11   A    
C23   C24   S    
C72   H31   S    
C48   C63   A    
O5    V1    S    
C17   C18   A    
C7    H4    S    
C36   C44   S    
C80   H52   S    
C6    C22   A    
C53   C57   A    
C58   C59   A    
C9    H5    S    
C70   H25   S    
C28   C31   S    
C25   C33   T    
O12   C65   A    
C29   C30   S    
C36   C40   S    
C79   C80   S    
C77   H44   S    
O19   V4    S    
C40   C45   S    
C12   C13   A    
C78   H47   S    
C23   H9    S    
O3    C4    A    
C71   C72   S    
O1    V2    S    
C27   C28   S    
O6    V2    S    
O9    V2    S    
O23   C73   S    
C10   C12   A    
C64   H15   S    
C39   Cl3   S    
C72   H30   S    
O2    V1    S    
O15   V3    S    
C75   H39   S    
C19   C22   A    
C76   H42   S    
O15   C67   A    
C71   H29   S    
C80   H50   S    
O7    V1    S    
C70   H27   S    
C37   C45   T    
C35   C39   S    
C18   C20   A    
O19   C68   A    
O1    C2    A    
C10   C11   A    
C12   C16   A    
C55   C56   A    
C61   C64   A    
O11   V4    S    
O8    C3    A    
C73   H33   S    
C8    Cl4   S    
C74   H35   S    
C24   O22   S    
C57   H14   S    
C69   C70   S    
C20   C21   A    
C13   C14   A    
C72   H32   S    
C48   C64   A    
O4    V1    S    
O3    V1    S    
V1    O10   S    
O25   C77   S    
C51   H20   S    
C54   C58   A    
C14   H6    S    
O21   C69   S    
C42   C46   S    
C58   O26   S    
C56   H21   S    
C47   C51   A    
V2    O10   S    
C27   C29   S    
C69   H24   S    
C65   O16   A    
C30   C34   S    
C59   H17   S    
C41   O25   S    
C6    C21   A    
C5    C9    A    
C39   C40   S    
C41   C42   S    
C49   C53   A    
C17   H3    S    
C20   H8    S    
C75   H38   S    
C71   H28   S    
C78   H45   S    
O9    C4    A    
C44   O24   S    
O7    V2    S    
C77   H43   S    
C15   O21   S    
