data_str_m2_o14_o14_f0_pcu.sym.137
_audit_creation_date              2012-12-10T17:17:51-0500
_audit_creation_method            fapswitch 2.2
_symmetry_space_group_name_H-M    P1
_symmetry_Int_Tables_number       1
_space_group_crystal_system       triclinic
_cell_length_a                    15.052139
_cell_length_b                    15.972638
_cell_length_c                    9.639018
_cell_angle_alpha                 89.049656
_cell_angle_beta                  90.285303
_cell_angle_gamma                 89.763832
_cell_volume                      2317.06753856

loop_
_atom_site_label
_atom_site_type_symbol
_atom_type_description
_atom_site_fract_x
_atom_site_fract_y
_atom_site_fract_z
_atom_type_partial_charge
C1    C     C_R   0.381890 0.881086 0.500980 0.906650
C2    C     C_R   0.382261 0.119606 0.498604 0.929280
C3    C     C_R   0.881890 0.381086 0.500980 0.906651
C4    C     C_R   0.882261 0.619606 0.498604 0.929280
C5    C     C_R   0.250137 0.188502 0.388564 0.329365
C6    C     C_R   0.252869 0.810213 0.395885 0.353963
C7    C     C_R   0.750137 0.688501 0.388564 0.329365
C8    C     C_R   0.752869 0.310213 0.395884 0.353962
C9    C     C_R   0.685352 0.752243 0.383990 0.072110
C10   C     C_R   0.704223 0.236983 0.381496 0.117873
C11   C     C_R   0.185352 0.252243 0.383990 0.072113
C12   C     C_R   0.204223 0.736983 0.381496 0.117873
C13   C     C_R   0.673761 0.802468 0.504307 -0.111753
C14   C     C_R   0.681047 0.191877 0.504271 -0.111893
C15   C     C_R   0.173761 0.302468 0.504307 -0.111753
C16   C     C_R   0.181047 0.691877 0.504271 -0.111894
C17   C     C_R   0.662690 0.991251 0.143835 -0.167132
C18   C     C_R   0.162690 0.491252 0.143835 -0.167132
C19   C     C_R   0.741776 0.981223 0.072384 -0.244996
C20   C     C_R   0.241776 0.481224 0.072384 -0.244997
C21   C     C_R   0.742049 0.984963 0.929530 -0.190936
C22   C     C_R   0.242049 0.484964 0.929530 -0.190935
C23   C     C_R   0.662620 0.993813 0.857177 -0.159930
C24   C     C_R   0.162620 0.493813 0.857177 -0.159931
C25   C     C_R   0.579944 0.996836 0.925659 0.163993
C26   C     C_R   0.079944 0.496837 0.925659 0.163992
C27   C     C_R   0.579902 0.996308 0.074782 0.176773
C28   C     C_R   0.079902 0.496309 0.074782 0.176773
C29   C     C_R   0.424160 0.002783 0.075014 -0.013266
C30   C     C_R   0.924160 0.502782 0.075014 -0.013268
C31   C     C_R   0.617881 0.120259 0.500278 0.839170
C32   C     C_R   0.614352 0.877104 0.501208 0.827643
C33   C     C_R   0.117881 0.620259 0.500278 0.839169
C34   C     C_R   0.114353 0.377104 0.501208 0.827643
C35   C     C_R   0.422680 0.001444 0.927735 0.216237
C36   C     C_R   0.922680 0.501443 0.927735 0.216237
C37   C     C_R   0.373415 0.251547 0.710967 0.412894
C38   C     C_R   0.373313 0.743504 0.720286 0.419019
C39   C     C_R   0.873415 0.751547 0.710967 0.412894
C40   C     C_R   0.873314 0.243502 0.720284 0.419017
C41   C     C_R   0.349340 0.274652 0.844415 -0.165611
C42   C     C_R   0.349940 0.708329 0.848277 -0.173594
C43   C     C_R   0.849340 0.774652 0.844415 -0.165609
C44   C     C_R   0.849941 0.208327 0.848274 -0.173597
C45   C     C_R   0.761243 0.793548 0.872208 -0.234598
C46   C     C_R   0.762283 0.186253 0.872429 -0.261465
C47   C     C_R   0.261244 0.293548 0.872207 -0.234600
C48   C     C_R   0.262281 0.686255 0.872430 -0.261466
C49   C     C_R   0.700799 0.802528 0.762715 -0.087773
C50   C     C_R   0.701117 0.187715 0.764422 -0.092510
C51   C     C_R   0.200799 0.302528 0.762715 -0.087773
C52   C     C_R   0.201116 0.687716 0.764422 -0.092509
C53   C     C_R   0.725761 0.783437 0.625016 0.028599
C54   C     C_R   0.726833 0.212981 0.629449 0.039912
C55   C     C_R   0.225761 0.283437 0.625016 0.028601
C56   C     C_R   0.226832 0.712981 0.629449 0.039913
C57   C     C_R   0.307051 0.241644 0.607730 -0.050804
C58   C     C_R   0.307294 0.757445 0.617083 -0.041901
C59   C     C_R   0.807051 0.741644 0.607730 -0.050804
C60   C     C_R   0.807295 0.257444 0.617082 -0.041902
C61   C     C_R   0.315451 0.187075 0.494693 -0.202281
C62   C     C_R   0.315570 0.814185 0.503475 -0.222946
C63   C     C_R   0.815451 0.687075 0.494693 -0.202281
C64   C     C_R   0.815570 0.314185 0.503475 -0.222946
Cu1   Cu    Cu3+1 0.499990 0.000000 0.640660 0.967282
Cu2   Cu    Cu3+1 0.999990 0.500000 0.640660 0.967282
Cu3   Cu    Cu3+1 0.500010 0.000000 0.359340 0.980216
Cu4   Cu    Cu3+1 0.000010 0.500000 0.359340 0.980217
H1    H     H_    0.804273 0.981010 0.874042 0.182746
H2    H     H_    0.304273 0.481011 0.874042 0.182746
H3    H     H_    0.669838 0.997671 0.747765 0.201659
H4    H     H_    0.169838 0.497671 0.747765 0.201659
H5    H     H_    0.398835 0.278867 0.925870 0.176268
H6    H     H_    0.399523 0.697844 0.928549 0.171768
H7    H     H_    0.898835 0.778867 0.925870 0.176268
H8    H     H_    0.899526 0.197841 0.928546 0.171768
H9    H     H_    0.741149 0.807337 0.977031 0.170708
H10   H     H_    0.742091 0.161764 0.971547 0.181251
H11   H     H_    0.241149 0.307338 0.977031 0.170708
H12   H     H_    0.242089 0.661765 0.971548 0.181250
H13   H     H_    0.634390 0.820489 0.790402 0.223122
H14   H     H_    0.634360 0.170464 0.791347 0.219806
H15   H     H_    0.134390 0.320489 0.790402 0.223122
H16   H     H_    0.134359 0.670465 0.791347 0.219806
H17   H     H_    0.362747 0.004850 0.131853 0.238029
H18   H     H_    0.862747 0.504848 0.131852 0.238030
H19   H     H_    0.670104 0.996374 0.252883 0.207041
H20   H     H_    0.170104 0.496374 0.252883 0.207041
H21   H     H_    0.803833 0.973588 0.128480 0.172739
H22   H     H_    0.303833 0.473588 0.128480 0.172740
N1    N     N_R   0.501200 0.000000 0.147910 -0.230499
N2    N     N_R   0.001200 0.500000 0.147910 -0.230498
N3    N     N_R   0.501270 0.000000 0.852040 -0.214039
N4    N     N_R   0.001270 0.500000 0.852040 -0.214038
O1    O     O_R   0.409820 0.909830 0.618810 -0.574272
O2    O     O_R   0.409820 0.090170 0.618810 -0.596609
O3    O     O_R   0.909820 0.409830 0.618810 -0.574269
O4    O     O_R   0.909820 0.590170 0.618810 -0.596608
O5    O     O_R   0.409840 0.909830 0.381240 -0.540091
O6    O     O_R   0.409840 0.090170 0.381240 -0.529789
O7    O     O_R   0.909840 0.409830 0.381240 -0.540092
O8    O     O_R   0.909840 0.590170 0.381240 -0.529788
O9    O     O_R   0.590170 0.090170 0.618760 -0.596328
O10   O     O_R   0.590170 0.909830 0.618760 -0.593219
O11   O     O_R   0.090170 0.590170 0.618760 -0.596328
O12   O     O_R   0.090170 0.409830 0.618760 -0.593220
O13   O     O_R   0.590190 0.090180 0.381190 -0.611878
O14   O     O_R   0.590190 0.909820 0.381190 -0.621409
O15   O     O_R   0.090190 0.590180 0.381190 -0.611877
O16   O     O_R   0.090190 0.409820 0.381190 -0.621408
Cl1   Cl    Cl    0.242053 0.105212 0.269443 -0.611449
Cl2   Cl    Cl    0.236481 0.891929 0.273404 -0.613036
Cl3   Cl    Cl    0.742053 0.605212 0.269442 -0.611446
Cl4   Cl    Cl    0.736481 0.391929 0.273404 -0.613035
C65   C     C_3   0.330969 0.003064 0.861356 -0.376748
C66   C     C_3   0.273866 0.928748 0.907127 -0.768064
H23   H     H_    0.315038 0.871661 0.923192 0.261907
H24   H     H_    0.238917 0.943690 0.004293 0.305777
H25   H     H_    0.222513 0.915816 0.827147 0.258297
H26   H     H_    0.296751 0.062291 0.888970 0.208906
H27   H     H_    0.331858 0.001731 0.748922 0.264606
C67   C     C_3   0.830969 0.503060 0.861357 -0.376746
C68   C     C_3   0.773872 0.428739 0.907121 -0.768068
H28   H     H_    0.815050 0.371656 0.923187 0.261905
H29   H     H_    0.738919 0.443676 0.004285 0.305773
H30   H     H_    0.722523 0.415803 0.827137 0.258297
H31   H     H_    0.796747 0.562283 0.888977 0.208907
H32   H     H_    0.831857 0.501732 0.748923 0.264605
Cl5   Cl    Cl    0.486719 0.254247 0.669566 -0.668872
Cl6   Cl    Cl    0.486647 0.746380 0.681610 -0.693473
Cl7   Cl    Cl    0.986719 0.754247 0.669566 -0.668873
Cl8   Cl    Cl    0.986648 0.246380 0.681607 -0.693475
C69   C     C_3   0.626674 0.760446 0.253954 -0.337525
C70   C     C_3   0.532118 0.730724 0.281064 -0.698765
H33   H     H_    0.532494 0.662917 0.308551 0.275630
H34   H     H_    0.501373 0.765452 0.366940 0.261419
H35   H     H_    0.491133 0.740675 0.186028 0.221912
H36   H     H_    0.627708 0.824129 0.208256 0.208968
H37   H     H_    0.652424 0.724060 0.166049 0.233916
C71   C     C_3   0.718672 0.194598 0.244468 -0.380542
C72   C     C_3   0.802227 0.139659 0.256938 -0.864481
H38   H     H_    0.857359 0.174942 0.304892 0.263206
H39   H     H_    0.789246 0.083630 0.323190 0.246767
H40   H     H_    0.825565 0.120215 0.153806 0.247667
H41   H     H_    0.730703 0.242011 0.161396 0.237495
H42   H     H_    0.660677 0.159740 0.206574 0.231892
C73   C     C_3   0.126675 0.260446 0.253954 -0.337524
C74   C     C_3   0.032118 0.230726 0.281063 -0.698766
H43   H     H_    0.032493 0.162918 0.308543 0.275629
H44   H     H_    0.001375 0.265451 0.366942 0.261420
H45   H     H_    0.991132 0.240681 0.186028 0.221913
H46   H     H_    0.127709 0.324130 0.208256 0.208967
H47   H     H_    0.152424 0.224061 0.166049 0.233915
C75   C     C_3   0.218672 0.694599 0.244468 -0.380543
C76   C     C_3   0.302227 0.639659 0.256938 -0.864483
H48   H     H_    0.357359 0.674942 0.304892 0.263206
H49   H     H_    0.289246 0.583630 0.323189 0.246768
H50   H     H_    0.325565 0.620216 0.153805 0.247668
H51   H     H_    0.230703 0.742012 0.161396 0.237495
H52   H     H_    0.160677 0.659740 0.206574 0.231892

loop_
_geom_bond_atom_site_label_1
_geom_bond_atom_site_label_2
_ccdc_geom_bond_type
C58   C62   A    
Cu2   Cu4   S    
C26   N4    A    
Cu2   O4    S    
C65   H27   S    
C4    O4    A    
C76   H49   S    
C13   C32   S    
C73   C74   S    
C74   H45   S    
C47   H11   S    
C14   C31   S    
C11   C73   S    
C1    C62   S    
C1    O5    A    
C70   H35   S    
C53   C59   A    
C68   H28   S    
C54   C60   A    
C3    C64   S    
C25   N3    A    
C4    C63   S    
C50   H14   S    
C50   C54   A    
C40   C60   A    
C38   Cl6   S    
Cu2   O3    S    
C19   C21   A    
C24   C26   A    
C5    C11   A    
C72   H39   S    
C6    C12   A    
Cu3   O14   S    
C68   H29   S    
C65   C66   S    
C66   H23   S    
C18   C20   A    
C52   H16   S    
C49   H13   S    
C67   H31   S    
C44   H8    S    
C37   Cl5   S    
C9    C13   A    
C17   C19   A    
C38   C58   A    
C11   C15   A    
Cu1   O2    S    
C12   C16   A    
C56   C58   A    
Cu1   Cu3   S    
C4    O8    A    
C32   O10   A    
C35   C65   S    
Cu4   O8    S    
C30   H18   S    
C15   C34   S    
C29   H17   S    
C2    C61   S    
C8    Cl4   S    
Cu2   N4    S    
C3    O7    A    
Cu1   N3    S    
C40   Cl8   S    
C2    O6    A    
C69   H36   S    
C15   C55   A    
C76   H50   S    
C37   C41   A    
C10   C71   S    
Cu2   O12   S    
C26   C28   A    
C44   C46   A    
C13   C53   A    
C35   N3    A    
C43   H7    S    
C42   H6    S    
Cu1   O1    S    
C34   O12   A    
C23   H3    S    
C18   C28   A    
C71   C72   S    
C30   N2    A    
C10   C14   A    
C72   H40   S    
C71   H42   S    
C46   H10   S    
C68   H30   S    
C47   C51   A    
C5    Cl1   S    
C20   H22   S    
C18   H20   S    
C21   H1    S    
C17   C27   A    
C42   C48   A    
C36   C67   S    
C16   C56   A    
C75   H52   S    
C19   H21   S    
C16   C33   S    
C3    O3    A    
C45   C49   A    
C1    O1    A    
C39   C59   A    
Cu3   N1    S    
C41   C47   A    
C5    C61   A    
C28   N2    A    
Cu4   O16   S    
Cu4   O7    S    
C27   N1    A    
C43   C45   A    
C7    C63   A    
C75   C76   S    
Cu3   O6    S    
C8    C64   A    
C74   H44   S    
C14   C54   A    
C20   C22   A    
C69   H37   S    
C55   C57   A    
C69   C70   S    
C34   O16   A    
C22   C24   A    
C33   O15   A    
Cu1   O9    S    
Cu2   O11   S    
C40   C44   A    
C51   H15   S    
C29   N1    A    
C24   H4    S    
C7    C9    A    
C46   C50   A    
C7    Cl3   S    
Cu4   O15   S    
C17   H19   S    
C31   O13   A    
C12   C75   S    
C71   H41   S    
C70   H34   S    
C66   H25   S    
C57   C61   A    
C70   H33   S    
Cu3   O5    S    
C25   C27   A    
C29   C35   A    
C59   C63   A    
C33   O11   A    
C30   C36   A    
C6    C62   A    
C60   C64   A    
C48   H12   S    
C21   C23   A    
C73   H46   S    
C75   H51   S    
C72   H38   S    
Cu3   O13   S    
C39   Cl7   S    
C49   C53   A    
C2    O2    A    
Cu4   N2    S    
C66   H24   S    
C51   C55   A    
C74   H43   S    
C23   C25   A    
C67   H32   S    
C73   H47   S    
C41   H5    S    
C38   C42   A    
C36   N4    A    
C48   C52   A    
C39   C43   A    
C8    C10   A    
C65   H26   S    
C32   O14   A    
C76   H48   S    
C6    Cl2   S    
Cu1   O10   S    
C45   H9    S    
C67   C68   S    
C22   H2    S    
C37   C57   A    
C52   C56   A    
C31   O9    A    
C9    C69   S    
