data_str_m9_o18_o18_f0_sra.sym.100
_audit_creation_date              2012-12-11T15:26:32-0500
_audit_creation_method            fapswitch 2.2
_symmetry_space_group_name_H-M    P1
_symmetry_Int_Tables_number       1
_space_group_crystal_system       triclinic
_cell_length_a                    7.224974
_cell_length_b                    12.131294
_cell_length_c                    29.113962
_cell_angle_alpha                 89.999311
_cell_angle_beta                  89.684712
_cell_angle_gamma                 90.01038
_cell_volume                      2551.75012477

loop_
_atom_site_label
_atom_site_type_symbol
_atom_type_description
_atom_site_fract_x
_atom_site_fract_y
_atom_site_fract_z
_atom_type_partial_charge
O1    O     O_R   0.647170 0.849180 0.201220 -0.534175
O2    O     O_R   0.352830 0.150820 0.798780 -0.534978
O3    O     O_R   0.352830 0.150820 0.701220 -0.529620
O4    O     O_R   0.647170 0.849180 0.298780 -0.540556
O5    O     O_R   0.147170 0.650820 0.298780 -0.529587
O6    O     O_R   0.852830 0.349180 0.701220 -0.540527
O7    O     O_R   0.852830 0.349180 0.798780 -0.534389
O8    O     O_R   0.147170 0.650820 0.201220 -0.535192
O9    O     O_R   0.317430 0.862210 0.298450 -0.533246
O10   O     O_R   0.682570 0.137790 0.701550 -0.542221
O11   O     O_R   0.682570 0.137790 0.798450 -0.537062
O12   O     O_R   0.317430 0.862210 0.201550 -0.538187
O13   O     O_R   0.817430 0.637790 0.201550 -0.536994
O14   O     O_R   0.182570 0.362210 0.798450 -0.538118
O15   O     O_R   0.182570 0.362210 0.701550 -0.533276
O16   O     O_R   0.817430 0.637790 0.298450 -0.542254
H1    H     H_    0.039038 0.225289 0.454127 0.161971
H2    H     H_    0.058658 0.774502 0.545541 0.161680
H3    H     H_    0.887841 0.767346 0.954160 0.158523
H4    H     H_    0.112258 0.232659 0.045840 0.158510
H5    H     H_    0.621130 0.266022 0.045770 0.157638
H6    H     H_    0.378789 0.733975 0.954227 0.157627
H7    H     H_    0.460991 0.725281 0.545876 0.161975
H8    H     H_    0.441370 0.274491 0.454453 0.161682
C1    C     C_R   0.485471 0.887865 0.313324 0.689813
C2    C     C_R   0.514637 0.112262 0.686648 0.686050
C3    C     C_R   0.513818 0.112155 0.813293 0.684943
C4    C     C_R   0.486178 0.887840 0.186705 0.684504
C5    C     C_R   0.986135 0.612161 0.186705 0.685144
C6    C     C_R   0.013868 0.387835 0.813297 0.684713
C7    C     C_R   0.014548 0.387867 0.686675 0.689820
C8    C     C_R   0.985345 0.612260 0.313353 0.686071
H9    H     H_    0.063339 0.608182 0.690942 0.099983
H10   H     H_    0.029132 0.391449 0.308590 0.099162
H11   H     H_    0.023784 0.390888 0.191334 0.099622
H12   H     H_    0.976511 0.609125 0.808670 0.099992
H13   H     H_    0.469549 0.891331 0.808680 0.099711
H14   H     H_    0.530171 0.108684 0.191314 0.100148
H15   H     H_    0.436756 0.108174 0.309054 0.100046
H16   H     H_    0.470840 0.891441 0.691411 0.099156
H17   H     H_    0.040488 0.261807 0.373016 0.125176
H18   H     H_    0.068463 0.737893 0.626519 0.125610
H19   H     H_    0.937331 0.736630 0.873253 0.126637
H20   H     H_    0.062948 0.263386 0.126750 0.126500
H21   H     H_    0.572174 0.235784 0.126705 0.126610
H22   H     H_    0.427568 0.764230 0.873289 0.126466
H23   H     H_    0.459510 0.761798 0.626986 0.125188
H24   H     H_    0.431618 0.237882 0.373476 0.125605
H25   H     H_    0.943235 0.342682 0.600470 0.186099
H26   H     H_    0.941400 0.659118 0.400435 0.184446
H27   H     H_    0.986087 0.662540 0.099575 0.198210
H28   H     H_    0.013745 0.337444 0.900430 0.198240
H29   H     H_    0.518716 0.162329 0.900404 0.196816
H30   H     H_    0.481440 0.837648 0.099590 0.196842
H31   H     H_    0.556787 0.842691 0.399530 0.186119
H32   H     H_    0.558529 0.159136 0.599565 0.184442
O17   O     O_3   0.480630 0.680630 0.250000 -0.378622
O18   O     O_3   0.519370 0.319370 0.750000 -0.379420
O19   O     O_3   0.980630 0.819370 0.250000 -0.379368
O20   O     O_3   0.019370 0.180630 0.750000 -0.378569
V1    V     V_3+5 0.205800 0.762860 0.250000 1.471137
V2    V     V_3+5 0.794200 0.237140 0.750000 1.456788
V3    V     V_3+5 0.705800 0.737140 0.250000 1.456840
V4    V     V_3+5 0.294200 0.262860 0.750000 1.471206
C9    C     C_R   0.992757 0.534466 0.351677 -0.070384
C10   C     C_R   0.009199 0.466238 0.648496 -0.072925
C11   C     C_R   0.004672 0.465443 0.851670 -0.076541
C12   C     C_R   0.995348 0.534550 0.148334 -0.076601
C13   C     C_R   0.495723 0.965460 0.148338 -0.076431
C14   C     C_R   0.504258 0.034530 0.851657 -0.076481
C15   C     C_R   0.507184 0.034470 0.648323 -0.070371
C16   C     C_R   0.490862 0.966238 0.351502 -0.072944
C17   C     C_R   0.025228 0.349069 0.380122 -0.134142
C18   C     C_R   0.046793 0.651032 0.619628 -0.134155
C19   C     C_R   0.961964 0.650115 0.880275 -0.131458
C20   C     C_R   0.038216 0.349891 0.119729 -0.131526
C21   C     C_R   0.544298 0.149606 0.119700 -0.130892
C22   C     C_R   0.455535 0.850397 0.880294 -0.130957
C23   C     C_R   0.474751 0.849065 0.619880 -0.134155
C24   C     C_R   0.453281 0.151025 0.380367 -0.134142
C25   C     C_R   0.017988 0.422316 0.343417 -0.171573
C26   C     C_R   0.042614 0.577788 0.656355 -0.171028
C27   C     C_R   0.983015 0.577897 0.843490 -0.171926
C28   C     C_R   0.017165 0.422107 0.156514 -0.171430
C29   C     C_R   0.521580 0.077607 0.156501 -0.172086
C30   C     C_R   0.478251 0.922396 0.843494 -0.171529
C31   C     C_R   0.481974 0.922313 0.656583 -0.171571
C32   C     C_R   0.457468 0.077783 0.343642 -0.171074
C33   C     C_R   0.977303 0.573576 0.396757 -0.085829
C34   C     C_R   0.983177 0.427657 0.603675 -0.087693
C35   C     C_R   0.011925 0.425610 0.896725 -0.084389
C36   C     C_R   0.988005 0.574376 0.103279 -0.084520
C37   C     C_R   0.486200 0.925774 0.103289 -0.083696
C38   C     C_R   0.513866 0.074206 0.896706 -0.083840
C39   C     C_R   0.522635 0.073586 0.603243 -0.085821
C40   C     C_R   0.516866 0.927661 0.396325 -0.087694
C41   C     C_R   0.000642 0.502363 0.434913 0.105052
C42   C     C_R   0.005799 0.498350 0.565231 0.104814
C43   C     C_R   0.003464 0.497976 0.934903 0.101490
C44   C     C_R   0.996517 0.502012 0.065100 0.101525
C45   C     C_R   0.496771 0.998033 0.065101 0.101718
C46   C     C_R   0.503250 0.001948 0.934895 0.101749
C47   C     C_R   0.499325 0.002365 0.565087 0.105047
C48   C     C_R   0.494239 0.998348 0.434767 0.104820
C49   C     C_R   0.016031 0.387943 0.425543 0.021350
C50   C     C_R   0.028940 0.612417 0.574380 0.021199
C51   C     C_R   0.967750 0.610845 0.925645 0.014118
C52   C     C_R   0.032319 0.389152 0.074358 0.014138
C53   C     C_R   0.536402 0.110458 0.074335 0.015572
C54   C     C_R   0.463537 0.889534 0.925660 0.015589
C55   C     C_R   0.483953 0.887941 0.574458 0.021344
C56   C     C_R   0.471107 0.112412 0.425617 0.021206
C57   C     C_R   0.008321 0.540005 0.481683 -0.140832
C58   C     C_R   0.007329 0.460527 0.518415 -0.139319
C59   C     C_R   0.020014 0.461936 0.981698 -0.131914
C60   C     C_R   0.979950 0.538051 0.018304 -0.131897
C61   C     C_R   0.478821 0.962175 0.018312 -0.129923
C62   C     C_R   0.521218 0.037803 0.981683 -0.129909
C63   C     C_R   0.491670 0.040005 0.518316 -0.140852
C64   C     C_R   0.492688 0.960526 0.481584 -0.139298
C65   C     C_R   0.020581 0.346833 0.506755 0.682012
C66   C     C_R   0.029090 0.653351 0.493163 0.681962
C67   C     C_R   0.922456 0.646527 0.006552 0.682211
C68   C     C_R   0.077527 0.353463 0.993449 0.682211
C69   C     C_R   0.582219 0.145623 0.993405 0.678844
C70   C     C_R   0.417805 0.854358 0.006592 0.678848
C71   C     C_R   0.479447 0.846829 0.493246 0.682022
C72   C     C_R   0.470906 0.153346 0.506833 0.681939
C73   C     C_R   0.025038 0.312633 0.461343 -0.261392
C74   C     C_R   0.038829 0.687501 0.538492 -0.257438
C75   C     C_R   0.927015 0.682812 0.961407 -0.241926
C76   C     C_R   0.073039 0.317186 0.038595 -0.241918
C77   C     C_R   0.579117 0.181957 0.038547 -0.241337
C78   C     C_R   0.420840 0.818034 0.961449 -0.241328
C79   C     C_R   0.474977 0.812629 0.538659 -0.261398
C80   C     C_R   0.461196 0.187493 0.461504 -0.257449
F1    F     F_    0.047955 0.266240 0.538137 -0.674650
F2    F     F_    0.059598 0.733174 0.461525 -0.674079
F3    F     F_    0.848125 0.717792 0.037354 -0.697637
F4    F     F_    0.151837 0.282201 0.962642 -0.697649
F5    F     F_    0.658667 0.216035 0.962573 -0.698591
F6    F     F_    0.341386 0.783946 0.037429 -0.698606
F7    F     F_    0.452104 0.766226 0.461865 -0.674682
F8    F     F_    0.440381 0.233163 0.538468 -0.674053

loop_
_geom_bond_atom_site_label_1
_geom_bond_atom_site_label_2
_ccdc_geom_bond_type
C7    C10   S    
C11   C27   A    
C60   C67   A    
H32   C39   S    
C4    C13   S    
C44   C60   A    
H23   C23   S    
H25   C34   S    
O11   V2    S    
C19   C27   A    
C20   C28   A    
C23   C31   A    
O4    C1    A    
C64   C71   A    
O9    C1    A    
C10   C34   A    
O3    V4    S    
C9    C33   A    
O4    V3    S    
H6    C78   S    
O9    V1    S    
O8    C5    A    
H16   C31   S    
O13   C5    A    
C14   C38   A    
C71   C79   A    
C13   C37   A    
C72   C80   A    
C43   C59   A    
C42   C58   A    
C15   C39   A    
H12   C27   S    
C45   C53   A    
C59   C60   A    
C67   F3    S    
C68   C76   A    
O20   V2    S    
O19   V1    S    
C65   F1    S    
H20   C20   S    
H30   C37   S    
C58   C65   A    
C9    C25   A    
H5    C77   S    
C57   C66   A    
C39   C47   A    
O1    C4    A    
O15   V4    S    
O2    C3    A    
O16   V3    S    
C61   C70   A    
C6    C11   S    
C46   C62   A    
O8    V1    S    
O5    C8    A    
C41   C49   A    
C63   C72   A    
H8    C80   S    
O6    C7    A    
C21   C29   A    
C20   C52   A    
O7    C6    A    
H19   C19   S    
C2    C15   S    
O10   V2    S    
H15   C32   S    
C56   C80   A    
O1    V3    S    
C17   C25   A    
C16   C32   A    
O2    V4    S    
O17   V3    S    
C69   F5    S    
H3    C75   S    
C44   C52   A    
H18   C18   S    
H14   C29   S    
C53   C77   A    
C12   C28   A    
C19   C51   A    
C66   F2    S    
C51   C75   A    
C37   C45   A    
H22   C22   S    
C49   C73   A    
O18   V4    S    
O14   C6    A    
H1    C73   S    
C70   F6    S    
C33   C41   A    
H4    C76   S    
O7    V2    S    
H27   C36   S    
C18   C50   A    
C5    C12   S    
H13   C30   S    
H26   C33   S    
C17   C49   A    
O13   V3    S    
O11   C3    A    
H11   C28   S    
O14   V4    S    
C24   C56   A    
C11   C35   A    
O10   C2    A    
O5    V1    S    
C22   C54   A    
C1    C16   S    
C71   F7    S    
C21   C53   A    
C72   F8    S    
C38   C46   A    
C3    C14   S    
C15   C31   A    
C62   C69   A    
O12   C4    A    
C40   C48   A    
H2    C74   S    
C41   C57   A    
C14   C30   A    
C13   C29   A    
C36   C44   A    
C48   C56   A    
C57   C58   A    
H9    C26   S    
C69   C77   A    
C50   C74   A    
C59   C68   A    
C67   C75   A    
H29   C38   S    
C68   F4    S    
O3    C2    A    
C47   C63   A    
C65   C73   A    
H31   C40   S    
C63   C64   A    
O15   C7    A    
C47   C55   A    
H7    C79   S    
O16   C8    A    
C43   C51   A    
C42   C50   A    
C23   C55   A    
O6    V2    S    
C45   C61   A    
H24   C24   S    
C24   C32   A    
C61   C62   A    
O12   V1    S    
C55   C79   A    
C46   C54   A    
C12   C36   A    
C34   C42   A    
C52   C76   A    
C54   C78   A    
H17   C17   S    
C16   C40   A    
C70   C78   A    
C22   C30   A    
H28   C35   S    
H21   C21   S    
C35   C43   A    
C66   C74   A    
H10   C25   S    
C18   C26   A    
C10   C26   A    
C8    C9    S    
C48   C64   A    
