data_str_m9_o13_o2_f0_sra.sym.58
_audit_creation_date              2012-12-11T14:57:58-0500
_audit_creation_method            fapswitch 2.2
_symmetry_space_group_name_H-M    P1
_symmetry_Int_Tables_number       1
_space_group_crystal_system       triclinic
_cell_length_a                    6.940798
_cell_length_b                    16.828612
_cell_length_c                    16.964798
_cell_angle_alpha                 100.371222
_cell_angle_beta                  89.98826
_cell_angle_gamma                 90.787262
_cell_volume                      1948.99239278

loop_
_atom_site_label
_atom_site_type_symbol
_atom_type_description
_atom_site_fract_x
_atom_site_fract_y
_atom_site_fract_z
_atom_type_partial_charge
O1    O     O_R   0.506180 0.438940 0.579430 -0.513564
O2    O     O_R   0.170520 0.406230 0.413590 -0.557190
O3    O     O_R   0.005180 0.561060 0.420570 -0.537181
C1    C     C_R   0.338961 0.383124 0.385140 0.751351
O4    O     O_R   0.176140 0.429310 0.578370 -0.547549
O5    O     O_R   0.010830 0.584300 0.586530 -0.538347
C2    C     C_R   0.343052 0.412790 0.604644 0.718213
O6    O     O_R   0.500520 0.415700 0.413470 -0.507673
O7    O     O_3   0.340830 0.550820 0.502480 -0.366590
V1    V     V_3+5 0.064040 0.490570 0.499540 1.512298
O8    O     O_R   0.681400 0.593770 0.586410 -0.532293
C3    C     C_R   0.850754 0.614897 0.616471 0.789539
O9    O     O_R   0.675790 0.570690 0.421630 -0.509890
C4    C     C_R   0.843854 0.584976 0.393537 0.775713
V2    V     V_3+5 0.564650 0.509430 0.500460 1.593868
O10   O     O_3   0.837730 0.449180 0.497520 -0.367819
C5    C     C_R   0.920406 0.862324 0.167919 -0.063947
C6    C     C_R   0.846291 0.633896 0.328241 -0.184931
C7    C     C_R   0.698320 0.671307 0.209194 -0.249961
C8    C     C_R   0.714537 0.617243 0.262918 0.460307
C9    C     C_R   0.967965 0.702453 0.334345 -0.273349
C10   C     C_R   0.953086 0.755775 0.279180 0.161128
C11   C     C_R   0.814424 0.740861 0.217049 0.073968
C12   C     C_R   0.796526 0.794818 0.162607 -0.201006
C13   C     C_R   0.059085 0.876156 0.229597 -0.167805
C14   C     C_R   0.073725 0.824175 0.285182 -0.154487
H1    H     H_    0.691957 0.782570 0.114323 0.113533
H2    H     H_    0.157442 0.927379 0.234511 0.118073
H3    H     H_    0.594439 0.659000 0.160705 0.177257
H4    H     H_    0.181485 0.836858 0.332137 0.112827
H5    H     H_    0.069918 0.715665 0.383539 0.135878
H6    H     H_    0.720767 0.645568 0.988691 0.144938
C15   C     C_R   0.997528 0.902652 0.722008 -0.147554
C16   C     C_R   0.034189 0.914219 0.644124 -0.118611
C17   C     C_R   0.014377 0.850125 0.580337 -0.115911
C18   C     C_R   0.958280 0.773977 0.594020 -0.135522
C19   C     C_R   0.921209 0.760002 0.672666 0.055859
C20   C     C_R   0.940739 0.825898 0.737778 0.071375
C21   C     C_R   0.864288 0.682149 0.686525 -0.177973
C22   C     C_R   0.826484 0.669978 0.766794 -0.003224
C23   C     C_R   0.843171 0.737613 0.831321 0.034532
C24   C     C_R   0.901006 0.814719 0.816785 -0.159086
C25   C     C_R   0.774498 0.593195 0.786991 0.341813
C26   C     C_R   0.735867 0.586105 0.866288 -0.106710
C27   C     C_R   0.749962 0.652298 0.927502 -0.186860
C28   C     C_R   0.804220 0.726920 0.910708 -0.135662
H7    H     H_    0.013732 0.954622 0.769545 0.097279
H8    H     H_    0.077472 0.973334 0.633220 0.113790
H9    H     H_    0.042147 0.859427 0.519822 0.107601
H10   H     H_    0.943759 0.726523 0.542036 0.076806
H11   H     H_    0.696076 0.528027 0.880999 0.161721
H12   H     H_    0.816185 0.776103 0.961232 0.108563
H13   H     H_    0.988878 0.439469 0.148866 0.166037
C29   C     C_R   0.537592 0.236389 0.401542 -0.131079
C30   C     C_R   0.643998 0.169073 0.410687 -0.120174
C31   C     C_R   0.674896 0.107827 0.345479 -0.126781
C32   C     C_R   0.599184 0.113311 0.270661 -0.151158
C33   C     C_R   0.492879 0.181539 0.259011 0.072675
C34   C     C_R   0.461793 0.244689 0.325930 0.070864
C35   C     C_R   0.413640 0.186541 0.182964 -0.179620
C36   C     C_R   0.302759 0.254884 0.174264 0.065773
C37   C     C_R   0.267882 0.317135 0.241556 0.058238
C38   C     C_R   0.351403 0.313185 0.317185 -0.167569
C39   C     C_R   0.227549 0.263264 0.098575 -0.134106
C40   C     C_R   0.115020 0.329031 0.089939 -0.158476
C41   C     C_R   0.076269 0.388379 0.155873 -0.066587
C42   C     C_R   0.152275 0.383056 0.230680 -0.035247
H14   H     H_    0.512780 0.280867 0.454908 0.086108
H15   H     H_    0.700879 0.164012 0.468976 0.108584
H16   H     H_    0.756230 0.055258 0.353046 0.115734
H17   H     H_    0.624228 0.063006 0.222613 0.116548
H18   H     H_    0.256509 0.219767 0.044900 0.113030
H19   H     H_    0.058267 0.334092 0.031635 0.130156
H20   H     H_    0.119100 0.431580 0.279323 0.163836
C43   C     C_R   0.428636 0.138928 0.832971 -0.067374
C44   C     C_R   0.338393 0.358682 0.665284 -0.048279
C45   C     C_R   0.148034 0.298954 0.761873 -0.199416
C46   C     C_R   0.168249 0.353772 0.709690 -0.153511
C47   C     C_R   0.490719 0.307105 0.675041 -0.192616
C48   C     C_R   0.470326 0.250639 0.727034 0.151755
C49   C     C_R   0.297303 0.246453 0.770708 0.155045
C50   C     C_R   0.276761 0.190412 0.822939 -0.245621
C51   C     C_R   0.598703 0.142756 0.787953 -0.156117
C52   C     C_R   0.619183 0.197690 0.735678 -0.198676
H21   H     H_    0.145781 0.188747 0.857488 0.120358
H22   H     H_    0.718399 0.103582 0.793888 0.124939
H23   H     H_    0.014492 0.297136 0.794672 0.136195
H24   H     H_    0.752379 0.199197 0.702598 0.117403
H25   H     H_    0.048115 0.391986 0.703274 0.198778
H26   H     H_    0.621826 0.309161 0.640669 0.133190
O11   O     O_R   0.265840 0.084300 0.086750 -0.537695
O12   O     O_R   0.589750 0.070740 0.921690 -0.542780
O13   O     O_R   0.755020 0.915730 0.913400 -0.536253
C53   C     C_R   0.423106 0.086223 0.894686 0.692951
O14   O     O_R   0.595830 0.093740 0.086480 -0.536548
O15   O     O_R   0.761150 0.938890 0.079360 -0.541832
C54   C     C_R   0.427193 0.116921 0.114849 0.691439
O16   O     O_R   0.259710 0.061140 0.920790 -0.543008
O17   O     O_3   0.425260 0.949200 0.997610 -0.364082
V3    V     V_3+5 0.702060 0.009430 0.000450 1.417082
O18   O     O_R   0.090530 0.929220 0.078150 -0.535858
C55   C     C_R   0.922384 0.913744 0.105193 0.687044
O19   O     O_R   0.084440 0.906220 0.913360 -0.536678
C56   C     C_R   0.914842 0.884302 0.884413 0.695109
V4    V     V_3+5 0.201450 0.990520 0.999290 1.424174
O20   O     O_3   0.928380 0.050800 0.002390 -0.369298
Cl1   Cl    Cl    0.759453 0.500781 0.719931 -0.732086
S1    S     S_3+6 0.567736 0.529050 0.245062 -0.054656
O21   O     O_2   0.675374 0.458744 0.266073 -0.383483
O22   O     O_2   0.390381 0.543699 0.296065 -0.351218
O23   O     O_3   0.501958 0.507814 0.147978 -0.522488
H27   H     H_    0.480253 0.448567 0.136191 0.359788

loop_
_geom_bond_atom_site_label_1
_geom_bond_atom_site_label_2
_ccdc_geom_bond_type
C30   C31   A    
O18   C55   A    
O15   C55   A    
C6    C9    A    
H6    C27   S    
C4    C6    S    
O2    C1    A    
C7    C8    A    
C12   H1    S    
C48   C52   A    
C49   C50   A    
C45   C46   A    
C31   C32   A    
C13   H2    S    
C9    H5    S    
C1    C38   S    
C19   C20   A    
O16   V4    S    
C37   C42   A    
C18   C19   A    
C44   C46   A    
C20   C24   A    
O5    C3    A    
C29   H14   S    
C53   O16   A    
C33   C35   A    
V2    O10   S    
C28   H12   S    
C40   H19   S    
S1    O21   D    
C16   C17   A    
C23   C24   A    
O11   V4    S    
C47   H26   S    
O8    V2    S    
C22   C25   A    
O17   V3    S    
C17   H9    S    
C23   C28   A    
C44   C47   A    
O1    V2    S    
O7    V1    S    
C1    O6    A    
C41   C42   A    
O9    C4    A    
O13   C56   A    
C29   C34   A    
C46   H25   S    
O18   V4    S    
O17   V4    S    
C5    C12   A    
C35   C54   S    
C21   C22   A    
O4    C2    A    
O14   V3    S    
C33   C34   A    
C27   C28   A    
O11   C54   A    
C35   C36   A    
C17   C18   A    
C36   C39   A    
C7    C11   A    
C5    C55   S    
C37   C38   A    
C51   C52   A    
C45   C49   A    
C11   C12   A    
O12   C53   A    
C15   C16   A    
O19   V4    S    
C42   H20   S    
C25   Cl1   S    
C32   H17   S    
H13   C41   S    
O13   V3    S    
C30   H15   S    
O3    C4    A    
C26   H11   S    
C22   C23   A    
C14   H4    S    
O6    V2    S    
C31   H16   S    
O9    V2    S    
C25   C26   A    
C15   H7    S    
C16   H8    S    
O2    V1    S    
C18   H10   S    
C26   C27   A    
O12   V3    S    
C29   C30   A    
O23   H27   S    
O1    C2    A    
V3    O20   S    
C52   H24   S    
C48   C49   A    
C24   C56   S    
O5    V1    S    
O8    C3    A    
O14   C54   A    
C43   C50   A    
C2    C44   S    
C50   H21   S    
V4    O20   S    
C34   C38   A    
C15   C20   A    
S1    O23   S    
C5    C13   A    
C39   C40   A    
C3    C21   S    
C13   C14   A    
O4    V1    S    
C19   C21   A    
O3    V1    S    
V1    O10   S    
C43   C51   A    
C32   C33   A    
O15   V3    S    
S1    O22   D    
C6    C8    A    
C39   H18   S    
O7    V2    S    
C36   C37   A    
C47   C48   A    
C51   H22   S    
C45   H23   S    
C40   C41   A    
C10   C14   A    
O19   C56   A    
C10   C11   A    
C9    C10   A    
C43   C53   S    
C8    S1    S    
C7    H3    S    
