data_str_m3_o4_o9_f0_pcu.sym.172
_audit_creation_date              2012-12-10T20:45:30-0500
_audit_creation_method            fapswitch 2.2
_symmetry_space_group_name_H-M    P1
_symmetry_Int_Tables_number       1
_space_group_crystal_system       triclinic
_cell_length_a                    10.673547
_cell_length_b                    10.65885
_cell_length_c                    9.849268
_cell_angle_alpha                 90.225545
_cell_angle_beta                  90.060221
_cell_angle_gamma                 90.12883
_cell_volume                      1120.51678212

loop_
_atom_site_label
_atom_site_type_symbol
_atom_type_description
_atom_site_fract_x
_atom_site_fract_y
_atom_site_fract_z
_atom_type_partial_charge
C1    C     C_R   0.506361 0.260005 0.499620 0.894315
C2    C     C_R   0.235950 0.823811 0.114212 -0.109758
C3    C     C_R   0.932629 0.568349 0.402154 -0.253625
C4    C     C_R   0.872356 0.496422 0.500572 -0.073502
C5    C     C_R   0.938887 0.430671 0.600707 -0.007647
C6    C     C_R   0.067267 0.437341 0.599287 -0.262336
C7    C     C_R   0.127808 0.508581 0.500439 -0.079015
C8    C     C_R   0.061383 0.577212 0.401878 -0.001962
C9    C     C_R   0.867876 0.394468 0.839073 -0.120821
C10   C     C_R   0.806875 0.321199 0.936317 -0.139496
C11   C     C_R   0.757570 0.204119 0.900152 -0.120049
C12   C     C_R   0.260264 0.504220 0.499911 0.872255
C13   C     C_R   0.769353 0.160055 0.766965 -0.117127
C14   C     C_R   0.828022 0.234012 0.668773 -0.156455
C15   C     C_R   0.877711 0.351589 0.704479 0.138897
C16   C     C_R   0.496588 0.064102 0.619149 0.093635
C17   C     C_R   0.526966 0.128240 0.500849 -0.135831
C18   C     C_R   0.583027 0.062572 0.391018 0.169863
C19   C     C_R   0.579297 0.931871 0.393185 -0.248683
C20   C     C_R   0.523711 0.870810 0.503381 -0.157796
C21   C     C_R   0.495709 0.936887 0.620769 0.122381
C22   C     C_3   0.383838 0.930913 0.711563 -0.479133
C23   C     C_R   0.504002 0.739834 0.500419 0.888024
C24   C     C_3   0.385394 0.073252 0.710683 -0.483566
C25   C     C_R   0.441353 0.406015 0.070877 0.202249
C26   C     C_R   0.568061 0.585523 0.072485 -0.130508
C27   C     C_R   0.568283 0.585362 0.928383 -0.130931
C28   C     C_R   0.439980 0.407013 0.928188 0.237095
C29   C     C_3   0.303128 0.378185 0.924094 -0.531194
C30   C     C_3   0.305859 0.373283 0.077981 -0.501041
C31   C     C_R   0.739825 0.497109 0.500177 0.864901
C32   C     C_R   0.258380 0.839686 0.253015 -0.116953
C33   C     C_R   0.201771 0.759498 0.346911 -0.103653
C34   C     C_R   0.122090 0.662487 0.302425 0.134536
C35   C     C_R   0.097576 0.649269 0.162769 -0.190152
C36   C     C_R   0.155442 0.728809 0.069125 -0.138230
H1    H     H_    0.280328 0.885618 0.041710 0.120385
H2    H     H_    0.710567 0.147268 0.975216 0.122851
H3    H     H_    0.733008 0.068532 0.739880 0.131134
H4    H     H_    0.835140 0.199714 0.565391 0.117611
H5    H     H_    0.613455 0.878526 0.306922 0.165043
H6    H     H_    0.300209 0.889695 0.660725 0.191853
H7    H     H_    0.406876 0.890403 0.812360 0.200151
H8    H     H_    0.302337 0.115346 0.660175 0.195279
H9    H     H_    0.410651 0.114269 0.810950 0.202132
H10   H     H_    0.620955 0.656071 0.127322 0.137621
H11   H     H_    0.319527 0.914260 0.287865 0.135748
H12   H     H_    0.621499 0.655660 0.874269 0.144056
H13   H     H_    0.246725 0.457643 0.884399 0.218162
H14   H     H_    0.282293 0.286006 0.876413 0.195320
H15   H     H_    0.249023 0.447512 0.127026 0.235410
H16   H     H_    0.290720 0.277387 0.118882 0.196391
H17   H     H_    0.219688 0.773116 0.454162 0.087149
H18   H     H_    0.035606 0.575865 0.126282 0.125071
H19   H     H_    0.137778 0.716815 0.961601 0.129941
H20   H     H_    0.878845 0.621681 0.328789 0.152579
H21   H     H_    0.120223 0.383795 0.673141 0.155107
H22   H     H_    0.905694 0.485148 0.867910 0.113776
H23   H     H_    0.797828 0.355115 0.039599 0.135032
N1    N     N_R   0.499160 0.499140 0.142800 -0.100409
N2    N     N_R   0.499160 0.499180 0.857150 -0.101963
O1    O     O_R   0.500020 0.316790 0.614690 -0.608083
O2    O     O_R   0.500000 0.316760 0.385350 -0.615984
O3    O     O_R   0.316770 0.500030 0.614670 -0.627277
O4    O     O_R   0.316750 0.499990 0.385330 -0.608306
O5    O     O_R   0.500000 0.683240 0.614650 -0.620394
O6    O     O_R   0.499980 0.683210 0.385310 -0.619333
O7    O     O_R   0.683250 0.500010 0.614670 -0.609608
O8    O     O_R   0.683230 0.499970 0.385330 -0.633583
Zn1   Zn    Zn3+2 0.500010 0.500020 0.653130 0.948582
Zn2   Zn    Zn3+2 0.499990 0.499980 0.346870 0.940638
C37   C     C_3   0.642380 0.126836 0.270954 -0.889632
H24   H     H_    0.708045 0.201068 0.306374 0.241064
H25   H     H_    0.697115 0.059657 0.208336 0.218246
H26   H     H_    0.569032 0.168184 0.204995 0.249554

loop_
_geom_bond_atom_site_label_1
_geom_bond_atom_site_label_2
_ccdc_geom_bond_type
N2    Zn1   S    
C27   H12   S    
C30   H15   S    
C16   C21   A    
C35   C36   A    
C1    O1    A    
C7    C8    A    
C22   H6    S    
C25   C28   A    
C26   C27   A    
C24   H9    S    
C23   O5    A    
C28   C29   S    
C18   C19   A    
C5    C6    A    
C12   O3    A    
O1    Zn1   S    
C2    C32   A    
C9    H22   S    
C23   O6    A    
O8    Zn2   S    
C27   N2    A    
C19   C20   A    
C16   C17   A    
C25   N1    A    
O3    Zn1   S    
C9    C10   A    
C28   N2    A    
C16   C24   S    
C13   C14   A    
C35   H18   S    
C18   C37   S    
C6    H21   S    
C31   O7    A    
C37   H26   S    
C1    O2    A    
C33   C34   A    
C29   H14   S    
C33   H17   S    
C7    C12   S    
C5    C15   S    
C37   H25   S    
C3    C8    A    
C37   H24   S    
C29   H13   S    
N1    Zn2   S    
O4    Zn2   S    
C11   H2    S    
C29   C30   S    
C3    H20   S    
C22   H7    S    
C20   C23   S    
C34   C35   A    
C17   C18   A    
C8    C34   S    
O2    Zn2   S    
C24   H8    S    
C32   H11   S    
C22   C24   S    
C3    C4    A    
C2    C36   A    
C25   C30   S    
C30   H16   S    
C4    C5    A    
C6    C7    A    
C12   O4    A    
C1    C17   S    
C32   C33   A    
C10   H23   S    
C9    C15   A    
C36   H19   S    
C11   C13   A    
C2    H1    S    
O5    Zn1   S    
O6    Zn2   S    
C13   H3    S    
C4    C31   S    
C10   C11   A    
C26   H10   S    
C14   H4    S    
C31   O8    A    
C20   C21   A    
O7    Zn1   S    
C14   C15   A    
C21   C22   S    
C26   N1    A    
C19   H5    S    
