data_str_m2_o10_o29_f0_pcu.sym.178
_audit_creation_date              2012-12-10T16:51:16-0500
_audit_creation_method            fapswitch 2.2
_symmetry_space_group_name_H-M    P1
_symmetry_Int_Tables_number       1
_space_group_crystal_system       triclinic
_cell_length_a                    27.782952
_cell_length_b                    8.675388
_cell_length_c                    7.439579
_cell_angle_alpha                 103.043626
_cell_angle_beta                  94.100229
_cell_angle_gamma                 92.664721
_cell_volume                      1738.78616523

loop_
_atom_site_label
_atom_site_type_symbol
_atom_type_description
_atom_site_fract_x
_atom_site_fract_y
_atom_site_fract_z
_atom_type_partial_charge
C1    C     C_R   0.498530 0.199629 0.453133 0.891841
C2    C     C_R   0.501470 0.800371 0.546867 0.891847
C3    C     C_R   0.101989 0.493525 0.501942 -0.043110
C4    C     C_R   0.898009 0.506375 0.498010 -0.043110
C5    C     C_R   0.124260 0.348822 0.463269 -0.035083
C6    C     C_R   0.875738 0.651079 0.536684 -0.035092
C7    C     C_R   0.095741 0.207683 0.402999 -0.186907
C8    C     C_R   0.904257 0.792218 0.596950 -0.186903
C9    C     C_R   0.131124 0.636264 0.539365 -0.019822
C10   C     C_R   0.868874 0.363636 0.460593 -0.019825
C11   C     C_R   0.354574 0.495422 0.507121 -0.036364
C12   C     C_R   0.645426 0.504540 0.492871 -0.036374
C13   C     C_R   0.970796 0.355505 0.462947 0.050846
C14   C     C_R   0.029202 0.644394 0.536998 0.050846
C15   C     C_R   0.978239 0.649488 0.549121 0.004788
C16   C     C_R   0.021759 0.350411 0.450824 0.004788
C17   C     C_R   0.949258 0.504045 0.501154 0.064265
C18   C     C_R   0.050740 0.495854 0.498794 0.064264
C19   C     C_R   0.940572 0.217315 0.451539 -0.177608
C20   C     C_R   0.059426 0.782584 0.548406 -0.177609
C21   C     C_R   0.890677 0.220309 0.442829 -0.141881
C22   C     C_R   0.109322 0.779590 0.557124 -0.141884
C23   C     C_R   0.407485 0.498865 0.502401 0.798523
C24   C     C_R   0.592515 0.501128 0.497598 0.798534
C25   C     C_R   0.045470 0.207617 0.384762 -0.034578
C26   C     C_R   0.954528 0.792283 0.615183 -0.034579
C27   C     C_2   0.497835 0.031647 0.426778 -0.362272
C28   C     C_2   0.502165 0.968353 0.573222 -0.362273
C29   C     C_R   0.174960 0.349269 0.472814 0.546660
C30   C     C_R   0.825038 0.650632 0.527146 0.546674
C31   C     C_R   0.181600 0.631719 0.547137 0.542026
C32   C     C_R   0.818398 0.368182 0.452831 0.542033
C33   C     C_R   0.274609 0.466964 0.344500 -0.101113
C34   C     C_R   0.725386 0.532664 0.655436 -0.101111
C35   C     C_R   0.324674 0.470801 0.341171 -0.204171
C36   C     C_R   0.675321 0.528858 0.658772 -0.204151
C37   C     C_R   0.333387 0.515601 0.676379 -0.212604
C38   C     C_R   0.666615 0.484623 0.323655 -0.212581
C39   C     C_R   0.283183 0.512304 0.679262 -0.098519
C40   C     C_R   0.716819 0.487891 0.320764 -0.098512
C41   C     C_R   0.253787 0.487985 0.513278 0.361768
C42   C     C_R   0.746211 0.511917 0.486701 0.361792
Cu1   Cu    Cu3+1 0.505380 0.517380 0.684380 0.956703
Cu2   Cu    Cu3+1 0.494620 0.482620 0.315620 0.956704
H1    H     H_    0.355521 0.534560 0.806282 0.158498
H2    H     H_    0.644484 0.465903 0.193791 0.158469
H3    H     H_    0.462103 0.377824 0.948506 0.225403
H4    H     H_    0.537897 0.622176 0.051493 0.225399
H5    H     H_    0.267110 0.529165 0.810142 0.135391
H6    H     H_    0.732894 0.471238 0.189914 0.135336
H7    H     H_    0.112739 0.096876 0.358179 0.186117
H8    H     H_    0.887259 0.903024 0.641771 0.186118
H9    H     H_    0.660108 0.544779 0.791266 0.158560
H10   H     H_    0.339885 0.454661 0.208641 0.158568
H11   H     H_    0.748088 0.550388 0.783867 0.136618
H12   H     H_    0.251905 0.449016 0.216032 0.136668
H13   H     H_    0.869305 0.109734 0.427800 0.197341
H14   H     H_    0.130693 0.890166 0.572155 0.197343
H15   H     H_    0.954427 0.105161 0.458029 0.155112
H16   H     H_    0.045571 0.894737 0.541912 0.155113
H17   H     H_    0.493763 0.959761 0.285778 0.179857
H18   H     H_    0.506237 0.040239 0.714222 0.179858
N1    N     N_R   0.202372 0.489540 0.515420 -0.474266
N2    N     N_R   0.797626 0.510360 0.484547 -0.474276
N3    N     N_2   0.486510 0.456430 0.038510 -0.218397
N4    N     N_2   0.513490 0.543570 0.961490 -0.218398
O1    O     O_R   0.503500 0.286120 0.619780 -0.582800
O2    O     O_R   0.496500 0.713880 0.380220 -0.582799
O3    O     O_R   0.494410 0.256780 0.308360 -0.583267
O4    O     O_R   0.505590 0.743220 0.691640 -0.583264
O5    O     O_R   0.434810 0.514700 0.655690 -0.591478
O6    O     O_R   0.565190 0.485300 0.344310 -0.591475
O7    O     O_R   0.425720 0.485350 0.344280 -0.584592
O8    O     O_R   0.574280 0.514650 0.655720 -0.584596
O9    O     O_2   0.196712 0.210933 0.438284 -0.515807
O10   O     O_2   0.803286 0.788971 0.561684 -0.515782
O11   O     O_2   0.790265 0.231829 0.416129 -0.510170
O12   O     O_2   0.209733 0.768072 0.583836 -0.510189
C43   C     C_1   0.021288 0.062677 0.273176 0.228440
N5    N     N_1   0.002318 0.945879 0.184167 -0.263979
C44   C     C_1   0.978710 0.937223 0.726768 0.228441
N6    N     N_1   0.997680 0.054021 0.815776 -0.263979

loop_
_geom_bond_atom_site_label_1
_geom_bond_atom_site_label_2
_ccdc_geom_bond_type
C29   N1    A    
C30   N2    A    
C8    C26   A    
C14   C18   A    
C34   C42   A    
C44   N6    T    
C39   C41   A    
C3    C18   A    
C19   C21   A    
C2    O2    A    
C9    C22   A    
C14   C20   A    
C11   C37   A    
C36   H9    S    
C27   H17   S    
C1    O1    A    
C32   O11   S    
C12   C36   A    
C8    H8    S    
C33   H12   S    
C40   C42   A    
C34   H11   S    
C35   H10   S    
Cu2   N3    S    
C23   O7    A    
C5    C29   A    
C10   C21   A    
C13   C19   A    
C31   N1    A    
C32   N2    A    
C4    C6    A    
C5    C7    A    
C15   C26   A    
C6    C8    A    
C19   H15   S    
C1    O3    A    
Cu1   Cu2   S    
C21   H13   S    
C3    C9    A    
C23   O5    A    
C30   O10   S    
Cu2   O3    S    
C4    C17   A    
C16   C18   A    
C39   H5    S    
C20   C22   A    
C26   C44   S    
Cu2   O2    S    
C20   H16   S    
C41   N1    S    
C4    C10   A    
C42   N2    S    
C24   O6    A    
C31   O12   S    
C16   C25   A    
C15   C17   A    
Cu1   O5    S    
C6    C30   A    
C25   C43   S    
C3    C5    A    
C22   H14   S    
C29   O9    S    
Cu1   O4    S    
C12   C24   S    
C7    C25   A    
C13   C17   A    
C33   C41   A    
C11   C35   A    
C7    H7    S    
C37   C39   A    
C38   C40   A    
C24   O8    A    
Cu1   O8    S    
Cu1   N4    S    
C40   H6    S    
C11   C23   S    
C33   C35   A    
Cu2   O6    S    
C34   C36   A    
C12   C38   A    
Cu2   O7    S    
C38   H2    S    
C9    C31   A    
C43   N5    T    
C10   C32   A    
Cu1   O1    S    
N3    N4    D    
C13   C16   A    
C27   C28   D    
C1    C27   S    
C14   C15   A    
C2    C28   S    
H4    N4    S    
C2    O4    A    
C37   H1    S    
H3    N3    S    
C28   H18   S    
