data_str_m2_o5_o17_f0_pcu.sym.8
_audit_creation_date              2013-03-05T16:34:53-0500
_audit_creation_method            fapswitch 2.2
_symmetry_space_group_name_H-M    P1
_symmetry_Int_Tables_number       1
_space_group_crystal_system       triclinic
_cell_length_a                    15.114821
_cell_length_b                    9.121385
_cell_length_c                    7.775334
_cell_angle_alpha                 90.325211
_cell_angle_beta                  90.010393
_cell_angle_gamma                 89.442832
_cell_volume                      1071.9025773

loop_
_atom_site_label
_atom_site_type_symbol
_atom_site_description
_atom_site_fract_x
_atom_site_fract_y
_atom_site_fract_z
_atom_type_partial_charge
O1    O     O_R   0.500000 0.288390 0.642760 -0.575614
O2    O     O_R   0.500000 0.711610 0.357240 -0.597867
O3    O     O_R   0.500000 0.711610 0.642760 -0.565260
O4    O     O_R   0.500000 0.288390 0.357240 -0.557354
C1    C     C_R   0.501121 0.219941 0.499616 0.976764
C2    C     C_R   0.500258 0.780041 0.500258 0.889673
O5    O     O_R   0.370260 0.500000 0.642800 -0.531371
O6    O     O_R   0.629740 0.500000 0.357200 -0.566518
O7    O     O_R   0.629740 0.500000 0.642800 -0.545435
O8    O     O_R   0.370260 0.500000 0.357200 -0.571253
C3    C     C_R   0.328312 0.507649 0.500544 0.955382
C4    C     C_R   0.671532 0.507050 0.500535 0.954345
Cu1   Cu    Cu3+1 0.500000 0.500000 0.669080 1.147086
Cu2   Cu    Cu3+1 0.500000 0.500000 0.330920 1.137161
N1    N     N_1   0.500000 0.500000 0.076820 -0.014407
N2    N     N_1   0.500000 0.500000 0.923180 -0.008199
C5    C     C_R   0.813074 0.638077 0.560394 0.261905
C6    C     C_R   0.185637 0.391656 0.425544 0.258325
C7    C     C_R   0.815523 0.390183 0.429970 0.247207
C8    C     C_R   0.184669 0.635642 0.565529 0.313516
C9    C     C_R   0.768397 0.510982 0.500955 -0.286676
C10   C     C_R   0.231215 0.510742 0.500916 -0.265427
C11   C     C_R   0.907204 0.401988 0.402369 0.005633
C12   C     C_R   0.092351 0.645702 0.536189 -0.000798
C13   C     C_R   0.905358 0.646825 0.532968 -0.010174
C14   C     C_R   0.093606 0.403013 0.400199 -0.014983
C15   C     C_R   0.952710 0.524582 0.467263 0.017590
C16   C     C_R   0.046575 0.524605 0.467369 0.014631
C17   C     C_R   0.955019 0.297769 0.305657 -0.117076
C18   C     C_R   0.043931 0.775777 0.562785 -0.094389
C19   C     C_R   0.952267 0.776747 0.559236 -0.142472
C20   C     C_R   0.046796 0.298692 0.303974 -0.151880
C21   C     C_1   0.501030 0.065245 0.499376 0.010239
C22   C     C_1   0.500683 0.934678 0.500228 -0.009410
H1    H     H_    0.922384 0.217049 0.226541 0.212273
H2    H     H_    0.075294 0.879779 0.577975 0.205302
H3    H     H_    0.919600 0.881661 0.570102 0.245441
H4    H     H_    0.080269 0.218330 0.224144 0.227541
S1    S     S_3+6 0.754152 0.780599 0.675656 0.031554
O9    O     O_2   0.704038 0.870868 0.546875 -0.226552
O10   O     O_2   0.689392 0.718037 0.801093 -0.268510
O11   O     O_3   0.819809 0.891738 0.791390 -0.499998
H5    H     H_    0.845647 0.828353 0.881858 0.359560
S2    S     S_3+6 0.241828 0.220144 0.392922 0.044046
O12   O     O_2   0.283906 0.218213 0.217873 -0.223158
O13   O     O_2   0.312037 0.199886 0.527267 -0.298593
O14   O     O_3   0.172985 0.077638 0.409284 -0.486666
H6    H     H_    0.144260 0.092413 0.522550 0.356556
S3    S     S_3+6 0.761213 0.217622 0.407405 0.034990
O15   O     O_2   0.709101 0.216248 0.242856 -0.237242
O16   O     O_2   0.824883 0.090092 0.406814 -0.268471
O17   O     O_3   0.691939 0.195188 0.573857 -0.521062
H7    H     H_    0.730396 0.194605 0.677034 0.381916
S4    S     S_3+6 0.241575 0.770124 0.693917 0.033077
O18   O     O_2   0.301408 0.855397 0.578162 -0.283006
O19   O     O_2   0.180610 0.874816 0.786642 -0.268571
O20   O     O_3   0.302451 0.687668 0.847052 -0.494264
H8    H     H_    0.343022 0.764259 0.890055 0.380941

loop_
_geom_bond_atom_site_label_1
_geom_bond_atom_site_label_2
_geom_bond_distance
_ccdc_geom_bond_type
C13   C19   1.400845 A    
S4    O18   1.501614 D    
C7    C11   1.407548 A    
C14   C20   1.403801 A    
C6    S2    1.789645 S    
C13   C15   1.412339 A    
C12   C16   1.411785 A    
C17   H1    1.079647 S    
C3    C10   1.467598 S    
C14   C16   1.409399 A    
O14   H6    0.989914 S    
O3    Cu1   1.942150 S    
S2    O14   1.678316 S    
C18   H2    1.070535 S    
O6    C4    1.282550 A    
S3    O17   1.679551 S    
C5    C13   1.414183 A    
O3    C2    1.274832 A    
Cu2   N1    1.975712 S    
C21   C22   1.191063 T    
S1    O10   1.500837 D    
Cu1   Cu2   2.629308 S    
S2    O12   1.502370 D    
O5    C3    1.276736 A    
C1    C21   1.411053 S    
O20   H8    0.990717 S    
O2    C2    1.272147 A    
O1    C1    1.273093 A    
C11   C17   1.403624 A    
C15   C16   1.418753 A    
C5    S1    1.803018 S    
C7    C9    1.415651 A    
C8    C10   1.422438 A    
C17   C20   1.387363 A    
C20   H4    1.079946 S    
C11   C15   1.409450 A    
O4    Cu2   1.942151 S    
C18   C19   1.385690 A    
O2    Cu2   1.939839 S    
O7    C4    1.276161 A    
S4    O19   1.502029 D    
C7    S3    1.789979 S    
C12   C18   1.402305 A    
O1    Cu1   1.939840 S    
O11   H5    0.990813 S    
N1    N2    1.194603 T    
C2    C22   1.410582 S    
O5    Cu1   1.971579 S    
O17   H7    0.990611 S    
C8    S4    1.802034 S    
S3    O15   1.502382 D    
O8    C3    1.283592 A    
Cu1   N2    1.975712 S    
S1    O9    1.500426 D    
O7    Cu1   1.971651 S    
S1    O11   1.682616 S    
O6    Cu2   1.971577 S    
S2    O13   1.499802 D    
C6    C10   1.416016 A    
C4    C9    1.464881 S    
C8    C12   1.416038 A    
C5    C9    1.422176 A    
C19   H3    1.075462 S    
O8    Cu2   1.971652 S    
O4    C1    1.274055 A    
S3    O16   1.502489 D    
S4    O20   1.681170 S    
C6    C14   1.407793 A    
