data_str_m12_o9_o22_f0_bcu.sym.64
_audit_creation_date              2012-12-11T17:45:31-0500
_audit_creation_method            fapswitch 2.2
_symmetry_space_group_name_H-M    P1
_symmetry_Int_Tables_number       1
_space_group_crystal_system       triclinic
_cell_length_a                    14.950399
_cell_length_b                    14.900488
_cell_length_c                    15.136154
_cell_angle_alpha                 110.193624
_cell_angle_beta                  109.309028
_cell_angle_gamma                 109.056069
_cell_volume                      2590.78597297

loop_
_atom_site_label
_atom_site_type_symbol
_atom_type_description
_atom_site_fract_x
_atom_site_fract_y
_atom_site_fract_z
_atom_type_partial_charge
C1    C     C_R   0.973112 0.248211 0.061758 -0.123105
C2    C     C_R   0.325842 0.792177 0.328062 0.053158
C3    C     C_R   0.297668 0.498411 0.927606 -0.009707
C4    C     C_R   0.945029 0.501745 0.304862 0.057929
C5    C     C_R   0.686294 0.406604 0.930516 -0.144066
C6    C     C_R   0.024314 0.593692 0.782437 -0.108688
C7    C     C_R   0.795420 0.194562 0.703631 -0.147923
C8    C     C_R   0.000765 0.802363 0.097386 -0.147932
C9    C     C_R   0.095719 0.807980 0.011754 -0.149216
C10   C     C_R   0.705955 0.192773 0.794784 -0.136154
C11   C     C_R   0.775984 0.590910 0.021896 -0.138232
C12   C     C_R   0.315695 0.760931 0.225104 -0.133195
C13   C     C_R   0.942294 0.409636 0.685553 -0.137004
C14   C     C_R   0.673675 0.497668 0.945016 -0.010228
C15   C     C_R   0.960753 0.504617 0.679213 0.042916
C16   C     C_R   0.706955 0.126630 0.704490 0.069825
C17   C     C_R   0.066060 0.871417 0.076639 0.071802
C18   C     C_R   0.612190 0.279453 0.097602 -0.124422
C19   C     C_R   0.696336 0.364940 0.201804 -0.152491
C20   C     C_R   0.739892 0.341822 0.283628 0.119815
C21   C     C_R   0.689412 0.232495 0.261353 -0.159904
C22   C     C_R   0.600045 0.148432 0.158757 -0.118350
C23   C     C_R   0.206630 0.407785 0.900798 -0.145462
C24   C     C_R   0.562802 0.171567 0.076367 -0.084065
C25   C     C_R   0.850519 0.434356 0.485704 -0.251765
C26   C     C_R   0.946811 0.514276 0.584886 0.075482
C27   C     C_R   0.033519 0.596822 0.590835 0.013064
C28   C     C_R   0.023490 0.593125 0.496531 -0.250815
C29   C     C_R   0.932087 0.508596 0.396561 0.067445
C30   C     C_R   0.841367 0.429885 0.389263 0.024682
C31   C     C_R   0.164413 0.786762 0.753912 -0.202797
C32   C     C_R   0.268580 0.866273 0.843400 -0.112344
C33   C     C_R   0.352620 0.841134 0.865962 -0.103666
C34   C     C_R   0.999027 0.592434 0.299949 -0.167443
C35   C     C_R   0.332465 0.736324 0.799648 -0.124380
C36   C     C_R   0.227508 0.655188 0.712282 -0.134652
C37   C     C_R   0.142425 0.679708 0.689254 0.127530
C38   C     C_R   0.258615 0.042562 0.544717 -0.130578
C39   C     C_R   0.333910 0.014004 0.527564 -0.130334
C40   C     C_R   0.343827 0.928972 0.542292 0.108853
C41   C     C_R   0.278818 0.873901 0.575783 -0.182286
C42   C     C_R   0.199286 0.898614 0.586560 -0.117006
C43   C     C_R   0.190327 0.983849 0.572655 -0.121166
C44   C     C_R   0.529279 0.969661 0.628683 -0.229288
C45   C     C_R   0.298509 0.590531 0.992843 -0.137221
C46   C     C_R   0.625491 0.008884 0.624898 0.049676
C47   C     C_R   0.625726 0.948098 0.529689 0.031271
C48   C     C_R   0.525737 0.868575 0.434736 -0.243770
C49   C     C_R   0.427550 0.854910 0.433199 0.067890
C50   C     C_R   0.430440 0.906896 0.533038 0.017276
C51   C     C_R   0.748952 0.020383 0.464103 -0.223801
C52   C     C_R   0.853749 0.065742 0.477675 -0.097846
C53   C     C_R   0.936476 0.060560 0.549757 -0.109567
C54   C     C_R   0.914112 0.008545 0.607071 -0.136482
C55   C     C_R   0.810151 0.965222 0.595626 -0.144006
C56   C     C_R   0.913166 0.408903 0.212131 -0.135652
C57   C     C_R   0.727438 0.972536 0.525322 0.122628
C58   C     C_3   0.468584 0.380301 0.843187 -0.404032
C59   C     C_3   0.364322 0.382829 0.834498 -0.412550
C60   C     C_3   0.576940 0.527804 0.041710 -0.403221
C61   C     C_3   0.553802 0.578432 0.894573 -0.398080
C62   C     C_3   0.570300 0.496155 0.929853 0.401700
C63   C     C_3   0.393856 0.497270 0.921780 0.405094
C64   C     C_3   0.473319 0.525957 0.036199 -0.393452
C65   C     C_3   0.451152 0.582485 0.894358 -0.416366
C66   C     C_R   0.186414 0.057289 0.818666 -0.131691
C67   C     C_R   0.221259 0.754061 0.313511 -0.123138
C68   C     C_R   0.141838 0.055911 0.885791 -0.189359
C69   C     C_R   0.201951 0.139565 0.995303 0.114360
C70   C     C_R   0.305893 0.225691 0.036628 -0.144609
C71   C     C_R   0.349719 0.226702 0.968541 -0.142771
C72   C     C_R   0.291225 0.141374 0.860218 -0.118026
C73   C     C_R   0.173188 0.044713 0.090956 -0.233496
C74   C     C_R   0.103368 0.990405 0.120038 0.050259
C75   C     C_R   0.055808 0.045418 0.168270 0.047705
C76   C     C_R   0.061289 0.138132 0.162664 -0.240256
C77   C     C_R   0.097662 0.166272 0.096656 0.056838
C78   C     C_R   0.067257 0.250942 0.973190 -0.139429
C79   C     C_R   0.162645 0.124502 0.068249 0.028077
C80   C     C_R   0.873883 0.959012 0.153104 -0.255186
C81   C     C_R   0.806480 0.908234 0.187212 0.291576
C82   C     C_R   0.853527 0.899835 0.278778 -0.145674
C83   C     C_R   0.966746 0.947204 0.339007 -0.179291
C84   C     C_R   0.034183 0.001562 0.307494 -0.177708
C85   C     C_R   0.987488 0.003021 0.211432 0.091399
C86   C     C_R   0.051038 0.222168 0.047488 0.057878
H1    H     H_    0.938162 0.235702 0.111088 0.092906
H2    H     H_    0.047749 0.678457 0.807934 0.112695
H3    H     H_    0.831465 0.173045 0.655451 0.135156
H4    H     H_    0.973354 0.821506 0.154351 0.128889
H5    H     H_    0.156302 0.837296 0.989683 0.098952
H6    H     H_    0.658719 0.166251 0.830488 0.087780
H7    H     H_    0.794597 0.675722 0.057312 0.098164
H8    H     H_    0.896942 0.325204 0.619375 0.102767
H9    H     H_    0.496159 0.105986 0.995924 0.104204
H10   H     H_    0.586490 0.296730 0.032836 0.094803
H11   H     H_    0.731477 0.448320 0.216697 0.114755
H12   H     H_    0.380175 0.776353 0.205250 0.094898
H13   H     H_    0.720633 0.211431 0.322078 0.102449
H14   H     H_    0.561194 0.064829 0.142218 0.110914
H15   H     H_    0.784035 0.374200 0.483881 0.128827
H16   H     H_    0.093543 0.651636 0.501068 0.131281
H17   H     H_    0.100129 0.807538 0.736124 0.108766
H18   H     H_    0.284578 0.947575 0.894976 0.131165
H19   H     H_    0.433664 0.903052 0.934199 0.097303
H20   H     H_    0.398881 0.718932 0.815423 0.104779
H21   H     H_    0.212995 0.574238 0.661327 0.106450
H22   H     H_    0.131206 0.005294 0.584644 0.091847
H23   H     H_    0.173819 0.322442 0.842671 0.098938
H24   H     H_    0.253323 0.110264 0.536601 0.104121
H25   H     H_    0.386342 0.059678 0.505389 0.111662
H26   H     H_    0.287461 0.809935 0.589871 0.126577
H27   H     H_    0.144904 0.852235 0.606207 0.116069
H28   H     H_    0.527881 0.007699 0.702868 0.125713
H29   H     H_    0.525654 0.824621 0.360858 0.123768
H30   H     H_    0.687546 0.031321 0.413673 0.125806
H31   H     H_    0.871364 0.106809 0.433938 0.127063
H32   H     H_    0.018037 0.097457 0.561632 0.101774
H33   H     H_    0.978013 0.004589 0.662729 0.111971
H34   H     H_    0.022246 0.676735 0.352228 0.108091
H35   H     H_    0.795317 0.930155 0.644636 0.111199
H36   H     H_    0.473076 0.318210 0.866217 0.142743
H37   H     H_    0.464024 0.353425 0.762737 0.156240
H38   H     H_    0.311524 0.364771 0.751756 0.153108
H39   H     H_    0.318024 0.316466 0.844693 0.165576
H40   H     H_    0.589793 0.469900 0.068101 0.151814
H41   H     H_    0.433948 0.465160 0.057002 0.161822
H42   H     H_    0.626864 0.661608 0.948066 0.141569
H43   H     H_    0.542572 0.551229 0.811483 0.158517
H44   H     H_    0.393471 0.562153 0.812471 0.152234
H45   H     H_    0.354734 0.675606 0.023441 0.095210
H46   H     H_    0.474628 0.666786 0.953360 0.158192
H47   H     H_    0.647563 0.611568 0.105479 0.150343
H48   H     H_    0.495517 0.608361 0.099073 0.155463
H49   H     H_    0.326508 0.141086 0.808288 0.124082
H50   H     H_    0.140180 0.991164 0.735550 0.106491
H51   H     H_    0.062153 0.987666 0.853687 0.117270
H52   H     H_    0.353625 0.289851 0.121459 0.116839
H53   H     H_    0.428982 0.293707 0.999956 0.116322
H54   H     H_    0.221573 0.012572 0.066525 0.127003
H55   H     H_    0.023480 0.177944 0.198561 0.128277
H56   H     H_    0.860466 0.324118 0.185386 0.111548
H57   H     H_    0.838033 0.961498 0.079557 0.122439
H58   H     H_    0.802471 0.856817 0.303684 0.134643
H59   H     H_    0.001551 0.939368 0.408723 0.136187
H60   H     H_    0.121498 0.035352 0.352799 0.124765
H61   H     H_    0.195840 0.755084 0.371837 0.119791
H62   H     H_    0.121861 0.245328 0.942953 0.126253
H63   H     H_    0.624672 0.320577 0.879532 0.096576
N1    N     N_R   0.947080 0.293830 0.002870 -0.041337
N2    N     N_R   0.054040 0.556820 0.847890 -0.039897
N3    N     N_R   0.848290 0.293830 0.791110 -0.042223
N4    N     N_R   0.995680 0.706170 0.053910 -0.040437
N5    N     N_R   0.052920 0.706170 0.997130 -0.041307
N6    N     N_R   0.791050 0.293830 0.847890 -0.038692
N7    N     N_R   0.846330 0.556820 0.053910 -0.036773
N8    N     N_R   0.997640 0.443180 0.791110 -0.039848
N9    N     N_R   0.208950 0.706170 0.152110 -0.039981
N10   N     N_R   0.153670 0.443180 0.946090 -0.036714
N11   N     N_R   0.002360 0.556820 0.208890 -0.038384
N12   N     N_R   0.210070 0.556820 0.002870 -0.034838
N13   N     N_R   0.945960 0.443180 0.152110 -0.039476
N14   N     N_R   0.151710 0.706170 0.208890 -0.042270
N15   N     N_R   0.004320 0.293830 0.946090 -0.041774
N16   N     N_R   0.789930 0.443180 0.997130 -0.035837
Ni1   Ni    Ni4+2 0.869690 0.369690 0.000000 0.211329
Ni2   Ni    Ni4+2 0.130310 0.630310 0.000000 0.217297
Ni3   Ni    Ni4+2 0.000970 0.369690 0.869780 0.215185
Ni4   Ni    Ni4+2 0.999030 0.630310 0.130220 0.213387
C87   C     C_3   0.684434 0.856939 0.122437 -0.420363
C88   C     C_3   0.640254 0.916504 0.184031 -0.947255
H64   H     H_    0.691263 0.007210 0.223569 0.267153
H65   H     H_    0.555083 0.890026 0.126861 0.243878
H66   H     H_    0.638287 0.893327 0.245701 0.260813
H67   H     H_    0.659682 0.856062 0.044175 0.192014
H68   H     H_    0.646452 0.771024 0.104790 0.191759

loop_
_geom_bond_atom_site_label_1
_geom_bond_atom_site_label_2
_ccdc_geom_bond_type
C58   C62   S    
C66   C68   A    
C88   H64   S    
C55   H35   S    
C1    H1    S    
N16   Ni1   S    
C72   H49   S    
C18   H10   S    
C73   C74   A    
C54   C55   A    
C3    C23   A    
C35   C36   A    
C2    C12   A    
C9    H5    S    
C63   C65   S    
C65   H44   S    
C19   H11   S    
C6    H2    S    
C87   H68   S    
C53   C54   A    
C78   N15   A    
C88   H65   S    
C26   C27   A    
C80   C85   A    
C18   C24   A    
N2    N8    A    
C28   C29   A    
C38   C39   A    
C21   H13   S    
C11   C14   A    
N2    Ni2   S    
C87   C88   S    
N6    Ni1   S    
C14   C62   S    
C56   N13   A    
N7    Ni4   S    
C25   C30   A    
C5    H63   S    
N10   Ni3   S    
C60   C62   S    
C18   C19   A    
C41   C42   A    
C45   N12   A    
C6    C15   A    
C83   H59   S    
C75   C85   S    
C66   C72   A    
C83   C84   A    
C68   C69   A    
C41   H26   S    
C23   N10   A    
N11   Ni4   S    
C32   H18   S    
C70   C71   A    
C51   C57   A    
C5    N16   A    
C38   H24   S    
C12   H12   S    
C4    C29   S    
C78   H62   S    
C56   H56   S    
C52   H31   S    
C78   C86   A    
C39   H25   S    
C10   H6    S    
N13   Ni1   S    
C21   C22   A    
C4    C56   A    
C36   H21   S    
C68   H51   S    
C61   C62   S    
N8    Ni3   S    
C13   N8    A    
N3    Ni3   S    
C44   C46   A    
N9    Ni2   S    
C81   C82   A    
C64   H48   S    
C87   H67   S    
C77   C79   A    
C34   H34   S    
C23   H23   S    
C88   H66   S    
C4    C34   A    
C58   H36   S    
N1    Ni1   S    
C22   H14   S    
C74   C75   A    
C51   C52   A    
C34   N11   A    
N15   Ni3   S    
C33   H19   S    
C76   C77   A    
C28   H16   S    
C82   H58   S    
C2    C67   A    
C24   H9    S    
C16   C46   S    
C39   C40   A    
C11   H7    S    
C53   H32   S    
C15   C26   S    
C71   H53   S    
C58   C59   S    
C76   H55   S    
C3    C45   A    
C31   C37   A    
C31   H17   S    
C75   C76   A    
C29   C30   A    
C2    C49   S    
C61   C65   S    
C47   C57   S    
C42   H27   S    
C47   C48   A    
N3    N6    A    
C80   H57   S    
N10   N12   A    
C58   H37   S    
C1    N1    A    
C81   C87   S    
C84   C85   A    
C8    N4    A    
C5    C14   A    
N12   Ni2   S    
C11   N7    A    
C48   H29   S    
C66   H50   S    
C6    N2    A    
N9    N14   A    
C9    C17   A    
C48   C49   A    
C77   C86   S    
C70   H52   S    
C3    C63   S    
C55   C57   A    
C67   H61   S    
C17   C74   S    
C59   H38   S    
C22   C24   A    
N5    Ni2   S    
C69   C79   S    
C8    H4    S    
C42   C43   A    
C65   H46   S    
C52   C53   A    
C44   C50   A    
C1    C86   A    
C46   C47   A    
C36   C37   A    
C31   C32   A    
C7    C16   A    
C51   H30   S    
C80   C81   A    
C73   C79   A    
C10   N6    A    
C9    N5    A    
C45   H45   S    
C73   H54   S    
C61   H43   S    
C59   H39   S    
N1    N15   A    
C59   C63   S    
C8    C17   A    
C13   H8    S    
C60   C64   S    
C12   N9    A    
C32   C33   A    
C19   C20   A    
C13   C15   A    
C25   C26   A    
C38   C43   A    
C35   H20   S    
C10   C16   A    
C20   C30   S    
C64   H41   S    
C7    N3    A    
C25   H15   S    
N7    N16   A    
C27   C37   S    
C40   C50   S    
C60   H40   S    
C33   C35   A    
C61   H42   S    
C43   H22   S    
C69   C70   A    
N14   Ni4   S    
C44   H28   S    
C63   C64   S    
C67   N14   A    
C71   C72   A    
C20   C21   A    
C49   C50   A    
N4    Ni4   S    
C27   C28   A    
C40   C41   A    
C84   H60   S    
C82   C83   A    
N4    N5    A    
C54   H33   S    
C60   H47   S    
N11   N13   A    
C7    H3    S    
