data_str_m2_o41_o41_f0_fof.sym.85
_audit_creation_date              2013-03-05T15:41:13-0500
_audit_creation_method            fapswitch 2.2
_symmetry_space_group_name_H-M    P1
_symmetry_Int_Tables_number       1
_space_group_crystal_system       triclinic
_cell_length_a                    16.874953
_cell_length_b                    16.869791
_cell_length_c                    16.696535
_cell_angle_alpha                 68.080648
_cell_angle_beta                  67.912007
_cell_angle_gamma                 68.403013
_cell_volume                      3939.94035029

loop_
_atom_site_label
_atom_site_type_symbol
_atom_site_description
_atom_site_fract_x
_atom_site_fract_y
_atom_site_fract_z
_atom_type_partial_charge
O1    O     O_R   0.124540 0.978640 0.385460 -0.563190
O2    O     O_R   0.875460 0.021360 0.614540 -0.609707
O3    O     O_R   0.978640 0.385460 0.124540 -0.544551
O4    O     O_R   0.021360 0.614540 0.875460 -0.578554
O5    O     O_R   0.385460 0.124540 0.978640 -0.524373
O6    O     O_R   0.614540 0.875460 0.021360 -0.570844
O7    O     O_R   0.614540 0.021360 0.875460 -0.570903
O8    O     O_R   0.385460 0.978640 0.124540 -0.599053
O9    O     O_R   0.875460 0.614540 0.021360 -0.517467
O10   O     O_R   0.124540 0.385460 0.978640 -0.575457
O11   O     O_R   0.021360 0.875460 0.614540 -0.573044
O12   O     O_R   0.978640 0.124540 0.385460 -0.573421
C1    C     C_R   0.308227 0.016953 0.426255 -0.065774
C2    C     C_R   0.678498 0.045003 0.547417 -0.017900
C3    C     C_R   0.935175 0.456071 0.328342 -0.060818
C4    C     C_R   0.038357 0.550646 0.676719 -0.055530
C5    C     C_R   0.425331 0.308683 0.015790 -0.074711
C6    C     C_R   0.547846 0.678013 0.044265 -0.049458
C7    C     C_R   0.543948 0.063653 0.672233 -0.076509
C8    C     C_R   0.449706 0.959652 0.323637 -0.010469
C9    C     C_R   0.672760 0.545492 0.056448 -0.071568
C10   C     C_R   0.321171 0.449674 0.963489 -0.045929
C11   C     C_R   0.982509 0.691988 0.573768 -0.077468
C12   C     C_R   0.952146 0.322029 0.453900 -0.025477
Cu1   Cu    Cu3+1 0.995180 0.995180 0.424630 1.130135
Cu2   Cu    Cu3+1 0.004820 0.004820 0.575370 1.097910
Cu3   Cu    Cu3+1 0.995180 0.424630 0.995180 1.120456
Cu4   Cu    Cu3+1 0.004820 0.575370 0.004820 1.116704
Cu5   Cu    Cu3+1 0.424630 0.995180 0.995180 1.092727
Cu6   Cu    Cu3+1 0.575370 0.004820 0.004820 1.102893
C13   C     C_R   0.015857 0.830691 0.569150 0.872751
C14   C     C_R   0.971242 0.171721 0.435523 0.880167
C15   C     C_R   0.828476 0.564973 0.026100 0.871983
C16   C     C_R   0.171761 0.435537 0.971617 0.827739
C17   C     C_R   0.563381 0.031482 0.827911 0.835426
C18   C     C_R   0.435896 0.970360 0.172099 0.895161
C19   C     C_R   0.431323 0.169593 0.982782 0.893400
C20   C     C_R   0.566310 0.829213 0.023025 0.827014
C21   C     C_R   0.968413 0.436433 0.172365 0.840816
C22   C     C_R   0.029050 0.564303 0.827866 0.820868
C23   C     C_R   0.169234 0.984362 0.430720 0.872538
C24   C     C_R   0.828329 0.028328 0.564867 0.869850
O13   O     O_R   0.013780 0.867370 0.487190 -0.555507
O14   O     O_R   0.986220 0.132630 0.512810 -0.515555
O15   O     O_R   0.867370 0.487190 0.013780 -0.566648
O16   O     O_R   0.132630 0.512810 0.986220 -0.550500
O17   O     O_R   0.487190 0.013780 0.867370 -0.564352
O18   O     O_R   0.512810 0.986220 0.132630 -0.503086
O19   O     O_R   0.512810 0.132630 0.986220 -0.580046
O20   O     O_R   0.487190 0.867370 0.013780 -0.581312
O21   O     O_R   0.986220 0.512810 0.132630 -0.559139
O22   O     O_R   0.013780 0.487190 0.867370 -0.554748
O23   O     O_R   0.132630 0.986220 0.512810 -0.562137
O24   O     O_R   0.867370 0.013780 0.487190 -0.512939
C25   C     C_R   0.402110 0.994046 0.399191 -0.001533
C26   C     C_R   0.587933 0.047041 0.587231 -0.020460
C27   C     C_R   0.950590 0.412416 0.413793 -0.014495
C28   C     C_R   0.004481 0.598221 0.601108 -0.020370
C29   C     C_R   0.397034 0.402267 0.995742 -0.010110
C30   C     C_R   0.586901 0.588122 0.044604 -0.015613
C31   C     C_R   0.263930 0.986143 0.389770 -0.072944
C32   C     C_R   0.729435 0.045955 0.598819 -0.075259
C33   C     C_R   0.944830 0.403424 0.273485 -0.086535
C34   C     C_R   0.042116 0.599513 0.728414 -0.094158
C35   C     C_R   0.389696 0.264509 0.984612 -0.066798
C36   C     C_R   0.601993 0.731507 0.033724 -0.089622
C37   C     C_R   0.596457 0.053655 0.727335 -0.054356
C38   C     C_R   0.400695 0.956775 0.271598 -0.071535
C39   C     C_R   0.729899 0.599912 0.038557 -0.049532
C40   C     C_R   0.270208 0.400349 0.959399 -0.104926
C41   C     C_R   0.013830 0.736061 0.610038 -0.079121
C42   C     C_R   0.951705 0.270954 0.402658 -0.067211
C43   C     C_R   0.449557 0.095826 0.695135 0.300851
C44   C     C_R   0.544120 0.930854 0.301715 0.325607
C45   C     C_R   0.930013 0.737360 0.511837 0.315420
C46   C     C_R   0.947180 0.288079 0.546947 0.357172
C47   C     C_R   0.695692 0.450781 0.086783 0.321124
C48   C     C_R   0.298545 0.544249 0.937268 0.311235
C49   C     C_R   0.262929 0.070021 0.487943 0.319743
C50   C     C_R   0.712588 0.049483 0.454346 0.365141
C51   C     C_R   0.486273 0.262367 0.068649 0.299160
C52   C     C_R   0.455069 0.710680 0.053995 0.290806
C53   C     C_R   0.903717 0.550457 0.304996 0.296426
C54   C     C_R   0.066368 0.456328 0.698697 0.312867
C55   C     C_R   0.311629 0.955033 0.313012 0.057920
C56   C     C_R   0.686149 0.054458 0.687259 0.067634
C57   C     C_R   0.940542 0.314189 0.315518 0.075900
C58   C     C_R   0.045134 0.688159 0.686518 0.062738
C59   C     C_R   0.312209 0.311691 0.955798 0.076787
C60   C     C_R   0.694306 0.692857 0.021070 0.094096
H1    H     H_    0.271524 0.162695 0.709465 0.210200
H2    H     H_    0.722219 0.923128 0.250581 0.199934
H3    H     H_    0.848797 0.805632 0.374392 0.194439
H4    H     H_    0.020097 0.208769 0.687954 0.203512
H5    H     H_    0.721710 0.269539 0.137037 0.223773
H6    H     H_    0.247383 0.721186 0.934109 0.204111
H7    H     H_    0.194876 0.153725 0.623778 0.195066
H8    H     H_    0.791798 0.977778 0.311873 0.204002
H9    H     H_    0.640625 0.192028 0.122634 0.206165
H10   H     H_    0.312724 0.790469 0.985400 0.183568
H11   H     H_    0.839399 0.728834 0.289116 0.210289
H12   H     H_    0.074635 0.278292 0.749083 0.203336
C61   C     C_R   0.674858 0.013214 0.418443 0.031834
C62   C     C_R   0.308493 0.077424 0.539896 0.004546
C63   C     C_R   0.040536 0.411352 0.659912 -0.000568
C64   C     C_R   0.908755 0.598119 0.356714 0.001105
C65   C     C_R   0.416960 0.673168 0.019746 -0.002080
C66   C     C_R   0.541245 0.307585 0.071250 0.004354
C67   C     C_R   0.589264 0.956452 0.340699 0.032596
C68   C     C_R   0.402016 0.091009 0.643210 -0.001805
C69   C     C_R   0.337058 0.588629 0.964275 -0.011539
C70   C     C_R   0.644865 0.402419 0.081830 -0.007564
C71   C     C_R   0.983379 0.325908 0.582677 0.032149
C72   C     C_R   0.922679 0.691797 0.459779 0.006686
C73   C     C_R   0.721965 0.981656 0.342298 -0.128685
C74   C     C_R   0.264695 0.122088 0.607706 -0.154809
C75   C     C_R   0.048194 0.319531 0.693085 -0.188040
C76   C     C_R   0.873720 0.690213 0.340117 -0.144182
C77   C     C_R   0.341169 0.720625 0.989504 -0.140379
C78   C     C_R   0.616101 0.263007 0.104260 -0.143817
C79   C     C_R   0.681110 0.949104 0.307135 -0.177920
C80   C     C_R   0.310041 0.127346 0.659057 -0.145839
C81   C     C_R   0.304189 0.680088 0.958385 -0.147631
C82   C     C_R   0.666256 0.309202 0.109910 -0.128033
C83   C     C_R   0.015618 0.278681 0.658079 -0.114665
C84   C     C_R   0.879177 0.735668 0.391303 -0.156709
C85   C     C_R   0.541016 0.991670 0.415288 0.028610
C86   C     C_R   0.447942 0.054376 0.569498 0.028018
C87   C     C_R   0.984959 0.414811 0.542370 0.011940
C88   C     C_R   0.954566 0.598973 0.480240 0.020876
C89   C     C_R   0.411844 0.540335 0.997426 0.023477
C90   C     C_R   0.568568 0.448007 0.051436 0.020652
C91   C     C_R   0.585813 0.011962 0.458674 0.009465
C92   C     C_R   0.401300 0.044396 0.519983 0.019843
C93   C     C_R   0.455959 0.584746 0.017052 0.027857
C94   C     C_R   0.518676 0.401088 0.042829 0.026414
C95   C     C_R   0.005546 0.459544 0.585504 0.025815
C96   C     C_R   0.944353 0.552291 0.430899 0.028243
C97   C     C_R   0.448193 0.008297 0.445864 -0.026462
C98   C     C_R   0.540361 0.037061 0.539086 -0.030122
C99   C     C_R   0.960500 0.460060 0.461843 -0.031326
C100  C     C_R   0.989842 0.552190 0.554631 -0.027972
C101  C     C_R   0.443032 0.448019 0.010926 -0.027759
C102  C     C_R   0.537298 0.539953 0.037892 -0.029598
N1    N     N_3   0.269883 0.917917 0.279985 -0.526501
H13   H     H_    0.246712 0.965327 0.226428 0.266670
H14   H     H_    0.314387 0.861781 0.260703 0.302236
N2    N     N_3   0.731249 0.067435 0.737361 -0.522598
H15   H     H_    0.759295 0.120475 0.700049 0.312684
H16   H     H_    0.777828 0.008832 0.758117 0.247634
N3    N     N_3   0.919623 0.268578 0.271644 -0.469244
H17   H     H_    0.874577 0.233776 0.319310 0.290492
H18   H     H_    0.876747 0.314996 0.235461 0.309539
N4    N     N_3   0.085077 0.728629 0.717896 -0.526729
H19   H     H_    0.141762 0.683036 0.735169 0.305151
H20   H     H_    0.039473 0.751395 0.772648 0.264093
N5    N     N_3   0.279348 0.270207 0.918411 -0.453333
H21   H     H_    0.262466 0.314808 0.860472 0.318820
H22   H     H_    0.225181 0.247978 0.965905 0.262959
N6    N     N_3   0.754637 0.747950 0.982375 -0.553713
H23   H     H_    0.752147 0.776128 0.029678 0.307513
H24   H     H_    0.742323 0.795247 0.923425 0.213852
N7    N     N_R   0.404119 0.146656 0.759741 0.124959
O25   O     O_R   0.336216 0.127040 0.825785 -0.354177
O26   O     O_R   0.433724 0.209751 0.755350 -0.336819
N8    N     N_R   0.591155 0.863967 0.253632 0.111966
O27   O     O_R   0.560236 0.796408 0.274882 -0.314533
O28   O     O_R   0.659265 0.873589 0.183917 -0.354056
N9    N     N_R   0.871106 0.823351 0.514677 0.102929
O29   O     O_R   0.819368 0.837870 0.591223 -0.425071
O30   O     O_R   0.869384 0.887283 0.441197 -0.402512
N10   N     N_R   0.881554 0.240354 0.606547 0.125211
O31   O     O_R   0.815010 0.247926 0.580165 -0.372368
O32   O     O_R   0.880269 0.199814 0.690146 -0.379603
N11   N     N_R   0.758333 0.404935 0.138140 0.106806
O33   O     O_R   0.825273 0.340214 0.115011 -0.382567
O34   O     O_R   0.751060 0.431798 0.204811 -0.337102
N12   N     N_R   0.252575 0.592691 0.868793 0.117029
O35   O     O_R   0.274655 0.563625 0.799220 -0.342560
O36   O     O_R   0.184276 0.660523 0.878693 -0.396789
N13   N     N_R   0.176937 0.129004 0.485250 0.106015
O37   O     O_R   0.162590 0.180389 0.408749 -0.390434
O38   O     O_R   0.112782 0.131045 0.558801 -0.406940
N14   N     N_R   0.757577 0.117029 0.394962 0.122140
O39   O     O_R   0.742921 0.186635 0.420206 -0.364812
O40   O     O_R   0.802106 0.116581 0.312334 -0.370301
N15   N     N_R   0.473205 0.181098 0.136587 0.117305
O41   O     O_R   0.393028 0.172451 0.177747 -0.390808
O42   O     O_R   0.538724 0.118066 0.162207 -0.388874
N16   N     N_R   0.399283 0.755623 0.122727 0.143550
O43   O     O_R   0.430258 0.748462 0.186444 -0.344927
O44   O     O_R   0.315189 0.792534 0.130040 -0.380239
N17   N     N_R   0.852482 0.595681 0.240924 0.121281
O45   O     O_R   0.872007 0.663135 0.174352 -0.353953
O46   O     O_R   0.787319 0.567693 0.247795 -0.296171
N18   N     N_R   0.133465 0.408961 0.745992 0.116487
O47   O     O_R   0.201813 0.439021 0.723812 -0.333112
O48   O     O_R   0.123156 0.341409 0.815930 -0.388284

loop_
_geom_bond_atom_site_label_1
_geom_bond_atom_site_label_2
_geom_bond_distance
_ccdc_geom_bond_type
C7    C26   1.412541 A    
H5    C82   1.077073 S    
C11   C28   1.415785 A    
C2    C26   1.411754 A    
C95   C100  1.405353 A    
C1    C49   1.427989 A    
C90   C102  1.400303 A    
N16   O43   1.302049 A    
C73   C79   1.394754 A    
O5    C19   1.301513 A    
C15   O15   1.288759 A    
N9    O29   1.301084 A    
C66   C78   1.407063 A    
C21   O21   1.299028 A    
N7    O25   1.301884 A    
C23   C31   1.490053 S    
C17   O17   1.294218 A    
Cu1   O13   1.976201 S    
C44   C67   1.419643 A    
N12   O35   1.301484 A    
Cu2   O14   1.976199 S    
C43   C68   1.423209 A    
C14   C42   1.502046 S    
N13   O37   1.301132 A    
Cu3   O22   1.955730 S    
C35   C59   1.412728 A    
C32   C56   1.415776 A    
Cu4   O16   1.981747 S    
N5    H21   1.043620 S    
C71   C87   1.401883 A    
Cu5   O17   1.953587 S    
H11   C76   1.078866 S    
Cu6   O18   1.953585 S    
N7    O26   1.301371 A    
C55   N1    1.437725 S    
C70   C82   1.407815 A    
C94   C101  1.411566 A    
C89   C93   1.414275 A    
C53   C64   1.422423 A    
C72   C84   1.411839 A    
Cu4   O21   1.955729 S    
C64   C96   1.412637 A    
C87   C99   1.407103 A    
C2    C32   1.432113 A    
C4    C54   1.425002 A    
C25   C97   1.415297 A    
N14   O39   1.301916 A    
O8    C18   1.308583 A    
C46   N10   1.447169 S    
H3    C84   1.072489 S    
C3    C27   1.413927 A    
C65   C93   1.401921 A    
N1    H14   1.042437 S    
H9    C78   1.074972 S    
C62   C74   1.411902 A    
C67   C85   1.414432 A    
C13   O13   1.282449 A    
C20   C36   1.497238 S    
C12   C27   1.412646 A    
N17   O46   1.300824 A    
H1    C80   1.079075 S    
C19   C35   1.500200 S    
C45   N9    1.431475 S    
N3    H17   1.039531 S    
O6    C20   1.306165 A    
C7    C37   1.430825 A    
C48   C69   1.420169 A    
C16   O16   1.295126 A    
C2    C50   1.422482 A    
C16   C40   1.504481 S    
N4    H20   1.044463 S    
O10   Cu3   1.974624 S    
C15   C39   1.505788 S    
O1    Cu1   1.971037 S    
Cu3   O15   1.981748 S    
C13   C41   1.491530 S    
C51   C66   1.421358 A    
O11   C13   1.298165 A    
C47   N11   1.426716 S    
O7    Cu6   1.947287 S    
C57   N3    1.438249 S    
C52   N16   1.445585 S    
N3    H18   1.029601 S    
O9    C15   1.313594 A    
C38   C55   1.404888 A    
C72   C88   1.406024 A    
C1    C31   1.436979 A    
C63   C75   1.410246 A    
C85   C97   1.405328 A    
C8    C25   1.419336 A    
C6    C52   1.421833 A    
C65   C77   1.400634 A    
O4    Cu4   1.948435 S    
C76   C84   1.388308 A    
N10   O32   1.300746 A    
N1    H13   1.044488 S    
O5    Cu5   1.975085 S    
Cu5   O20   1.982633 S    
N13   O38   1.298303 A    
C60   N6    1.439199 S    
C50   C61   1.409503 A    
C69   C81   1.412661 A    
C11   C41   1.437031 A    
C7    C43   1.427723 A    
N8    O28   1.300931 A    
N2    H15   1.042374 S    
C10   C48   1.427835 A    
C9    C30   1.413425 A    
N11   O34   1.300964 A    
C11   C45   1.427837 A    
C92   C97   1.414185 A    
O3    C21   1.306372 A    
C12   C46   1.421860 A    
C3    C53   1.427947 A    
O11   Cu2   1.972633 S    
Cu1   Cu2   2.649591 S    
C22   O22   1.293078 A    
C63   C95   1.413243 A    
C49   N13   1.431989 S    
C9    C39   1.446387 A    
C58   N4    1.437474 S    
C53   N17   1.440360 S    
C47   C70   1.423732 A    
C61   C73   1.401947 A    
O4    C22   1.308000 A    
Cu5   Cu6   2.674866 S    
C86   C92   1.422035 A    
O2    C24   1.299493 A    
C19   O19   1.297853 A    
C28   C100  1.414730 A    
N11   O33   1.302318 A    
C17   C37   1.500405 S    
C90   C94   1.422135 A    
C51   N15   1.445102 S    
C46   C71   1.407694 A    
C14   O14   1.284995 A    
C8    C44   1.425752 A    
O10   C16   1.309083 A    
H10   C77   1.082360 S    
C4    C28   1.418893 A    
C52   C65   1.409736 A    
C70   C90   1.406316 A    
H7    C74   1.072963 S    
C23   O23   1.281495 A    
N4    H19   1.044017 S    
H12   C75   1.075570 S    
C62   C92   1.406432 A    
Cu1   O24   1.973191 S    
C5    C29   1.415339 A    
N18   O48   1.300833 A    
C93   C102  1.405500 A    
O6    Cu6   1.975085 S    
Cu6   O19   1.982634 S    
N6    H24   1.045950 S    
C30   C102  1.418733 A    
O12   C14   1.301109 A    
N8    O27   1.301418 A    
C49   C62   1.418594 A    
C40   C59   1.413372 A    
C54   C63   1.416912 A    
O8    Cu5   1.947286 S    
C39   C60   1.414682 A    
C88   C96   1.421140 A    
Cu2   O23   1.973192 S    
C44   N8    1.444128 S    
C42   C57   1.413156 A    
C89   C101  1.406013 A    
N10   O31   1.302192 A    
C12   C42   1.426304 A    
C68   C80   1.402350 A    
C74   C80   1.388769 A    
H4    C83   1.081208 S    
O1    C23   1.298427 A    
C24   C32   1.497954 S    
C37   C56   1.409052 A    
N16   O44   1.300928 A    
H6    C81   1.075666 S    
C33   C57   1.420263 A    
C48   N12   1.442054 S    
C45   C72   1.418215 A    
C8    C38   1.429253 A    
C85   C91   1.414531 A    
N2    H16   1.045145 S    
N18   O47   1.301428 A    
C96   C99   1.398445 A    
C56   N2    1.437039 S    
O2    Cu2   1.971037 S    
N12   O36   1.300838 A    
C18   C38   1.496357 S    
C59   N5    1.434955 S    
C20   O20   1.291877 A    
C77   C81   1.396528 A    
C6    C36   1.431002 A    
C21   C33   1.508265 S    
C69   C89   1.412290 A    
C5    C35   1.429291 A    
C22   C34   1.497797 S    
C66   C94   1.411811 A    
C27   C99   1.413814 A    
O12   Cu1   1.972633 S    
N6    H23   1.045049 S    
O3    Cu3   1.948433 S    
C31   C55   1.407543 A    
C61   C91   1.401159 A    
N15   O41   1.302036 A    
C43   N7    1.439220 S    
H2    C79   1.075819 S    
C24   O24   1.285434 A    
C67   C79   1.410266 A    
H8    C73   1.081148 S    
C54   N18   1.441995 S    
C26   C98   1.415927 A    
C71   C83   1.401001 A    
O7    C17   1.307850 A    
C36   C60   1.415646 A    
N14   O40   1.300754 A    
C18   O18   1.292747 A    
C5    C51   1.422406 A    
C50   N14   1.443990 S    
C86   C98   1.398285 A    
C10   C29   1.418335 A    
C88   C100  1.413621 A    
C6    C30   1.412330 A    
N15   O42   1.298729 A    
C29   C101  1.413371 A    
C41   C58   1.409003 A    
C87   C95   1.412728 A    
C91   C98   1.407491 A    
N5    H22   1.044101 S    
N17   O45   1.301992 A    
C9    C47   1.430787 A    
Cu3   Cu4   2.673720 S    
C3    C33   1.429303 A    
C4    C34   1.428116 A    
C34   C58   1.405885 A    
C75   C83   1.392824 A    
C10   C40   1.431805 A    
C64   C76   1.402003 A    
C78   C82   1.390333 A    
O9    Cu4   1.974624 S    
C68   C86   1.412514 A    
C1    C25   1.415888 A    
N9    O30   1.298097 A    
