data_str_m2_o13_o25_f0_pcu.sym.195
_audit_creation_date              2012-12-10T17:15:13-0500
_audit_creation_method            fapswitch 2.2
_symmetry_space_group_name_H-M    P1
_symmetry_Int_Tables_number       1
_space_group_crystal_system       triclinic
_cell_length_a                    15.877875
_cell_length_b                    13.162071
_cell_length_c                    11.82225
_cell_angle_alpha                 101.246371
_cell_angle_beta                  93.8423
_cell_angle_gamma                 95.456364
_cell_volume                      2402.97937533

loop_
_atom_site_label
_atom_site_type_symbol
_atom_type_description
_atom_site_fract_x
_atom_site_fract_y
_atom_site_fract_z
_atom_type_partial_charge
C1    C     C_R   0.502338 0.299256 0.476871 0.800803
C2    C     C_R   0.498027 0.700912 0.523052 0.807117
C3    C     C_R   0.426500 0.016796 0.378016 -0.078866
C4    C     C_R   0.571545 0.984053 0.629493 -0.098746
C5    C     C_R   0.455745 0.117576 0.367045 -0.082862
C6    C     C_R   0.538958 0.883097 0.638033 -0.050497
C7    C     C_R   0.545102 0.141766 0.549270 -0.077737
C8    C     C_R   0.462327 0.859730 0.447582 -0.095332
C9    C     C_R   0.531474 0.032319 0.545316 0.050577
C10   C     C_R   0.471389 0.969660 0.458312 0.059601
C11   C     C_R   0.403914 0.422324 0.022851 -0.353892
C12   C     C_R   0.594299 0.583199 0.978197 -0.407217
C13   C     C_R   0.413133 0.427516 0.142428 0.214375
C14   C     C_R   0.583820 0.579394 0.858583 0.229342
C15   C     C_R   0.545464 0.532017 0.156573 0.153982
C16   C     C_R   0.460026 0.458236 0.842129 0.135257
C17   C     C_R   0.536420 0.527742 0.033945 0.011009
C18   C     C_R   0.466659 0.468375 0.965663 0.040954
C19   C     C_R   0.340159 0.499842 0.499795 0.817231
C20   C     C_R   0.659822 0.499526 0.500032 0.834116
C21   C     C_3   0.966359 0.420241 0.553292 -0.006039
C22   C     C_3   0.031950 0.561585 0.440284 0.006950
C23   C     C_3   0.016363 0.395633 0.445010 -0.039988
C24   C     C_3   0.982609 0.586414 0.549135 -0.060917
C25   C     C_1   0.250702 0.497573 0.498957 -0.172805
C26   C     C_1   0.748866 0.496438 0.499571 -0.180016
C27   C     C_3   0.033932 0.512703 0.606980 -0.083368
C28   C     C_3   0.964635 0.468868 0.386821 -0.065422
C29   C     C_3   0.083371 0.488829 0.498179 0.047525
C30   C     C_3   0.915234 0.493454 0.495763 0.048482
C31   C     C_1   0.175127 0.493974 0.498310 -0.013940
C32   C     C_1   0.823983 0.494278 0.498218 -0.058273
C33   C     C_R   0.495998 0.815783 0.538802 -0.136191
C34   C     C_R   0.505044 0.184565 0.460926 -0.122185
Cu1   Cu    Cu3+1 0.506200 0.507730 0.615930 0.997486
Cu2   Cu    Cu3+1 0.493800 0.492270 0.384070 1.004952
H1    H     H_    0.344973 0.384283 0.975530 0.167906
H2    H     H_    0.648528 0.631749 0.027311 0.175175
N1    N     N_R   0.515540 0.519350 0.790140 -0.212727
N2    N     N_R   0.484460 0.480650 0.209860 -0.216076
O1    O     O_R   0.504400 0.354460 0.582000 -0.603938
O2    O     O_R   0.495600 0.645540 0.418000 -0.625459
O3    O     O_R   0.493920 0.341410 0.386200 -0.497087
O4    O     O_R   0.506080 0.658590 0.613800 -0.486895
O5    O     O_R   0.384320 0.506520 0.597880 -0.621705
O6    O     O_R   0.615680 0.493480 0.402120 -0.579279
O7    O     O_R   0.373840 0.493460 0.402080 -0.553885
O8    O     O_R   0.626160 0.506540 0.597920 -0.555333
C35   C     C_R   0.027059 0.285826 0.384045 0.117245
C36   C     C_R   0.954564 0.218259 0.333567 -0.060759
C37   C     C_R   0.962289 0.117896 0.272610 -0.153787
C38   C     C_R   0.042438 0.083750 0.261448 -0.119257
C39   C     C_R   0.114926 0.149660 0.312062 -0.120421
C40   C     C_R   0.107423 0.250094 0.373438 -0.162644
H3    H     H_    0.891914 0.243798 0.340098 0.156128
H4    H     H_    0.906109 0.066824 0.233390 0.129843
H5    H     H_    0.048219 0.006321 0.213382 0.127117
H6    H     H_    0.177094 0.123137 0.303417 0.153627
H7    H     H_    0.164620 0.298542 0.411702 0.142274
C41   C     C_R   0.975233 0.697636 0.608372 0.092733
C42   C     C_R   0.049998 0.765767 0.645017 -0.122114
C43   C     C_R   0.046107 0.868130 0.703140 -0.143832
C44   C     C_R   0.967606 0.903412 0.725948 -0.117248
C45   C     C_R   0.892899 0.836456 0.690193 -0.133814
C46   C     C_R   0.896499 0.734153 0.631387 -0.158451
H8    H     H_    0.111481 0.739239 0.629238 0.153335
H9    H     H_    0.104022 0.919904 0.731101 0.136072
H10   H     H_    0.964795 0.982469 0.771710 0.124605
H11   H     H_    0.832042 0.863535 0.708575 0.155024
H12   H     H_    0.837690 0.684632 0.606028 0.151903
C47   C     C_2   0.930290 0.340997 0.617585 0.302406
H13   H     H_    0.952752 0.344584 0.707113 0.072310
O9    O     O_2   0.875642 0.271896 0.569396 -0.586844
C48   C     C_2   0.064360 0.642388 0.375332 0.304699
H14   H     H_    0.019905 0.685996 0.336411 0.077911
O10   O     O_2   0.140106 0.659755 0.366258 -0.592261
C49   C     C_R   0.934796 0.440077 0.259195 0.076700
C50   C     C_R   0.995538 0.426841 0.177726 -0.138630
C51   C     C_R   0.970119 0.391987 0.059883 -0.137191
C52   C     C_R   0.883945 0.370153 0.022087 -0.152781
C53   C     C_R   0.823106 0.382544 0.102269 -0.107368
C54   C     C_R   0.848224 0.417436 0.220126 -0.090688
H15   H     H_    0.062719 0.441542 0.205766 0.140421
H16   H     H_    0.017257 0.380775 0.997926 0.143702
H17   H     H_    0.864460 0.342687 0.930883 0.134196
H18   H     H_    0.756308 0.363691 0.073631 0.147243
H19   H     H_    0.799613 0.423522 0.279532 0.167148
C55   C     C_R   0.066470 0.532623 0.733526 0.096460
C56   C     C_R   0.016750 0.580171 0.818488 -0.150402
C57   C     C_R   0.045669 0.598535 0.935751 -0.128009
C58   C     C_R   0.123327 0.567017 0.969634 -0.134072
C59   C     C_R   0.171573 0.515848 0.886348 -0.149077
C60   C     C_R   0.143282 0.498314 0.768912 -0.130591
H20   H     H_    0.955366 0.602713 0.794295 0.134913
H21   H     H_    0.007354 0.636030 0.000499 0.136277
H22   H     H_    0.145111 0.580271 0.060502 0.132004
H23   H     H_    0.230547 0.488688 0.912673 0.114073
H24   H     H_    0.180781 0.455987 0.706911 0.128481
C61   C     C_R   0.425350 0.791435 0.336135 0.139312
C62   C     C_R   0.466840 0.792640 0.234916 -0.173894
C63   C     C_R   0.431167 0.731936 0.129186 -0.140090
C64   C     C_R   0.355277 0.667607 0.124261 -0.149320
C65   C     C_R   0.315226 0.663024 0.225118 -0.096543
C66   C     C_R   0.349559 0.725356 0.330778 -0.023117
H25   H     H_    0.525760 0.842187 0.237746 0.128887
H26   H     H_    0.462335 0.734793 0.051039 0.167549
H27   H     H_    0.327969 0.620719 0.042322 0.132160
H28   H     H_    0.257436 0.611472 0.221212 0.152345
H29   H     H_    0.317439 0.722511 0.408241 0.138740
C67   C     C_R   0.597291 0.213787 0.647223 0.112162
C68   C     C_R   0.671550 0.272453 0.627349 -0.071913
C69   C     C_R   0.716394 0.346261 0.717815 -0.068576
C70   C     C_R   0.687769 0.361826 0.828235 -0.170677
C71   C     C_R   0.614851 0.302767 0.849189 -0.118427
C72   C     C_R   0.569141 0.229855 0.758775 -0.066706
H30   H     H_    0.693540 0.262259 0.541525 0.135208
H31   H     H_    0.772499 0.392965 0.702188 0.139924
H32   H     H_    0.721675 0.420608 0.897136 0.131446
H33   H     H_    0.593291 0.314090 0.935202 0.159510
H34   H     H_    0.512795 0.184275 0.775760 0.174872
C73   C     C_2   0.548855 0.851265 0.751296 0.460050
H35   H     H_    0.609324 0.866336 0.802937 0.080478
O11   O     O_2   0.487660 0.811454 0.790478 -0.542055
C74   C     C_2   0.436152 0.149161 0.255574 0.462804
H36   H     H_    0.372088 0.135398 0.213932 0.088570
O12   O     O_2   0.492919 0.186079 0.205951 -0.527859
C75   C     C_R   0.340292 0.970091 0.323153 0.083687
C76   C     C_R   0.274917 0.954049 0.394473 -0.157008
C77   C     C_R   0.194988 0.905213 0.346128 -0.099179
C78   C     C_R   0.179431 0.872233 0.226222 -0.108582
C79   C     C_R   0.243370 0.889361 0.154339 -0.119511
C80   C     C_R   0.323483 0.937924 0.202297 -0.150880
H37   H     H_    0.286346 0.978084 0.487665 0.141804
H38   H     H_    0.145254 0.892341 0.401716 0.148072
H39   H     H_    0.117820 0.833369 0.189006 0.121405
H40   H     H_    0.231303 0.863432 0.061488 0.142631
H41   H     H_    0.373046 0.947518 0.145457 0.137969
C81   C     C_R   0.656519 0.026697 0.690959 0.087162
C82   C     C_R   0.668222 0.059157 0.812255 -0.172229
C83   C     C_R   0.748345 0.101005 0.866730 -0.115288
C84   C     C_R   0.817584 0.109797 0.801062 -0.136156
C85   C     C_R   0.806965 0.076171 0.680891 -0.094291
C86   C     C_R   0.726921 0.034711 0.625964 -0.127055
H42   H     H_    0.614860 0.054922 0.864219 0.129364
H43   H     H_    0.756605 0.127381 0.959809 0.134926
H44   H     H_    0.879531 0.142382 0.843317 0.120566
H45   H     H_    0.860878 0.081874 0.630259 0.167588
H46   H     H_    0.719577 0.009440 0.532662 0.130776
C87   C     C_2   0.400524 0.371196 0.770284 0.328445
H47   H     H_    0.369274 0.375617 0.688892 0.126380
O13   O     O_2   0.387203 0.288148 0.800823 -0.594513
C88   C     C_2   0.619627 0.594878 0.227071 0.380642
H48   H     H_    0.611219 0.657821 0.297743 0.092046
O14   O     O_2   0.691549 0.575474 0.207452 -0.589438
C89   C     C_2   0.656311 0.633355 0.813083 0.384818
H49   H     H_    0.719978 0.634575 0.853546 0.020592
O15   O     O_2   0.647315 0.681689 0.736313 -0.561180
C90   C     C_2   0.339056 0.378183 0.188541 0.421915
H50   H     H_    0.275481 0.386239 0.153887 0.002882
O16   O     O_2   0.346786 0.322999 0.259001 -0.557973

loop_
_geom_bond_atom_site_label_1
_geom_bond_atom_site_label_2
_ccdc_geom_bond_type
C25   C31   T    
C11   C18   A    
C26   C32   T    
C63   C64   A    
C22   C29   S    
C14   C89   S    
C89   O15   D    
Cu2   O2    S    
Cu1   Cu2   S    
C24   C27   S    
C76   C77   A    
C71   C72   A    
C57   H21   S    
C49   C50   A    
C5    C74   S    
C62   H25   S    
C52   H17   S    
C48   O10   D    
C43   H9    S    
C21   C47   S    
C23   C29   S    
C8    C61   S    
C70   C71   A    
C81   C86   A    
C87   O13   D    
C69   H31   S    
C19   O7    A    
C23   C35   S    
C27   C29   S    
C35   C40   A    
Cu2   O7    S    
C17   C18   A    
C37   H4    S    
C56   H20   S    
C11   H1    S    
C67   C68   A    
C15   C88   S    
C13   N2    A    
C14   N1    A    
C75   C80   A    
C42   H8    S    
C1    O3    A    
C7    C67   S    
C68   C69   A    
C2    O4    A    
C12   C17   A    
C1    C34   S    
Cu2   O6    S    
C68   H30   S    
C9    C10   A    
C53   H18   S    
C39   H6    S    
C58   H22   S    
C42   C43   A    
C61   C66   A    
C21   C27   S    
C22   C28   S    
C66   H29   S    
C90   O16   D    
C64   C65   A    
C76   H37   S    
Cu1   O1    S    
Cu1   O8    S    
C50   H15   S    
C69   C70   A    
C59   H23   S    
C53   C54   A    
C40   H7    S    
C86   H46   S    
C48   H14   S    
C37   C38   A    
Cu2   N2    S    
C83   C84   A    
C4    C6    A    
C79   H40   S    
C38   H5    S    
C58   C59   A    
C47   O9    D    
C50   C51   A    
C80   H41   S    
C39   C40   A    
C44   C45   A    
C41   C42   A    
Cu1   N1    S    
C43   C44   A    
C28   C49   S    
C82   H42   S    
C61   C62   A    
C24   C41   S    
C5    C34   A    
C36   C37   A    
Cu2   O3    S    
C64   H27   S    
C16   C18   A    
C20   O8    A    
C45   H11   S    
C55   C56   A    
Cu1   O4    S    
C73   H35   S    
C16   C87   S    
C84   H44   S    
C2    C33   S    
C1    O1    A    
C78   H39   S    
C12   C14   A    
C41   C46   A    
C72   H34   S    
C21   C23   S    
C90   H50   S    
C7    C34   A    
C22   C24   S    
C51   C52   A    
C23   C28   S    
C22   C48   S    
C79   C80   A    
Cu1   O5    S    
C13   C90   S    
C65   C66   A    
C38   C39   A    
C74   O12   D    
C77   C78   A    
C63   H26   S    
C7    C9    A    
C55   C60   A    
C77   H38   S    
C85   H45   S    
C71   H33   S    
C88   O14   D    
C52   C53   A    
C3    C5    A    
C83   H43   S    
C82   C83   A    
C19   O5    A    
C15   C17   A    
C75   C76   A    
C21   C30   S    
C44   H10   S    
C36   H3    S    
C6    C33   A    
C45   C46   A    
C28   C30   S    
C78   C79   A    
C4    C9    A    
C47   H13   S    
C29   C31   S    
C3    C10   A    
C84   C85   A    
C30   C32   S    
C11   C13   A    
C57   C58   A    
C51   H16   S    
C20   C26   S    
C49   C54   A    
C2    O2    A    
C60   H24   S    
C59   C60   A    
C3    C75   S    
C8    C33   A    
C12   H2    S    
C27   C55   S    
C19   C25   S    
C24   C30   S    
C15   N2    A    
C73   O11   D    
C81   C82   A    
C16   N1    A    
C4    C81   S    
C70   H32   S    
C54   H19   S    
C88   H48   S    
C8    C10   A    
C35   C36   A    
C89   H49   S    
C85   C86   A    
C65   H28   S    
C62   C63   A    
C6    C73   S    
C56   C57   A    
C87   H47   S    
C67   C72   A    
C20   O6    A    
C46   H12   S    
C74   H36   S    
