data_str_m3_o10_o29_f0_pcu.sym.161
_audit_creation_date              2012-12-10T16:59:15-0500
_audit_creation_method            fapswitch 2.2
_symmetry_space_group_name_H-M    P1
_symmetry_Int_Tables_number       1
_space_group_crystal_system       triclinic
_cell_length_a                    7.758726
_cell_length_b                    8.563392
_cell_length_c                    27.629771
_cell_angle_alpha                 91.68955
_cell_angle_beta                  85.419291
_cell_angle_gamma                 93.087873
_cell_volume                      1826.64456211

loop_
_atom_site_label
_atom_site_type_symbol
_atom_type_description
_atom_site_fract_x
_atom_site_fract_y
_atom_site_fract_z
_atom_type_partial_charge
C1    C     C_R   0.544603 0.794096 0.499508 0.823804
C2    C     C_R   0.563170 0.593383 0.126217 0.018551
C3    C     C_R   0.503382 0.503462 0.647224 -0.131625
C4    C     C_R   0.491387 0.491266 0.352949 -0.120133
C5    C     C_R   0.514643 0.631324 0.027543 0.102771
C6    C     C_R   0.352864 0.384140 0.976185 0.100808
C7    C     C_R   0.333855 0.386996 0.027583 -0.119613
C8    C     C_R   0.486673 0.650432 0.978158 -0.122601
C9    C     C_R   0.432678 0.501693 0.052528 0.055958
C10   C     C_R   0.424985 0.518590 0.951670 0.050019
C11   C     C_R   0.632020 0.731260 0.051639 -0.213765
C12   C     C_R   0.455553 0.205767 0.500777 0.854895
C13   C     C_R   0.314295 0.247320 0.948705 -0.186768
C14   C     C_R   0.654799 0.713308 0.100333 -0.123276
C15   C     C_R   0.334879 0.246224 0.898440 -0.112570
C16   C     C_R   0.501864 0.501349 0.594127 0.875879
C17   C     C_R   0.497802 0.499247 0.405896 0.870838
C18   C     C_R   0.525015 0.793740 0.953825 0.278787
C19   C     C_R   0.226147 0.276101 0.054866 0.277755
C20   C     C_2   0.564353 0.956238 0.507235 0.157884
C21   C     C_2   0.436435 0.043739 0.494210 0.183082
C22   C     C_R   0.520924 0.648718 0.824691 0.654310
C23   C     C_R   0.440180 0.519143 0.900515 -0.144517
C24   C     C_R   0.385957 0.352270 0.178164 0.664775
C25   C     C_R   0.418086 0.380667 0.823488 0.554264
C26   C     C_R   0.579074 0.579280 0.175747 0.557290
C27   C     C_R   0.337559 0.508187 0.725038 -0.203065
C28   C     C_R   0.632531 0.425174 0.274304 -0.172364
C29   C     C_R   0.343718 0.501537 0.674980 -0.298560
C30   C     C_R   0.636178 0.440328 0.324259 -0.302865
C31   C     C_R   0.659685 0.511891 0.670542 0.280470
C32   C     C_R   0.340147 0.527011 0.330902 0.279273
C33   C     C_R   0.651796 0.508548 0.721935 0.392095
C34   C     C_R   0.452201 0.485884 0.102391 -0.137414
C35   C     C_R   0.341468 0.520258 0.279730 0.373895
C36   C     C_R   0.490113 0.511362 0.748425 0.228634
C37   C     C_R   0.486290 0.465079 0.252197 0.221920
C38   C     C_3   0.714226 0.973696 0.576644 0.164072
C39   C     C_3   0.633260 0.097428 0.611167 -0.447435
C40   C     C_3   0.636909 0.053062 0.664159 -0.808126
C41   C     C_3   0.337479 0.962422 0.420652 0.094354
C42   C     C_3   0.253132 0.084733 0.392408 -0.342091
C43   C     C_3   0.298691 0.066532 0.337836 -0.866861
C44   C     C_R   0.503154 0.655516 0.875857 -0.177635
C45   C     C_R   0.363048 0.362248 0.128281 -0.171030
C46   C     C_R   0.541869 0.794558 0.902638 0.475714
C47   C     C_R   0.248279 0.257658 0.104494 0.487240
C48   C     C_R   0.396339 0.381277 0.874039 0.005842
H1    H     H_    0.751965 0.409731 0.340487 0.195415
H2    H     H_    0.090387 0.532527 0.342898 0.342224
H3    H     H_    0.936837 0.301497 0.439343 0.334153
H4    H     H_    0.063197 0.700839 0.559991 0.338067
H5    H     H_    0.887658 0.448095 0.726165 0.335483
H6    H     H_    0.145954 0.650766 0.275606 0.350535
H7    H     H_    0.630343 0.013612 0.901032 0.379487
H8    H     H_    0.094020 0.068567 0.108762 0.375782
H9    H     H_    0.454221 0.927512 0.008805 0.350598
H10   H     H_    0.044176 0.260688 0.010621 0.352523
H11   H     H_    0.851716 0.965352 0.584382 0.189721
H12   H     H_    0.222302 0.496290 0.658052 0.206992
H13   H     H_    0.649812 0.856437 0.584215 0.121519
H14   H     H_    0.706565 0.211220 0.605503 0.276469
H15   H     H_    0.496785 0.110813 0.603183 0.204364
H16   H     H_    0.562644 0.940138 0.670890 0.268430
H17   H     H_    0.577252 0.145135 0.688122 0.285079
H18   H     H_    0.772505 0.042516 0.673370 0.268245
H19   H     H_    0.285810 0.844517 0.409492 0.220961
H20   H     H_    0.479898 0.965917 0.410301 0.086487
H21   H     H_    0.110232 0.072417 0.399833 0.250399
H22   H     H_    0.298169 0.203435 0.404598 0.245406
H23   H     H_    0.744790 0.385383 0.252519 0.200707
H24   H     H_    0.440803 0.083403 0.329468 0.267128
H25   H     H_    0.234006 0.156063 0.318508 0.284851
H26   H     H_    0.254346 0.948574 0.324542 0.279522
H27   H     H_    0.213445 0.508767 0.745973 0.188835
H28   H     H_    0.744794 0.793989 0.117590 0.200591
H29   H     H_    0.304009 0.138261 0.878801 0.217619
H30   H     H_    0.712133 0.821005 0.032800 0.210509
H31   H     H_    0.275148 0.137553 0.965612 0.216701
H32   H     H_    0.901240 0.585307 0.662142 0.334199
N1    N     N_R   0.478776 0.512979 0.800159 -0.339249
N2    N     N_R   0.488641 0.462080 0.200556 -0.340515
N3    N     N_2   0.950320 0.457960 0.486880 0.200610
N4    N     N_2   0.049680 0.542040 0.513120 0.199979
O1    O     O_R   0.389250 0.738570 0.503220 -0.616025
O2    O     O_2   0.305136 0.235958 0.204597 -0.472917
O3    O     O_2   0.680744 0.683970 0.199378 -0.535005
O4    O     O_2   0.379380 0.248940 0.797612 -0.526433
O5    O     O_3   0.815667 0.526814 0.642852 -0.743640
O6    O     O_3   0.194524 0.567454 0.359615 -0.754890
O7    O     O_3   0.030882 0.356343 0.456409 -0.636188
O8    O     O_3   0.969197 0.645096 0.543131 -0.623016
O9    O     O_3   0.797018 0.499260 0.747317 -0.751937
O10   O     O_3   0.207085 0.570765 0.255265 -0.746302
O11   O     O_3   0.590821 0.930630 0.878149 -0.688065
O12   O     O_R   0.610750 0.261430 0.496780 -0.611021
O13   O     O_3   0.153009 0.143118 0.130865 -0.680549
O14   O     O_3   0.532419 0.935967 0.978702 -0.800403
O15   O     O_3   0.087532 0.195277 0.035597 -0.791072
O16   O     O_3   0.712128 0.019377 0.527754 -0.607090
O17   O     O_3   0.293079 0.983425 0.471192 -0.603209
O18   O     O_R   0.678390 0.711630 0.494810 -0.559555
O19   O     O_R   0.321610 0.288370 0.505190 -0.562539
O20   O     O_R   0.355440 0.513440 0.575450 -0.655247
O21   O     O_R   0.644560 0.486560 0.424550 -0.653705
O22   O     O_R   0.644590 0.486500 0.567040 -0.530359
O23   O     O_R   0.355410 0.513500 0.432960 -0.530811
O24   O     O_2   0.578699 0.775912 0.799312 -0.452741
Zn1   Zn    Zn3+2 0.306940 0.517990 0.505620 1.073672
Zn2   Zn    Zn3+2 0.693060 0.482010 0.494380 1.076356

loop_
_geom_bond_atom_site_label_1
_geom_bond_atom_site_label_2
_ccdc_geom_bond_type
C43   H25   S    
O21   Zn2   S    
C13   H31   S    
C43   H24   S    
C18   O14   S    
C27   C29   A    
C41   C42   S    
C41   H19   S    
C24   C45   A    
C15   C48   A    
C35   C37   A    
C5    C11   A    
O1    Zn1   S    
C17   O23   A    
C38   C39   S    
C11   C14   A    
C19   C47   A    
C42   H22   S    
C33   C36   A    
H32   O5    S    
C3    C29   A    
C24   N2    A    
H3    O7    S    
H2    O6    S    
C32   O6    S    
C46   O11   S    
C44   C46   A    
C26   O3    S    
C31   O5    S    
C31   C33   A    
C16   O22   A    
C38   H13   S    
C21   O17   S    
C2    C34   A    
C43   H26   S    
C26   N2    A    
C40   H18   S    
C25   N1    A    
O23   Zn1   S    
H8    O13   S    
C27   H27   S    
C18   C46   A    
C16   O20   A    
C41   H20   S    
C45   C47   A    
C1    O1    A    
C22   C44   A    
H5    O9    S    
C32   C35   A    
C12   O19   A    
C38   O16   S    
C39   C40   S    
C19   O15   S    
O12   Zn2   S    
C12   C21   S    
C25   O4    S    
C8    C18   A    
C23   C44   A    
C14   H28   S    
C22   N1    A    
C5    C9    A    
C11   H30   S    
C17   O21   A    
N3    N4    D    
C20   O16   S    
C29   H12   S    
C36   N1    S    
N3    Zn2   S    
C2    C26   A    
C34   C45   A    
C3    C31   A    
C25   C48   A    
C4    C32   A    
C4    C17   S    
H7    O11   S    
C30   H1    S    
C7    C19   A    
C40   H17   S    
C13   C15   A    
C9    C34   A    
C10   C23   A    
C37   N2    S    
O18   Zn2   S    
C28   H23   S    
C42   C43   S    
C39   H15   S    
O22   Zn2   S    
C35   O10   S    
C7    C9    A    
C39   H14   S    
C1    C20   S    
C23   C48   A    
H10   O15   S    
C33   O9    S    
C6    C10   A    
C5    C8    A    
C6    C7    A    
C27   C36   A    
N3    O7    S    
N4    Zn1   S    
C47   O13   S    
O19   Zn1   S    
C28   C30   A    
C6    C13   A    
C15   H29   S    
C28   C37   A    
C22   O24   S    
H9    O14   S    
C41   O17   S    
C42   H21   S    
C2    C14   A    
H6    O10   S    
H4    O8    S    
C38   H11   S    
C20   C21   D    
C8    C10   A    
O20   Zn1   S    
C12   O12   A    
C40   H16   S    
N4    O8    S    
C24   O2    S    
C1    O18   A    
C4    C30   A    
C3    C16   S    
