data_str_m3_o10_o16_f0_pcu.sym.120
_audit_creation_date              2013-03-05T15:40:42-0500
_audit_creation_method            fapswitch 2.2
_symmetry_space_group_name_H-M    P1
_symmetry_Int_Tables_number       1
_space_group_crystal_system       triclinic
_cell_length_a                    7.795026
_cell_length_b                    8.592049
_cell_length_c                    12.38561
_cell_angle_alpha                 92.228553
_cell_angle_beta                  102.699895
_cell_angle_gamma                 93.7218
_cell_volume                      806.323323396

loop_
_atom_site_label
_atom_site_type_symbol
_atom_site_description
_atom_site_fract_x
_atom_site_fract_y
_atom_site_fract_z
_atom_type_partial_charge
O1    O     O_R   0.893060 0.738880 0.507150 -0.627691
O2    O     O_R   0.172250 0.711130 0.488470 -0.585061
C1    C     C_R   0.046067 0.794394 0.500823 0.894884
O3    O     O_R   0.944700 0.520730 0.667600 -0.614874
O4    O     O_R   0.223890 0.492980 0.648920 -0.622050
C2    C     C_R   0.109164 0.502436 0.709324 0.863821
Zn1   Zn    Zn3+2 0.813580 0.518530 0.512470 0.957945
Zn2   Zn    Zn3+2 0.186420 0.481470 0.487530 0.983031
O5    O     O_R   0.827750 0.288870 0.511530 -0.619621
O6    O     O_R   0.106940 0.261120 0.492850 -0.576409
O7    O     O_R   0.776110 0.507020 0.351080 -0.628546
O8    O     O_R   0.055300 0.479270 0.332400 -0.626935
C3    C     C_R   0.958301 0.205801 0.506375 0.944221
C4    C     C_R   0.887186 0.470010 0.292328 0.858457
C5    C     C_R   0.848815 0.318935 0.997152 -0.182052
H1    H     H_    0.067033 0.369885 0.136922 0.178202
H2    H     H_    0.653759 0.236041 0.791778 0.180313
H3    H     H_    0.930548 0.278120 0.943180 0.152540
C6    C     C_R   0.816562 0.409094 0.178808 -0.109920
C7    C     C_R   0.092504 0.591633 0.896779 -0.170393
C8    C     C_R   0.171693 0.620303 0.008112 -0.142227
C9    C     C_R   0.328481 0.555034 0.052549 -0.198932
C10   C     C_R   0.405016 0.454166 0.986684 0.077259
C11   C     C_R   0.326461 0.424826 0.873715 0.041182
C12   C     C_R   0.567670 0.393185 0.028570 0.063459
C13   C     C_R   0.668674 0.335994 0.956317 0.107974
C14   C     C_R   0.585320 0.294782 0.846943 -0.188015
C15   C     C_R   0.410375 0.327525 0.808816 -0.155722
C16   C     C_R   0.633535 0.384741 0.141333 0.040178
C17   C     C_R   0.925566 0.368117 0.107236 -0.221824
C18   C     C_R   0.171817 0.499202 0.828531 -0.112824
H4    H     H_    0.974732 0.649498 0.862601 0.164689
H5    H     H_    0.393297 0.590624 0.137083 0.147347
H6    H     H_    0.114234 0.697213 0.059420 0.146882
H7    H     H_    0.346178 0.281290 0.726781 0.221777
C19   C     C_2   0.078636 0.957059 0.517172 0.149166
C20   C     C_2   0.937204 0.042180 0.504916 -0.517056
H8    H     H_    0.802160 0.990376 0.482771 0.191795
N1    N     N_2   0.434800 0.456690 0.470850 -0.167040
H9    H     H_    0.471662 0.366587 0.426241 0.206027
N2    N     N_2   0.565200 0.543310 0.529150 -0.165132
H10   H     H_    0.528898 0.629373 0.577933 0.216988
C21   C     C_3   0.519437 0.303607 0.211647 -0.398120
C22   C     C_3   0.408032 0.158634 0.150516 -0.392192
C23   C     C_3   0.315424 0.067571 0.227382 -0.809913
H11   H     H_    0.414576 0.018534 0.293291 0.288895
H12   H     H_    0.233351 0.144649 0.265612 0.275836
H13   H     H_    0.228533 0.969384 0.179357 0.236491
H14   H     H_    0.305536 0.194073 0.080363 0.231201
H15   H     H_    0.494185 0.080272 0.116921 0.239790
H16   H     H_    0.605333 0.261638 0.287103 0.219719
H17   H     H_    0.431377 0.385898 0.238286 0.192856
N3    N     N_R   0.257465 0.018703 0.561462 0.219843
O9    O     O_R   0.331751 0.990521 0.662812 -0.439883
O10   O     O_R   0.357526 0.056242 0.493787 -0.420333

loop_
_geom_bond_atom_site_label_1
_geom_bond_atom_site_label_2
_geom_bond_distance
_ccdc_geom_bond_type
C22   H14   1.110385 S    
O4    Zn2   1.953179 S    
C10   C11   1.404307 A    
C20   H8    1.088211 S    
C19   N3    1.438734 S    
Zn2   N1    2.015582 S    
C5    H3    1.083417 S    
N2    H10   1.029337 S    
C3    C20   1.403730 S    
Zn2   O8    1.966702 S    
C7    C8    1.386626 A    
C10   C12   1.403345 A    
O2    C1    1.285182 A    
C11   C18   1.416289 A    
N1    N2    1.282882 D    
O1    Zn1   1.961627 S    
N3    O9    1.300737 A    
C16   C21   1.530588 S    
Zn1   O7    1.953180 S    
C21   H16   1.110937 S    
C13   C14   1.388696 A    
C1    C19   1.402904 S    
O3    Zn1   1.966701 S    
Zn2   O6    1.961628 S    
C19   C20   1.346512 D    
O8    C4    1.291263 A    
C2    C18   1.451586 S    
N3    O10   1.300302 A    
C21   C22   1.541451 S    
C12   C16   1.384527 A    
O4    C2    1.290330 A    
O7    C4    1.294260 A    
C21   H17   1.106527 S    
C23   H13   1.110821 S    
H1    C17   1.081927 S    
H2    C14   1.083779 S    
C23   H11   1.110354 S    
N1    H9    1.025952 S    
C22   C23   1.525266 S    
C15   H7    1.076961 S    
C5    C17   1.399721 A    
O3    C2    1.294788 A    
C7    H4    1.083481 S    
C23   H12   1.111703 S    
C22   H15   1.112309 S    
C14   C15   1.392409 A    
Zn1   O5    1.983211 S    
C9    H5    1.080481 S    
O5    C3    1.291671 A    
C9    C10   1.413736 A    
C5    C13   1.403319 A    
C8    H6    1.082609 S    
C12   C13   1.409966 A    
C8    C9    1.388642 A    
C6    C17   1.406230 A    
C4    C6    1.455648 S    
O6    C3    1.271405 A    
O2    Zn2   1.983210 S    
C11   C15   1.422252 A    
Zn1   N2    2.015581 S    
O1    C1    1.275271 A    
C7    C18   1.403136 A    
C6    C16   1.399004 A    
