data_str_m2_o11_o16_f0_pcu.sym.208
_audit_creation_date              2012-12-10T16:54:05-0500
_audit_creation_method            fapswitch 2.2
_symmetry_space_group_name_H-M    P1
_symmetry_Int_Tables_number       1
_space_group_crystal_system       triclinic
_cell_length_a                    9.753652
_cell_length_b                    10.962846
_cell_length_c                    13.432574
_cell_angle_alpha                 90.431332
_cell_angle_beta                  72.640033
_cell_angle_gamma                 89.872796
_cell_volume                      1370.8359781

loop_
_atom_site_label
_atom_site_type_symbol
_atom_type_description
_atom_site_fract_x
_atom_site_fract_y
_atom_site_fract_z
_atom_type_partial_charge
C1    C     C_R   0.498762 0.733766 0.503734 0.861719
C2    C     C_R   0.452832 0.523815 0.970903 0.034673
C3    C     C_R   0.468604 0.469990 0.872028 0.019938
C4    C     C_R   0.549864 0.487294 0.026479 0.100557
C5    C     C_R   0.667678 0.410376 0.977416 0.135852
C6    C     C_R   0.678291 0.356774 0.881181 -0.242310
C7    C     C_R   0.577081 0.382756 0.831131 -0.164186
C8    C     C_R   0.524180 0.512167 0.133024 -0.299973
C9    C     C_R   0.755271 0.423894 0.128643 0.141295
C10   C     C_R   0.372164 0.500633 0.816727 -0.165642
C11   C     C_2   0.617282 0.060560 0.468083 0.216087
C12   C     C_R   0.421533 0.496657 0.700524 0.795380
C13   C     C_2   0.508093 0.136200 0.469896 -0.387496
C14   C     C_2   0.598863 0.931179 0.445916 0.094645
C15   C     C_2   0.497834 0.865233 0.516863 -0.064154
C16   C     C_2   0.074708 0.598157 0.506583 -0.106586
C17   C     C_2   0.930588 0.595773 0.486556 0.017355
C18   C     C_R   0.502501 0.265863 0.493918 0.847197
C19   C     C_R   0.577941 0.496714 0.299821 0.791353
C20   C     C_R   0.769530 0.381682 0.027721 -0.236382
C21   C     C_R   0.624043 0.481299 0.185325 -0.089226
C22   C     C_R   0.234197 0.545573 0.874131 0.090440
C23   C     C_R   0.220832 0.608922 0.969569 0.155809
C24   C     C_R   0.341026 0.611807 0.008598 0.103633
Cu1   Cu    Cu3+1 0.361370 0.499980 0.499980 0.917740
Cu2   Cu    Cu3+1 0.638630 0.500020 0.500020 0.923249
H1    H     H_    0.415705 0.099762 0.450132 0.131109
H2    H     H_    0.114915 0.685412 0.523679 0.154369
H3    H     H_    0.127070 0.427483 0.462874 0.219250
H4    H     H_    0.894459 0.679864 0.460579 0.110392
H5    H     H_    0.760761 0.289678 0.846768 0.131984
H6    H     H_    0.858726 0.322696 0.989479 0.145926
H7    H     H_    0.421996 0.549457 0.177988 0.187233
H8    H     H_    0.581432 0.330903 0.761463 0.135024
N1    N     N_2   0.152660 0.501340 0.501130 -0.288158
N2    N     N_2   0.846520 0.501370 0.501160 -0.130536
O1    O     O_R   0.382960 0.678040 0.499980 -0.581836
O2    O     O_R   0.617100 0.678080 0.500020 -0.596288
O3    O     O_R   0.325800 0.499940 0.650950 -0.567297
O4    O     O_R   0.559930 0.499980 0.650990 -0.573937
O5    O     O_R   0.382900 0.321920 0.499980 -0.585748
O6    O     O_R   0.617040 0.321960 0.500020 -0.578538
O7    O     O_R   0.440070 0.500020 0.349010 -0.578345
O8    O     O_R   0.674200 0.500060 0.349050 -0.576643
C25   C     C_3   0.878729 0.398022 0.172245 -0.393662
C26   C     C_3   0.858610 0.277161 0.229796 -0.800435
H9    H     H_    0.945812 0.264438 0.266289 0.230426
H10   H     H_    0.753562 0.274345 0.291306 0.269344
H11   H     H_    0.863723 0.201342 0.173559 0.240533
H12   H     H_    0.981128 0.392369 0.107476 0.187823
H13   H     H_    0.895751 0.474093 0.221947 0.219746
C27   C     C_3   0.696043 0.873095 0.345577 -0.377402
C28   C     C_3   0.769041 0.964360 0.261222 -0.856882
H14   H     H_    0.688126 0.026398 0.245109 0.259400
H15   H     H_    0.850101 0.017926 0.285526 0.261298
H16   H     H_    0.825396 0.914470 0.188263 0.237982
H17   H     H_    0.780511 0.817565 0.363920 0.205950
H18   H     H_    0.630946 0.811784 0.311389 0.184569
C29   C     C_3   0.398373 0.922164 0.617150 -0.436570
C30   C     C_3   0.325984 0.831137 0.702407 -0.825002
H19   H     H_    0.248282 0.773355 0.677934 0.254947
H20   H     H_    0.407576 0.772838 0.721793 0.249739
H21   H     H_    0.265999 0.882204 0.773744 0.237221
H22   H     H_    0.461089 0.985037 0.651956 0.220909
H23   H     H_    0.312984 0.975750 0.598054 0.207511
C31   C     C_3   0.869556 0.401183 0.565436 -0.487863
H24   H     H_    0.765958 0.362725 0.610696 0.221510
H25   H     H_    0.929019 0.325597 0.515604 0.148904
H26   H     H_    0.920607 0.430660 0.625318 0.177390
C32   C     C_3   0.104128 0.519338 0.836401 -0.348018
C33   C     C_3   0.089680 0.382213 0.818854 -0.831038
H27   H     H_    0.179729 0.344681 0.754796 0.265202
H28   H     H_    0.087396 0.331503 0.890476 0.231543
H29   H     H_    0.989914 0.365137 0.797976 0.227509
H30   H     H_    0.001731 0.548513 0.892769 0.204374
H31   H     H_    0.109530 0.571187 0.764854 0.219531
C34   C     C_3   0.359084 0.719945 0.074643 -0.892997
H32   H     H_    0.289011 0.711224 0.156211 0.220975
H33   H     H_    0.472385 0.731145 0.074002 0.240623
H34   H     H_    0.330782 0.805578 0.041703 0.245484
C35   C     C_3   0.082799 0.675994 0.028470 -0.400902
C36   C     C_3   0.056603 0.788346 0.969924 -0.853878
H35   H     H_    0.143745 0.855696 0.962585 0.249925
H36   H     H_    0.051091 0.763829 0.890998 0.247643
H37   H     H_    0.953082 0.831675 0.013783 0.239687
H38   H     H_    0.989384 0.614001 0.044920 0.188940
H39   H     H_    0.084393 0.706197 0.107033 0.211021
C37   C     C_3   0.749719 0.097154 0.496761 -0.826774
H40   H     H_    0.819455 0.016602 0.495755 0.217984
H41   H     H_    0.813344 0.163656 0.439900 0.239766
H42   H     H_    0.718753 0.136732 0.576747 0.217085

loop_
_geom_bond_atom_site_label_1
_geom_bond_atom_site_label_2
_ccdc_geom_bond_type
C16   H2    S    
C31   H25   S    
C9    C25   S    
C4    C8    A    
C9    C21   A    
Cu1   O7    S    
C35   C36   S    
Cu2   O8    S    
C5    C20   A    
C34   H32   S    
C10   C22   A    
C26   H11   S    
C29   H22   S    
C13   C18   S    
C30   H21   S    
C19   C21   S    
C3    C7    A    
C18   O6    A    
C16   N1    D    
C5    C6    A    
C11   C14   S    
N2    C31   S    
C28   H16   S    
C31   H26   S    
C25   H13   S    
C30   H20   S    
Cu1   O1    S    
C14   C27   S    
C16   C17   S    
C23   C24   A    
C32   C33   S    
C1    C15   S    
C17   N2    D    
C35   H38   S    
C1    O1    A    
C34   H33   S    
C31   H24   S    
C29   C30   S    
C17   H4    S    
C10   C12   S    
C19   O7    A    
C28   H15   S    
C26   H10   S    
C18   O5    A    
Cu1   O5    S    
C33   H28   S    
Cu2   O2    S    
Cu1   Cu2   S    
C28   H14   S    
C30   H19   S    
C12   O4    A    
C2    C4    A    
C9    C20   A    
C37   H42   S    
C11   C37   S    
C8    C21   A    
C27   C28   S    
C35   H39   S    
C27   H18   S    
C1    O2    A    
Cu1   N1    S    
Cu2   N2    S    
C37   H41   S    
C36   H36   S    
C2    C24   A    
C7    H8    S    
C19   O8    A    
Cu2   O6    S    
C20   H6    S    
C34   H34   S    
C26   H9    S    
C23   C35   S    
C14   C15   D    
C15   C29   S    
C4    C5    A    
C33   H29   S    
C6    C7    A    
C36   H37   S    
H3    N1    S    
C12   O3    A    
C2    C3    A    
C33   H27   S    
C3    C10   A    
Cu1   O3    S    
C32   H31   S    
C11   C13   D    
Cu2   O4    S    
C25   H12   S    
C6    H5    S    
C8    H7    S    
C27   H17   S    
C25   C26   S    
C24   C34   S    
C37   H40   S    
C36   H35   S    
C32   H30   S    
C22   C23   A    
C13   H1    S    
C22   C32   S    
C29   H23   S    
