data_str_m9_o13_o16_f0_sra.sym.226
_audit_creation_date              2013-03-05T15:44:18-0500
_audit_creation_method            fapswitch 2.2
_symmetry_space_group_name_H-M    P1
_symmetry_Int_Tables_number       1
_space_group_crystal_system       triclinic
_cell_length_a                    20.851523
_cell_length_b                    7.099992
_cell_length_c                    16.366117
_cell_angle_alpha                 89.996857
_cell_angle_beta                  92.390687
_cell_angle_gamma                 89.996518
_cell_volume                      2420.82349984

loop_
_atom_site_label
_atom_site_type_symbol
_atom_site_description
_atom_site_fract_x
_atom_site_fract_y
_atom_site_fract_z
_atom_type_partial_charge
O1    O     O_R   0.564840 0.505290 0.579830 -0.553291
O2    O     O_R   0.435160 0.005290 0.420170 -0.553262
O3    O     O_R   0.556720 0.179930 0.409350 -0.556076
O4    O     O_R   0.443280 0.679930 0.590650 -0.556087
C1    C     C_R   0.570212 0.344828 0.380715 0.822458
C2    C     C_R   0.429800 0.844823 0.619295 0.822465
O5    O     O_R   0.572280 0.175810 0.578530 -0.566585
O6    O     O_R   0.427720 0.675810 0.421470 -0.566550
O7    O     O_R   0.450830 0.001920 0.590540 -0.554720
O8    O     O_R   0.549170 0.501920 0.409460 -0.554721
C3    C     C_R   0.590037 0.342508 0.605120 0.815240
C4    C     C_R   0.409960 0.842527 0.394883 0.815234
O9    O     O_3   0.460130 0.338030 0.503750 -0.278858
O10   O     O_3   0.539870 0.838030 0.496250 -0.278882
V1    V     V_3+5 0.507400 0.064560 0.499310 1.131554
V2    V     V_3+5 0.492600 0.564560 0.500690 1.131550
C5    C     C_R   0.145761 0.928602 0.165331 -0.097215
C6    C     C_R   0.854182 0.428688 0.834746 -0.097178
C7    C     C_R   0.355403 0.837536 0.332911 -0.105007
C8    C     C_R   0.644596 0.337464 0.667088 -0.105018
C9    C     C_R   0.288356 0.649359 0.237201 -0.048510
C10   C     C_R   0.711725 0.149163 0.762679 -0.048726
C11   C     C_R   0.342968 0.669244 0.288872 -0.081488
C12   C     C_R   0.657107 0.169042 0.711017 -0.081514
C13   C     C_R   0.312468 0.988601 0.321736 -0.128962
C14   C     C_R   0.687451 0.488663 0.678381 -0.128938
C15   C     C_R   0.257051 0.968930 0.269795 0.096871
C16   C     C_R   0.742867 0.469005 0.730321 0.096977
C17   C     C_R   0.244426 0.797243 0.227831 0.106416
C18   C     C_R   0.755583 0.297184 0.772154 0.106457
C19   C     C_R   0.188563 0.777065 0.176599 -0.082614
C20   C     C_R   0.811462 0.277005 0.823359 -0.082670
C21   C     C_R   0.159358 0.098532 0.207567 -0.085981
C22   C     C_R   0.840466 0.598797 0.792681 -0.085873
C23   C     C_R   0.213738 0.117903 0.259480 -0.079948
C24   C     C_R   0.786088 0.618143 0.740770 -0.079776
H1    H     H_    0.179653 0.646538 0.143683 0.087387
H2    H     H_    0.820451 0.146346 0.856154 0.087291
H3    H     H_    0.128094 0.219478 0.199727 0.091200
H4    H     H_    0.871638 0.719907 0.800642 0.091312
H5    H     H_    0.280273 0.517415 0.205111 0.090906
H6    H     H_    0.719866 0.017128 0.794686 0.090735
H7    H     H_    0.222243 0.250630 0.290790 0.050223
H8    H     H_    0.777509 0.750980 0.709567 0.050093
H9    H     H_    0.375284 0.550190 0.295205 0.097470
H10   H     H_    0.624850 0.049880 0.704604 0.097502
H11   H     H_    0.321012 0.118659 0.355149 0.078214
H12   H     H_    0.678843 0.618836 0.645066 0.078239
C25   C     C_R   0.380795 0.866791 0.837741 -0.015149
C26   C     C_R   0.619220 0.367020 0.162279 -0.015149
H13   H     H_    0.470040 0.856271 0.777440 0.078047
H14   H     H_    0.529976 0.356550 0.222582 0.078030
H15   H     H_    0.405693 0.873363 0.896944 0.145381
H16   H     H_    0.594322 0.373683 0.103080 0.145373
C27   C     C_R   0.389335 0.854005 0.691031 -0.080060
C28   C     C_R   0.610681 0.354036 0.308982 -0.080067
C29   C     C_R   0.077481 0.915677 0.728738 0.047192
C30   C     C_R   0.922539 0.415873 0.271261 0.047223
C31   C     C_R   0.114174 0.909115 0.659299 -0.064711
C32   C     C_R   0.885828 0.409788 0.340699 -0.064452
C33   C     C_R   0.180630 0.894563 0.665587 -0.078967
C34   C     C_R   0.819373 0.395183 0.334416 -0.079046
C35   C     C_R   0.213916 0.886530 0.742429 0.047103
C36   C     C_R   0.786096 0.386744 0.257581 0.047089
C37   C     C_R   0.177083 0.895682 0.814017 -0.055189
C38   C     C_R   0.822932 0.395722 0.185995 -0.055166
C39   C     C_R   0.282564 0.872162 0.750173 0.013235
C40   C     C_R   0.717451 0.372281 0.249840 0.013250
C41   C     C_R   0.313124 0.869899 0.829778 -0.028519
C42   C     C_R   0.686890 0.370047 0.170238 -0.028527
C43   C     C_R   0.275765 0.875611 0.899907 0.342115
C44   C     C_R   0.724248 0.375708 0.100109 0.342095
C45   C     C_R   0.209056 0.890124 0.891230 -0.120620
C46   C     C_R   0.790958 0.390104 0.108783 -0.120594
C47   C     C_R   0.322201 0.861074 0.681395 -0.088673
C48   C     C_R   0.677817 0.361050 0.318616 -0.088707
C49   C     C_R   0.418203 0.858770 0.769284 -0.104536
C50   C     C_R   0.581813 0.358969 0.230735 -0.104509
C51   C     C_R   0.108715 0.909677 0.807164 -0.081479
C52   C     C_R   0.891300 0.409679 0.192842 -0.081602
H17   H     H_    0.302772 0.857834 0.619415 0.036763
H18   H     H_    0.697254 0.357595 0.380589 0.036781
H19   H     H_    0.204386 0.891293 0.608497 0.057797
H20   H     H_    0.795602 0.392323 0.391500 0.057787
H21   H     H_    0.090877 0.915761 0.598918 0.063094
H22   H     H_    0.909103 0.416868 0.401079 0.063098
H23   H     H_    0.182197 0.894111 0.946425 0.091568
H24   H     H_    0.817816 0.394002 0.053587 0.091573
O11   O     O_R   0.950790 0.256670 0.090520 -0.552025
O12   O     O_R   0.049210 0.756670 0.909480 -0.552024
O13   O     O_R   0.927720 0.590370 0.921470 -0.557179
O14   O     O_R   0.072280 0.090370 0.078530 -0.557094
C53   C     C_R   0.909679 0.423195 0.895349 0.809699
C54   C     C_R   0.090303 0.923178 0.104672 0.809916
O15   O     O_R   0.943270 0.586180 0.090640 -0.557461
O16   O     O_R   0.056730 0.086180 0.909360 -0.557512
O17   O     O_R   0.064850 0.759970 0.079840 -0.561612
O18   O     O_R   0.935150 0.259970 0.920160 -0.561577
C55   C     C_R   0.930439 0.417741 0.119228 0.802441
C56   C     C_R   0.069558 0.917743 0.880768 0.802582
O19   O     O_3   0.039850 0.428050 0.996240 -0.273720
O20   O     O_3   0.960150 0.928050 0.003760 -0.273710
V3    V     V_3+5 0.992610 0.701540 0.000700 1.135957
V4    V     V_3+5 0.007390 0.201540 0.999300 1.135981
C57   C     C_3   0.005175 0.930466 0.715899 -0.211098
C58   C     C_3   0.976700 0.744983 0.684045 -0.418965
H25   H     H_    0.999185 0.701240 0.626699 0.128868
H26   H     H_    0.984106 0.632576 0.730763 0.134812
H27   H     H_    0.924455 0.762864 0.670539 0.115790
H28   H     H_    0.981019 0.969467 0.772625 0.103708
H29   H     H_    0.993639 0.044119 0.670889 0.099869
C59   C     C_3   0.994855 0.430730 0.284081 -0.211042
C60   C     C_3   0.023313 0.246193 0.316998 -0.419384
H30   H     H_    0.001025 0.204684 0.374754 0.128838
H31   H     H_    0.015675 0.132230 0.271081 0.134717
H32   H     H_    0.075606 0.264115 0.330089 0.115908
H33   H     H_    0.019060 0.467784 0.227183 0.103754
H34   H     H_    0.006398 0.545673 0.328425 0.099954
N1    N     N_R   0.304555 0.863593 0.981067 0.078113
O21   O     O_R   0.284734 0.973573 0.038405 -0.367534
O22   O     O_R   0.341302 0.721432 0.001216 -0.362938
N2    N     N_R   0.695456 0.363734 0.018950 0.078137
O23   O     O_R   0.715294 0.473676 0.961607 -0.367505
O24   O     O_R   0.658685 0.221647 0.998810 -0.362876

loop_
_geom_bond_atom_site_label_1
_geom_bond_atom_site_label_2
_geom_bond_distance
_ccdc_geom_bond_type
C29   C57   1.517188 S    
C57   H28   1.109639 S    
C35   C37   1.428937 A    
C28   C48   1.403067 A    
C15   C17   1.418424 A    
C29   C51   1.415500 A    
C1    C28   1.475543 S    
O1    C3    1.328474 A    
C2    C27   1.475527 S    
O2    C4    1.328460 A    
C2    O7    1.294253 A    
H13   C49   1.083699 S    
C37   C45   1.404514 A    
C37   C51   1.428761 A    
O5    C3    1.309177 A    
C26   H16   1.080965 S    
C58   H26   1.111510 S    
O11   C55   1.313495 A    
C11   H9    1.083227 S    
C36   C40   1.435357 A    
C59   H33   1.109170 S    
C27   C49   1.392609 A    
O15   C55   1.315716 A    
C29   C31   1.397000 A    
C58   H25   1.110790 S    
C30   C32   1.397088 A    
C38   C46   1.404502 A    
C28   C50   1.392557 A    
C32   C34   1.389106 A    
C41   C43   1.414335 A    
C45   H23   1.082893 S    
C34   C36   1.411922 A    
C8    C12   1.413891 A    
C20   H2    1.084130 S    
C23   H7    1.083778 S    
C13   H11   1.084165 S    
C22   C24   1.394970 A    
C14   H12   1.084182 S    
C60   H32   1.109768 S    
C27   C47   1.403040 A    
O5    V1    1.997243 S    
C57   H29   1.112100 S    
O6    V2    1.997121 S    
C25   C41   1.411788 A    
C17   C19   1.413832 A    
C5    C21   1.413376 A    
H14   C50   1.083680 S    
C26   C50   1.392750 A    
O12   C56   1.313522 A    
C59   C60   1.527135 S    
O15   V3    2.005569 S    
N1    O22   1.301307 A    
C35   C39   1.435346 A    
C3    C8    1.492573 S    
C31   C33   1.389078 A    
C51   C56   1.484264 S    
C44   C46   1.396084 A    
C33   H19   1.075880 S    
C48   H18   1.076696 S    
C43   C45   1.396105 A    
C32   H22   1.083782 S    
C47   H17   1.076718 S    
C54   O17   1.331071 A    
C15   C23   1.396453 A    
C9    C17   1.397570 A    
C19   H1    1.084103 S    
C39   C41   1.426332 A    
C36   C38   1.428891 A    
O4    V2    2.005635 S    
C7    C11   1.413840 A    
C31   H21   1.083839 S    
O13   C53   1.311403 A    
O6    C4    1.309211 A    
O14   C54   1.311440 A    
O1    V2    1.990164 S    
C21   H3    1.082479 S    
O20   V4    2.179981 S    
O2    V1    1.990230 S    
C6    C22   1.413470 A    
O17   V3    1.988980 S    
C9    H5    1.083752 S    
O4    C2    1.296317 A    
O19   V4    1.746409 S    
C9    C11   1.396963 A    
O11   V4    1.980373 S    
C13   C15   1.412597 A    
C5    C19   1.405086 A    
C30   C59   1.517411 S    
C24   H8    1.083792 S    
C6    C20   1.405104 A    
N2    O24   1.301267 A    
O3    V1    2.005618 S    
C60   H30   1.110380 S    
C6    C53   1.492857 S    
C34   H20   1.075892 S    
C10   C18   1.397556 A    
C44   N2    1.437151 S    
C33   C35   1.411985 A    
O13   V3    1.997255 S    
O3    C1    1.296328 A    
N1    O21   1.301357 A    
C30   C52   1.415505 A    
C40   C48   1.426159 A    
C38   C52   1.428758 A    
C57   C58   1.527410 S    
C14   C16   1.412549 A    
C43   N1    1.437173 S    
C12   H10   1.083236 S    
O16   V4    2.005584 S    
C26   C42   1.411760 A    
C1    O8    1.294241 A    
C52   C55   1.484197 S    
O8    V2    1.991332 S    
C18   C20   1.413840 A    
C10   H6    1.083751 S    
C8    C14   1.404080 A    
C25   H15   1.081004 S    
O16   C56   1.315736 A    
C4    C7    1.492592 S    
C16   C18   1.418448 A    
C21   C23   1.395044 A    
C25   C49   1.392768 A    
C10   C12   1.396948 A    
O7    V1    1.991331 S    
O20   V3    1.746338 S    
C7    C13   1.404112 A    
O12   V3    1.980369 S    
O14   V4    1.997134 S    
C39   C47   1.426163 A    
C16   C24   1.396405 A    
O19   V3    2.179882 S    
O9    V2    1.746621 S    
C40   C42   1.426292 A    
C59   H34   1.111824 S    
O10   V1    1.746550 S    
C22   H4    1.082517 S    
C42   C44   1.414318 A    
C5    C54   1.492811 S    
C46   H24   1.082886 S    
N2    O23   1.301350 A    
C53   O18   1.331117 A    
O18   V4    1.988912 S    
C60   H31   1.111256 S    
C58   H27   1.109788 S    
