data_str_m9_o12_o2_f0_sra.sym.34
_audit_creation_date              2012-12-11T14:39:33-0500
_audit_creation_method            fapswitch 2.2
_symmetry_space_group_name_H-M    P1
_symmetry_Int_Tables_number       1
_space_group_crystal_system       triclinic
_cell_length_a                    7.219379
_cell_length_b                    14.097365
_cell_length_c                    16.299561
_cell_angle_alpha                 90.0
_cell_angle_beta                  97.376196
_cell_angle_gamma                 90.000021
_cell_volume                      1645.14724232

loop_
_atom_site_label
_atom_site_type_symbol
_atom_type_description
_atom_site_fract_x
_atom_site_fract_y
_atom_site_fract_z
_atom_type_partial_charge
O1    O     O_R   0.525340 0.338340 0.164530 -0.542409
O2    O     O_R   0.474660 0.661660 0.835470 -0.542409
O3    O     O_R   0.974660 0.838340 0.835470 -0.542409
O4    O     O_R   0.025340 0.161660 0.164530 -0.542409
O5    O     O_R   0.253520 0.352000 0.336710 -0.539427
O6    O     O_R   0.746480 0.648000 0.663290 -0.539426
O7    O     O_R   0.246480 0.852000 0.663290 -0.539427
O8    O     O_R   0.753520 0.148000 0.336710 -0.539427
O9    O     O_R   0.083330 0.168380 0.337300 -0.535464
O10   O     O_R   0.916670 0.831620 0.662700 -0.535464
O11   O     O_R   0.416670 0.668380 0.662700 -0.535464
O12   O     O_R   0.583330 0.331620 0.337300 -0.535464
C1    C     C_R   0.432316 0.368696 0.363670 0.689171
C2    C     C_R   0.567684 0.631304 0.636330 0.689171
C3    C     C_R   0.067684 0.868696 0.636330 0.689171
C4    C     C_R   0.932316 0.131304 0.363670 0.689171
O13   O     O_R   0.195840 0.349670 0.165140 -0.542236
O14   O     O_R   0.804160 0.650330 0.834860 -0.542236
O15   O     O_R   0.304160 0.849670 0.834860 -0.542236
O16   O     O_R   0.695840 0.150330 0.165140 -0.542236
C5    C     C_R   0.357192 0.371989 0.137695 0.738090
C6    C     C_R   0.642808 0.628011 0.862305 0.738090
C7    C     C_R   0.142808 0.871989 0.862305 0.738090
C8    C     C_R   0.857192 0.128011 0.137695 0.738090
O17   O     O_3   0.387830 0.193120 0.250910 -0.376186
O18   O     O_3   0.612170 0.806880 0.749090 -0.376186
O19   O     O_3   0.112170 0.693120 0.749090 -0.376186
O20   O     O_3   0.887830 0.306880 0.250910 -0.376186
V1    V     V_3+5 0.113010 0.264540 0.250910 1.402554
V2    V     V_3+5 0.886990 0.735460 0.749090 1.402554
V3    V     V_3+5 0.386990 0.764540 0.749090 1.402554
V4    V     V_3+5 0.613010 0.235460 0.250910 1.402554
H1    H     H_    0.157191 0.828494 0.265931 0.118239
H2    H     H_    0.842809 0.171506 0.734069 0.118239
H3    H     H_    0.342810 0.328493 0.734070 0.118238
H4    H     H_    0.657189 0.671507 0.265930 0.118238
C9    C     C_R   0.867824 0.185120 0.528064 -0.144786
C10   C     C_R   0.132176 0.814880 0.471936 -0.144786
C11   C     C_R   0.632176 0.685121 0.471936 -0.144786
C12   C     C_R   0.367824 0.314879 0.528064 -0.144786
C13   C     C_R   0.835486 0.212800 0.607041 -0.116375
C14   C     C_R   0.164514 0.787199 0.392959 -0.116375
C15   C     C_R   0.664514 0.712801 0.392959 -0.116375
C16   C     C_R   0.335486 0.287199 0.607041 -0.116375
C17   C     C_R   0.867434 0.149584 0.672745 -0.132504
C18   C     C_R   0.132566 0.850416 0.327255 -0.132504
C19   C     C_R   0.632565 0.649584 0.327254 -0.132504
C20   C     C_R   0.367434 0.350416 0.672746 -0.132503
C21   C     C_R   0.932157 0.058297 0.659935 -0.139729
C22   C     C_R   0.067843 0.941703 0.340065 -0.139729
C23   C     C_R   0.567843 0.558297 0.340065 -0.139729
C24   C     C_R   0.432157 0.441703 0.659935 -0.139729
C25   C     C_R   0.965274 0.028103 0.580254 0.062281
C26   C     C_R   0.034727 0.971897 0.419746 0.062281
C27   C     C_R   0.534726 0.528103 0.419746 0.062280
C28   C     C_R   0.465273 0.471897 0.580254 0.062280
C29   C     C_R   0.932462 0.092578 0.513112 0.056853
C30   C     C_R   0.067538 0.907422 0.486888 0.056853
C31   C     C_R   0.567538 0.592578 0.486888 0.056852
C32   C     C_R   0.432461 0.407421 0.513112 0.056852
C33   C     C_R   0.032791 0.935808 0.566909 -0.174431
C34   C     C_R   0.967209 0.064192 0.433091 -0.174431
C35   C     C_R   0.467209 0.435808 0.433091 -0.174431
C36   C     C_R   0.532791 0.564192 0.566909 -0.174431
H5    H     H_    0.786323 0.283834 0.617353 0.134875
H6    H     H_    0.213677 0.716166 0.382647 0.134875
H7    H     H_    0.713677 0.783835 0.382646 0.134875
H8    H     H_    0.286323 0.216165 0.617354 0.134875
H9    H     H_    0.956727 0.012045 0.713192 0.106395
H10   H     H_    0.043273 0.987955 0.286808 0.106395
H11   H     H_    0.543273 0.512045 0.286807 0.106395
H12   H     H_    0.456727 0.487955 0.713192 0.106395
C37   C     C_2   0.149943 0.942036 0.930592 -0.337465
C38   C     C_2   0.850057 0.057964 0.069408 -0.337464
C39   C     C_2   0.350057 0.442036 0.069408 -0.337464
C40   C     C_2   0.649942 0.557964 0.930591 -0.337465
C41   C     C_2   0.996125 0.965666 0.965477 -0.132588
C42   C     C_2   0.003875 0.034334 0.034522 -0.132588
C43   C     C_2   0.503875 0.465666 0.034522 -0.132588
C44   C     C_2   0.496125 0.534334 0.965477 -0.132588
H13   H     H_    0.716230 0.026151 0.046519 0.127657
H14   H     H_    0.283770 0.973849 0.953481 0.127657
H15   H     H_    0.783770 0.526151 0.953481 0.127657
H16   H     H_    0.216230 0.473849 0.046519 0.127657
H17   H     H_    0.842815 0.237317 0.479242 0.119104
H18   H     H_    0.157185 0.762683 0.520758 0.119104
H19   H     H_    0.657185 0.737317 0.520758 0.119104
H20   H     H_    0.342815 0.262683 0.479242 0.119104
H21   H     H_    0.138117 0.066175 0.056637 0.158380
H22   H     H_    0.861882 0.933825 0.943362 0.158380
H23   H     H_    0.361882 0.566175 0.943362 0.158380
H24   H     H_    0.638117 0.433825 0.056637 0.158380

loop_
_geom_bond_atom_site_label_1
_geom_bond_atom_site_label_2
_ccdc_geom_bond_type
O1    C5    A    
C12   C32   A    
C27   C31   A    
O13   V1    S    
O3    C7    A    
C6    C40   S    
O15   V3    S    
C29   C34   A    
C41   C42   S    
C31   C36   A    
C22   C26   A    
C4    C34   S    
C10   H18   S    
C32   C35   A    
C9    H17   S    
O20   V1    S    
O9    C4    A    
C10   C14   A    
O10   C3    A    
C26   C30   A    
O4    C8    A    
O11   C2    A    
C39   H16   S    
H4    C19   S    
C14   C18   A    
C10   C30   A    
C25   C33   A    
O16   C8    A    
C27   C35   A    
O2    C6    A    
C28   C36   A    
O14   V2    S    
C11   H19   S    
C12   C16   A    
O5    C1    A    
O4    V1    S    
O9    V1    S    
C30   C33   A    
O7    C3    A    
O11   V3    S    
O18   V3    S    
O8    C4    A    
C21   H9    S    
O12   V4    S    
O19   V2    S    
C9    C13   A    
H1    C18   S    
C23   H11   S    
C7    C37   S    
H3    C20   S    
C40   H15   S    
O5    V1    S    
C42   H21   S    
C41   H22   S    
O7    V3    S    
O8    V4    S    
C25   C29   A    
C19   C23   A    
C26   C34   A    
O1    V4    S    
O13   C5    A    
C28   C32   A    
O2    V3    S    
O3    V2    S    
O15   C7    A    
C24   H12   S    
O6    C2    A    
O10   V2    S    
C1    C35   S    
C17   C21   A    
C11   C31   A    
C3    C33   S    
H2    C17   S    
C43   H24   S    
C2    C36   S    
O6    V2    S    
C16   H8    S    
C38   H13   S    
C37   H14   S    
O16   V4    S    
C5    C39   S    
C37   C41   D    
O14   C6    A    
C40   C44   D    
C11   C15   A    
C18   C22   A    
C12   H20   S    
C44   H23   S    
C22   H10   S    
C8    C38   S    
C39   C43   D    
O17   V4    S    
C21   C25   A    
C23   C27   A    
C13   H5    S    
C43   C44   S    
C16   C20   A    
C20   C24   A    
O12   C1    A    
C15   H7    S    
C38   C42   D    
C14   H6    S    
C13   C17   A    
C15   C19   A    
C9    C29   A    
C24   C28   A    
