data_str_m4_o15_o24_f0_acs.sym.48
_audit_creation_date              2012-12-11T14:28:25-0500
_audit_creation_method            fapswitch 2.2
_symmetry_space_group_name_H-M    P1
_symmetry_Int_Tables_number       1
_space_group_crystal_system       triclinic
_cell_length_a                    10.830491
_cell_length_b                    19.40272
_cell_length_c                    18.761211
_cell_angle_alpha                 90.025272
_cell_angle_beta                  89.612994
_cell_angle_gamma                 90.006743
_cell_volume                      3942.40900214

loop_
_atom_site_label
_atom_site_type_symbol
_atom_type_description
_atom_site_fract_x
_atom_site_fract_y
_atom_site_fract_z
_atom_type_partial_charge
C1    C     C_R   0.318815 0.964391 0.644600 0.546152
C2    C     C_3   0.146131 0.698416 0.023770 -0.094871
C3    C     C_3   0.983125 0.208907 0.981293 -0.131855
C4    C     C_3   0.484034 0.293210 0.481529 -0.131959
C5    C     C_3   0.553775 0.299988 0.031840 -0.110612
C6    C     C_3   0.554273 0.701142 0.531334 -0.111435
C7    C     C_3   0.477554 0.711603 0.982691 -0.134938
C8    C     C_3   0.119428 0.803496 0.504869 -0.179516
C9    C     C_3   0.167724 0.770599 0.991286 -0.194428
C10   C     C_3   0.168545 0.229942 0.491598 -0.193816
C11   C     C_3   0.118894 0.199691 0.004108 -0.184843
C12   C     C_3   0.619432 0.303495 0.504867 -0.179453
C13   C     C_3   0.146923 0.302127 0.524050 -0.093520
C14   C     C_3   0.669181 0.272175 0.992356 -0.193236
C15   C     C_3   0.668543 0.729940 0.491598 -0.193682
C16   C     C_3   0.612533 0.699260 0.005637 -0.180657
C17   C     C_3   0.097161 0.753640 0.567671 0.051159
C18   C     C_3   0.084267 0.750872 0.928741 0.046403
C19   C     C_3   0.085074 0.249478 0.428967 0.045076
C20   C     C_3   0.095432 0.248065 0.067909 0.050756
C21   C     C_3   0.597163 0.253641 0.567671 0.050938
C22   C     C_3   0.586723 0.252020 0.929561 0.047633
C23   C     C_3   0.585074 0.749479 0.428967 0.045165
C24   C     C_3   0.156991 0.262165 0.958974 -0.073276
C25   C     C_3   0.593115 0.749306 0.068431 0.052109
C26   C     C_3   0.962866 0.744160 0.545801 -0.194412
C27   C     C_3   0.970580 0.780350 0.966990 -0.148912
C28   C     C_3   0.971298 0.220193 0.467283 -0.150676
C29   C     C_3   0.960759 0.257048 0.046351 -0.191009
C30   C     C_3   0.462867 0.244163 0.545801 -0.194662
C31   C     C_3   0.471835 0.280402 0.967457 -0.151146
C32   C     C_3   0.471296 0.720195 0.467281 -0.150888
C33   C     C_3   0.459140 0.761685 0.046700 -0.191546
C34   C     C_3   0.003041 0.681920 0.499564 -0.125621
C35   C     C_3   0.659740 0.241876 0.458570 -0.075440
C36   C     C_3   0.947415 0.708199 0.000124 -0.102632
C37   C     C_3   0.948380 0.292396 0.500294 -0.101609
C38   C     C_3   0.999090 0.320354 0.000867 -0.127733
C39   C     C_3   0.503038 0.181921 0.499566 -0.125790
C40   C     C_3   0.450277 0.208037 0.000139 -0.106948
C41   C     C_3   0.448381 0.792399 0.500294 -0.101658
C42   C     C_3   0.502854 0.823046 0.999716 -0.122787
C43   C     C_3   0.137341 0.693136 0.521401 0.406539
C44   C     C_3   0.061834 0.680560 0.961169 0.394912
C45   C     C_3   0.062871 0.319897 0.461347 0.397081
C46   C     C_3   0.649059 0.199790 0.024534 -0.091193
C47   C     C_3   0.133704 0.309691 0.022618 0.408973
C48   C     C_3   0.637338 0.193136 0.521402 0.406445
C49   C     C_3   0.565876 0.181587 0.961650 0.395218
C50   C     C_3   0.562874 0.819898 0.461348 0.397148
C51   C     C_3   0.636534 0.809116 0.021775 0.406080
C52   C     C_3   0.646924 0.802126 0.524051 -0.093404
C53   C     C_3   0.655717 0.759848 0.959168 -0.076112
C54   C     C_3   0.025620 0.730800 0.436856 0.008317
C55   C     C_3   0.031716 0.727531 0.062574 0.012810
C56   C     C_3   0.032350 0.273018 0.562751 0.012367
C57   C     C_R   0.319460 0.961279 0.857070 0.553394
C58   C     C_3   0.022479 0.272076 0.937380 0.005438
C59   C     C_3   0.525619 0.230800 0.436856 0.008332
C60   C     C_3   0.533333 0.227817 0.062951 0.011996
C61   C     C_3   0.532348 0.773018 0.562750 0.012608
C62   C     C_3   0.522185 0.772783 0.937416 0.005684
C63   C     C_R   0.323903 0.037523 0.434934 -0.028347
C64   C     C_R   0.322775 0.029485 0.067772 -0.021802
C65   C     C_R   0.321172 0.992306 0.574197 -0.021364
C66   C     C_R   0.325850 0.982295 0.929942 -0.025518
C67   C     C_R   0.823904 0.537517 0.434932 -0.028282
C68   C     C_R   0.316763 0.061009 0.362174 0.537663
C69   C     C_R   0.821517 0.521371 0.069334 -0.019085
C70   C     C_R   0.821175 0.492298 0.574193 -0.022308
C71   C     C_R   0.824469 0.466000 0.934015 -0.027488
C72   C     C_R   0.554470 0.011688 0.433519 0.014551
C73   C     C_R   0.546385 0.994726 0.075605 -0.070318
C74   C     C_R   0.545778 0.015975 0.580509 -0.059642
C75   C     C_R   0.556967 0.994930 0.928811 0.013848
C76   C     C_R   0.054470 0.511682 0.433512 0.014560
C77   C     C_R   0.045568 0.491246 0.077961 -0.061040
C78   C     C_R   0.045784 0.515965 0.580502 -0.059680
C79   C     C_R   0.316910 0.058352 0.137782 0.534140
C80   C     C_R   0.055868 0.489350 0.931397 0.016788
C81   C     C_R   0.661782 0.003369 0.472689 -0.043733
C82   C     C_R   0.659382 0.991477 0.041333 -0.068564
C83   C     C_R   0.658203 0.009334 0.546226 -0.046258
C84   C     C_R   0.665061 0.995650 0.967777 -0.044775
C85   C     C_R   0.161785 0.503366 0.472679 -0.043741
C86   C     C_R   0.158611 0.493746 0.043940 -0.055723
C87   C     C_R   0.158209 0.509330 0.546216 -0.046529
C88   C     C_R   0.163287 0.497275 0.970363 -0.042857
C89   C     C_R   0.434626 0.009396 0.541998 -0.024876
C90   C     C_R   0.818816 0.464388 0.644599 0.552149
C91   C     C_R   0.439809 0.997215 0.963333 0.010671
C92   C     C_R   0.437407 0.017622 0.467923 0.012141
C93   C     C_R   0.436663 0.007743 0.036965 -0.010019
C94   C     C_R   0.934630 0.509387 0.541992 -0.025309
C95   C     C_R   0.938191 0.486763 0.965838 0.016296
C96   C     C_R   0.937409 0.517615 0.467918 0.012187
C97   C     C_R   0.935005 0.499764 0.039049 -0.015204
C98   C     C_R   0.208848 0.996134 0.535036 0.011276
C99   C     C_R   0.214709 0.981304 0.970321 0.002062
C100  C     C_R   0.211448 0.034851 0.473938 -0.006143
C101  C     C_R   0.816928 0.440065 0.862285 0.531873
C102  C     C_R   0.210330 0.021165 0.030349 -0.000817
C103  C     C_R   0.708852 0.496127 0.535033 0.010966
C104  C     C_R   0.712221 0.470407 0.972999 0.000355
C105  C     C_R   0.711450 0.534846 0.473937 -0.005868
C106  C     C_R   0.709087 0.512563 0.031832 0.008370
C107  C     C_R   0.093463 0.964166 0.553070 -0.083321
C108  C     C_R   0.106616 0.943954 0.952849 -0.090289
C109  C     C_R   0.098673 0.063753 0.451033 -0.097047
C110  C     C_R   0.092210 0.046472 0.052125 -0.084829
C111  C     C_R   0.593466 0.464159 0.553068 -0.083244
C112  C     C_R   0.816763 0.561007 0.362174 0.537350
C113  C     C_R   0.600539 0.438686 0.952335 -0.095547
C114  C     C_R   0.598676 0.563750 0.451034 -0.097032
C115  C     C_R   0.592456 0.541457 0.051553 -0.085623
C116  C     C_R   0.984454 0.984039 0.521158 -0.119869
C117  C     C_R   0.992077 0.963649 0.979020 -0.118346
C118  C     C_R   0.986100 0.038790 0.474405 -0.107423
C119  C     C_R   0.984695 0.019950 0.023970 -0.116670
C120  C     C_R   0.484457 0.484034 0.521157 -0.119552
C121  C     C_R   0.487350 0.462581 0.976114 -0.110040
C122  C     C_R   0.486102 0.538787 0.474406 -0.107460
C123  C     C_R   0.817102 0.553889 0.137811 0.533908
C124  C     C_R   0.483905 0.518636 0.021379 -0.115003
C125  C     C_R   0.141316 0.760476 0.640858 0.553739
C126  C     C_R   0.132036 0.758298 0.856052 0.565399
C127  C     C_R   0.132268 0.241740 0.356152 0.562684
C128  C     C_R   0.140724 0.239843 0.140934 0.548710
C129  C     C_R   0.641317 0.260477 0.640858 0.554185
C130  C     C_R   0.633093 0.258672 0.856492 0.563869
C131  C     C_R   0.632268 0.741740 0.356152 0.562052
C132  C     C_R   0.639078 0.740372 0.141392 0.549521
C133  C     C_R   0.499637 0.786648 0.637314 0.561204
C134  C     C_3   0.159740 0.741878 0.458570 -0.075525
C135  C     C_R   0.495758 0.787283 0.862397 0.550426
C136  C     C_R   0.497606 0.213775 0.362657 0.535923
C137  C     C_R   0.500127 0.213583 0.137261 0.547441
C138  C     C_R   0.999637 0.286648 0.637314 0.561613
C139  C     C_R   0.995905 0.287145 0.862464 0.536354
C140  C     C_R   0.997607 0.713775 0.362657 0.535705
C141  C     C_R   0.999715 0.713483 0.137249 0.551496
C142  C     C_3   0.984031 0.793208 0.481530 -0.132123
C143  C     C_3   0.053575 0.799487 0.031032 -0.111240
C144  C     C_3   0.054277 0.201142 0.531335 -0.111636
Cr1   Cr    Cr6+3 0.488160 0.884660 0.750000 0.995321
Cr2   Cr    Cr6+3 0.333410 0.272740 0.250000 1.068085
Cr3   Cr    Cr6+3 0.833410 0.227260 0.750000 1.066584
Cr4   Cr    Cr6+3 0.833410 0.772740 0.250000 1.068766
Cr5   Cr    Cr6+3 0.488160 0.115340 0.250000 0.997846
Cr6   Cr    Cr6+3 0.988160 0.384660 0.750000 0.995919
Cr7   Cr    Cr6+3 0.988160 0.615340 0.250000 0.998145
Cr8   Cr    Cr6+3 0.173480 0.883120 0.750000 0.995504
Cr9   Cr    Cr6+3 0.173480 0.116880 0.250000 0.994515
Cr10  Cr    Cr6+3 0.673480 0.383120 0.750000 0.994607
Cr11  Cr    Cr6+3 0.673480 0.616880 0.250000 0.995570
Cr12  Cr    Cr6+3 0.333410 0.727260 0.750000 1.070713
F1    F     F_    0.223100 0.644450 0.541208 -0.656706
F2    F     F_    0.063706 0.623548 0.918215 -0.653117
F3    F     F_    0.064915 0.377079 0.418630 -0.652985
F4    F     F_    0.218817 0.358399 0.043228 -0.657516
F5    F     F_    0.723097 0.144450 0.541210 -0.656820
F6    F     F_    0.571218 0.125875 0.917380 -0.658510
F7    F     F_    0.564923 0.877082 0.418633 -0.652884
F8    F     F_    0.725586 0.855981 0.041429 -0.662653
H1    H     H_    0.170960 0.852243 0.503187 0.118172
H2    H     H_    0.910927 0.935624 0.963257 0.141118
H3    H     H_    0.902436 0.060590 0.453443 0.136425
H4    H     H_    0.897731 0.042140 0.039654 0.097504
H5    H     H_    0.400387 0.456898 0.533745 0.093271
H6    H     H_    0.404306 0.438315 0.957325 0.136811
H7    H     H_    0.402438 0.560589 0.453446 0.136389
H8    H     H_    0.398833 0.544301 0.034695 0.094673
H9    H     H_    0.919888 0.834277 0.463768 0.149426
H10   H     H_    0.050881 0.847674 0.062852 0.173661
H11   H     H_    0.051275 0.153122 0.563398 0.173127
H12   H     H_    0.253932 0.800051 0.983354 0.108485
H13   H     H_    0.920161 0.167354 0.963258 0.152713
H14   H     H_    0.419894 0.334280 0.463767 0.149386
H15   H     H_    0.549242 0.347931 0.064010 0.174937
H16   H     H_    0.551267 0.653122 0.563396 0.173562
H17   H     H_    0.411521 0.671315 0.965284 0.149778
H18   H     H_    0.884009 0.745203 0.583871 0.131587
H19   H     H_    0.904245 0.815750 0.941400 0.144673
H20   H     H_    0.905101 0.184397 0.442124 0.145301
H21   H     H_    0.882269 0.254815 0.084598 0.133595
H22   H     H_    0.384010 0.245208 0.583872 0.131074
H23   H     H_    0.255200 0.200919 0.484025 0.102086
H24   H     H_    0.405794 0.316025 0.942025 0.140382
H25   H     H_    0.405099 0.684400 0.442122 0.145302
H26   H     H_    0.380468 0.762079 0.084911 0.134477
H27   H     H_    0.942860 0.637418 0.500703 0.098199
H28   H     H_    0.861616 0.678360 0.006087 0.093603
H29   H     H_    0.863603 0.322893 0.506397 0.101047
H30   H     H_    0.941035 0.366068 0.003311 0.100593
H31   H     H_    0.442849 0.137424 0.500708 0.097949
H32   H     H_    0.366149 0.176951 0.005708 0.089786
H33   H     H_    0.363604 0.822895 0.506395 0.101214
H34   H     H_    0.174019 0.152706 0.999202 0.112861
H35   H     H_    0.451920 0.871770 0.997626 0.108748
H36   H     H_    0.235391 0.743008 0.418694 0.131916
H37   H     H_    0.216982 0.663912 0.047036 0.121246
H38   H     H_    0.217784 0.336705 0.547238 0.120542
H39   H     H_    0.232983 0.262085 0.919335 0.131311
H40   H     H_    0.735391 0.243004 0.418694 0.131875
H41   H     H_    0.720122 0.165421 0.047790 0.121886
H42   H     H_    0.717786 0.836702 0.547239 0.120543
H43   H     H_    0.732006 0.757343 0.919734 0.131574
H44   H     H_    0.746814 0.992357 0.444977 0.109275
H45   H     H_    0.670966 0.352241 0.503182 0.117984
H46   H     H_    0.741046 0.983055 0.072659 0.155373
H47   H     H_    0.741404 0.010203 0.577429 0.139333
H48   H     H_    0.751997 0.998142 0.939851 0.109779
H49   H     H_    0.246817 0.492357 0.444966 0.109274
H50   H     H_    0.241180 0.490515 0.075480 0.143974
H51   H     H_    0.241410 0.510202 0.577418 0.139558
H52   H     H_    0.249175 0.505172 0.942437 0.107735
H53   H     H_    0.568345 0.005546 0.377223 0.189633
H54   H     H_    0.548227 0.982447 0.131546 0.167604
H55   H     H_    0.547768 0.025884 0.637131 0.150465
H56   H     H_    0.754720 0.302158 0.984843 0.101916
H57   H     H_    0.570237 0.999802 0.872183 0.180789
H58   H     H_    0.068342 0.505538 0.377215 0.189499
H59   H     H_    0.047899 0.480039 0.134188 0.165723
H60   H     H_    0.047778 0.525874 0.637123 0.152445
H61   H     H_    0.070947 0.493129 0.874998 0.184827
H62   H     H_    0.095629 0.104327 0.413635 0.166264
H63   H     H_    0.080123 0.088166 0.089230 0.164437
H64   H     H_    0.083662 0.920498 0.587915 0.168411
H65   H     H_    0.109338 0.899444 0.919407 0.167258
H66   H     H_    0.595632 0.604326 0.413638 0.166278
H67   H     H_    0.755197 0.700916 0.484026 0.102136
H68   H     H_    0.581982 0.584099 0.087735 0.161967
H69   H     H_    0.583666 0.420492 0.587913 0.168011
H70   H     H_    0.599151 0.396393 0.916503 0.161967
H71   H     H_    0.665716 0.651335 0.002209 0.113560
H72   H     H_    0.900383 0.956904 0.533747 0.093272
O1    O     O_R   0.575450 0.828820 0.667950 -0.520628
O2    O     O_R   0.416860 0.942890 0.825320 -0.539141
O3    O     O_R   0.416860 0.057110 0.325320 -0.519546
O4    O     O_R   0.416860 0.057110 0.174680 -0.517731
O5    O     O_R   0.916860 0.442890 0.674680 -0.521893
O6    O     O_R   0.916860 0.442890 0.825320 -0.526078
O7    O     O_R   0.916860 0.557110 0.325320 -0.520156
O8    O     O_R   0.916860 0.557110 0.174680 -0.518602
O9    O     O_R   0.213790 0.953680 0.668330 -0.529930
O10   O     O_R   0.213790 0.953680 0.831670 -0.517348
O11   O     O_R   0.213790 0.046320 0.331670 -0.493582
O12   O     O_R   0.575450 0.828820 0.832050 -0.518325
O13   O     O_R   0.213790 0.046320 0.168330 -0.507459
O14   O     O_R   0.713790 0.453680 0.668330 -0.527083
O15   O     O_R   0.713790 0.453680 0.831670 -0.498215
O16   O     O_R   0.713790 0.546320 0.331670 -0.493973
O17   O     O_R   0.713790 0.546320 0.168330 -0.511825
O18   O     O_R   0.121360 0.817890 0.672660 -0.537910
O19   O     O_R   0.121360 0.817890 0.827340 -0.548188
O20   O     O_R   0.121360 0.182110 0.327340 -0.561637
O21   O     O_R   0.121360 0.182110 0.172660 -0.550169
O22   O     O_R   0.621360 0.317890 0.672660 -0.537689
O23   O     O_R   0.575450 0.171180 0.332050 -0.520682
O24   O     O_R   0.621360 0.317890 0.827340 -0.560671
O25   O     O_R   0.621360 0.682110 0.327340 -0.561920
O26   O     O_R   0.621360 0.682110 0.172660 -0.545615
O27   O     O_R   0.206850 0.711370 0.665820 -0.457310
O28   O     O_R   0.206850 0.711370 0.834180 -0.470606
O29   O     O_R   0.206850 0.288630 0.334180 -0.467626
O30   O     O_R   0.206850 0.288630 0.165820 -0.452831
O31   O     O_R   0.706850 0.211370 0.665820 -0.457135
O32   O     O_R   0.706850 0.211370 0.834180 -0.464612
O33   O     O_R   0.706850 0.788630 0.334180 -0.468076
O34   O     O_R   0.575450 0.171180 0.167950 -0.522744
O35   O     O_R   0.706850 0.788630 0.165820 -0.454683
O36   O     O_R   0.457710 0.733190 0.672630 -0.480828
O37   O     O_R   0.457710 0.733190 0.827370 -0.490354
O38   O     O_R   0.457710 0.266810 0.327370 -0.487832
O39   O     O_R   0.457710 0.266810 0.172630 -0.477569
O40   O     O_R   0.957710 0.233190 0.672630 -0.480421
O41   O     O_R   0.957710 0.233190 0.827370 -0.489907
O42   O     O_R   0.957710 0.766810 0.327370 -0.488059
O43   O     O_R   0.957710 0.766810 0.172630 -0.476211
O44   O     O_3   0.331690 0.831680 0.750000 -0.315049
O45   O     O_R   0.075450 0.328820 0.667950 -0.520733
O46   O     O_3   0.331690 0.168320 0.250000 -0.337723
O47   O     O_3   0.831690 0.331680 0.750000 -0.326411
O48   O     O_3   0.831690 0.668320 0.250000 -0.334526
O49   O     O_R   0.075450 0.328820 0.832050 -0.522986
O50   O     O_R   0.075450 0.671180 0.332050 -0.520789
O51   O     O_R   0.075450 0.671180 0.167950 -0.522562
O52   O     O_R   0.416860 0.942890 0.674680 -0.525185

loop_
_geom_bond_atom_site_label_1
_geom_bond_atom_site_label_2
_ccdc_geom_bond_type
C46   H41   S    
C6    C32   S    
C71   C104  A    
C73   C82   A    
C73   C93   A    
C74   C83   A    
Cr9   O21   S    
C9    C143  S    
C61   C133  S    
C65   C89   A    
C90   O14   A    
C52   C61   S    
C117  C119  A    
C86   C88   A    
C71   C95   A    
C69   C123  S    
C54   C134  S    
C9    H12   S    
C5    H15   S    
C37   C56   S    
C77   H59   S    
C50   C52   S    
C28   C144  S    
Cr6   O49   S    
C41   C61   S    
C80   H61   S    
C4    C12   S    
C20   C29   S    
C21   C48   S    
C100  C109  A    
C22   C130  S    
C7    C33   S    
C14   H56   S    
C47   F4    S    
Cr3   O41   S    
C109  C118  A    
C113  H70   S    
C11   C20   S    
C140  O42   A    
C141  O43   A    
C70   C103  A    
C67   C105  A    
C39   H31   S    
C137  O39   A    
C37   H29   S    
C17   C43   S    
C7    C62   S    
C18   C44   S    
C4    C59   S    
C124  H8    S    
C117  H2    S    
C69   C106  A    
C51   F8    S    
C94   C96   A    
Cr8   O9    S    
C22   C49   S    
C26   H18   S    
C34   C54   S    
C82   C84   A    
C64   C79   S    
C36   C44   S    
C37   C45   S    
Cr10  O24   S    
C16   C25   S    
C127  O29   A    
C46   C60   S    
C139  O41   A    
Cr2   O38   S    
Cr7   O51   S    
C137  O34   A    
C130  O24   A    
C95   C97   A    
C8    C17   S    
Cr4   O43   S    
C106  C115  A    
C2    C55   S    
C80   C88   A    
C36   C55   S    
C1    O9    A    
C76   C96   A    
C13   C45   S    
C78   C94   A    
C138  O45   A    
Cr5   O3    S    
C116  C118  A    
Cr6   O47   S    
C27   H19   S    
C20   C47   S    
C3    C11   S    
Cr7   O7    S    
Cr11  O25   S    
C67   C112  S    
C135  O37   A    
C76   C85   A    
C1    O52   A    
C78   H60   S    
C78   C87   A    
C40   C60   S    
C57   C66   S    
C13   H38   S    
C64   C102  A    
C99   C108  A    
C33   C42   S    
C6    C61   S    
C103  C111  A    
C12   H45   S    
C75   C84   A    
C40   C49   S    
C118  H3    S    
C3    C29   S    
Cr1   O52   S    
Cr12  O28   S    
Cr6   O5    S    
C2    C44   S    
C29   C38   S    
C1    C65   S    
C32   C41   S    
C77   C97   A    
C42   C62   S    
Cr10  O22   S    
C75   C91   A    
C13   C56   S    
C121  H6    S    
C133  O1    A    
C79   O4    A    
C81   C83   A    
C142  H9    S    
C55   C143  S    
C7    H17   S    
C8    C134  S    
C41   H33   S    
Cr10  O14   S    
C16   H71   S    
C51   C53   S    
Cr6   O45   S    
C62   C135  S    
Cr2   O29   S    
C86   H50   S    
C19   C28   S    
C27   C143  S    
Cr1   O2    S    
C38   C47   S    
C23   C131  S    
C103  C105  A    
C10   C144  S    
C12   C35   S    
C101  O6    A    
C21   C129  S    
C115  H68   S    
C132  O26   A    
C63   C68   S    
C5    C60   S    
C15   H67   S    
Cr9   O46   S    
C36   H28   S    
Cr4   O33   S    
C34   C43   S    
C4    H14   S    
C57   O10   A    
C43   F1    S    
C110  C119  A    
C109  H62   S    
C19   C45   S    
C80   C95   A    
C128  O21   A    
C14   C22   S    
C28   H20   S    
C11   H34   S    
C130  O32   A    
Cr7   O48   S    
C18   C126  S    
C28   C37   S    
C29   H21   S    
C30   C39   S    
C125  O18   A    
C107  C116  A    
C8    H1    S    
C104  C113  A    
C9    C18   S    
C113  C121  A    
C122  H7    S    
C128  O30   A    
C140  O50   A    
C25   C132  S    
C141  O51   A    
C25   C33   S    
C82   H46   S    
C69   C97   A    
C24   H39   S    
C55   C141  S    
C44   F2    S    
C45   F3    S    
C104  C106  A    
C14   C46   S    
C46   C49   S    
C42   H35   S    
C70   C94   A    
C65   C98   A    
Cr12  O44   S    
C72   C92   A    
C35   H40   S    
C31   C40   S    
C35   C59   S    
Cr5   O23   S    
C38   C58   S    
Cr4   O48   S    
Cr8   O10   S    
C72   C81   A    
Cr2   O46   S    
C6    H16   S    
C71   C101  S    
Cr4   O35   S    
Cr10  O47   S    
C101  O15   A    
C2    H37   S    
C35   C48   S    
C108  C117  A    
Cr2   O39   S    
Cr3   O32   S    
C23   C50   S    
C48   F5    S    
C98   C107  A    
C38   H30   S    
C33   H26   S    
C43   C134  S    
C91   C93   A    
Cr3   O47   S    
C10   C19   S    
C39   C59   S    
C116  H72   S    
C136  O23   A    
C126  O28   A    
C15   C52   S    
C5    C14   S    
C81   H44   S    
C63   C92   A    
C7    C16   S    
C54   C142  S    
C98   C100  A    
C102  C110  A    
C41   C50   S    
C115  C124  A    
C50   F7    S    
C136  O38   A    
C133  O36   A    
C68   O3    A    
Cr5   O34   S    
Cr8   O19   S    
Cr11  O16   S    
C84   H48   S    
Cr12  O36   S    
C27   C36   S    
C21   C30   S    
C23   C32   S    
Cr9   O11   S    
C111  H69   S    
C120  H5    S    
C123  O17   A    
C56   C144  S    
C3    C58   S    
Cr6   O6    S    
C99   C102  A    
C24   C58   S    
C87   H51   S    
C8    C142  S    
C143  H10   S    
C119  H4    S    
C39   C48   S    
C58   C139  S    
Cr11  O17   S    
C59   C136  S    
C132  O35   A    
C134  H36   S    
C72   H53   S    
C52   H42   S    
C17   C26   S    
C30   H22   S    
C74   C89   A    
C34   H27   S    
C64   C93   A    
C20   C128  S    
C110  H63   S    
Cr10  O15   S    
C11   C24   S    
Cr5   O4    S    
C139  O49   A    
Cr11  O48   S    
Cr2   O30   S    
C16   C53   S    
C121  C124  A    
Cr8   O44   S    
C6    C15   S    
Cr11  O26   S    
C26   C34   S    
C112  O7    A    
C54   C140  S    
Cr4   O42   S    
Cr1   O1    S    
C74   H55   S    
C73   H54   S    
Cr5   O46   S    
C126  O19   A    
Cr3   O40   S    
C129  O31   A    
C60   C137  S    
C15   C23   S    
Cr7   O8    S    
C79   O13   A    
C125  O27   A    
C70   C90   S    
C123  O8    A    
C120  C122  A    
C112  O16   A    
C108  H65   S    
C85   C87   A    
C68   O11   A    
C22   C31   S    
C127  O20   A    
C105  C114  A    
Cr3   O31   S    
C129  O22   A    
C76   H58   S    
Cr9   O13   S    
C12   C21   S    
C138  O40   A    
C111  C120  A    
C66   C99   A    
C31   H24   S    
C25   C51   S    
C63   C100  A    
C85   H49   S    
Cr12  O27   S    
C56   C138  S    
C53   C62   S    
C131  O33   A    
C107  H64   S    
C10   H23   S    
Cr12  O37   S    
C89   C92   A    
C49   F6    S    
Cr9   O20   S    
C77   C86   A    
C67   C96   A    
Cr1   O44   S    
Cr7   O50   S    
C40   H32   S    
C88   H52   S    
Cr1   O12   S    
C24   C47   S    
C135  O12   A    
C18   C27   S    
C57   O2    A    
C10   C13   S    
C114  H66   S    
C66   C91   A    
C42   C51   S    
C3    H13   S    
Cr8   O18   S    
C2    C9    S    
C17   C125  S    
C144  H11   S    
C19   C127  S    
C53   H43   S    
C32   H25   S    
C83   H47   S    
C114  C122  A    
C75   H57   S    
C90   O5    A    
C131  O25   A    
C26   C142  S    
C4    C30   S    
C5    C31   S    
