data_str_m4_o14_o22_f0_acs.sym.86
_audit_creation_date              2013-03-05T15:42:27-0500
_audit_creation_method            fapswitch 2.2
_symmetry_space_group_name_H-M    P1
_symmetry_Int_Tables_number       1
_space_group_crystal_system       triclinic
_cell_length_a                    11.059136
_cell_length_b                    10.984452
_cell_length_c                    18.858988
_cell_angle_alpha                 90.10775
_cell_angle_beta                  89.958007
_cell_angle_gamma                 59.380295
_cell_volume                      1971.51921452

loop_
_atom_site_label
_atom_site_type_symbol
_atom_site_description
_atom_site_fract_x
_atom_site_fract_y
_atom_site_fract_z
_atom_type_partial_charge
O1    O     O_R   0.507340 0.255690 0.581430 -0.506020
O2    O     O_R   0.280360 0.527380 0.578910 -0.511947
C1    C     C_R   0.240746 0.644077 0.611054 0.526343
O3    O     O_R   0.260600 0.739610 0.584580 -0.528331
O4    O     O_R   0.532370 0.695050 0.573830 -0.495671
C2    C     C_R   0.653468 0.622523 0.601000 0.554547
O5    O     O_R   0.744850 0.503430 0.576380 -0.519408
O6    O     O_R   0.699080 0.276500 0.571950 -0.517399
C3    C     C_R   0.628880 0.227480 0.602600 0.533006
O7    O     O_R   0.498860 0.256520 0.419860 -0.457335
O8    O     O_R   0.272490 0.528150 0.429140 -0.482284
C4    C     C_R   0.222221 0.652184 0.400844 0.533012
O9    O     O_R   0.252110 0.740440 0.423010 -0.536940
O10   O     O_R   0.524510 0.695820 0.424050 -0.461818
C5    C     C_R   0.619706 0.592808 0.385142 0.540611
O11   O     O_R   0.736370 0.504260 0.414810 -0.490889
O12   O     O_R   0.691220 0.277270 0.422180 -0.550372
C6    C     C_R   0.619409 0.220609 0.397612 0.545351
Cr1   Cr    Cr6+3 0.392940 0.397950 0.502230 1.083337
Cr2   Cr    Cr6+3 0.398400 0.708500 0.501260 1.062116
Cr3   Cr    Cr6+3 0.708640 0.393530 0.496460 1.030757
O13   O     O_3   0.499990 0.499990 0.499980 -0.285813
C7    C     C_3   0.576700 0.816437 0.780846 -0.232030
H1    H     H_    0.596829 0.904672 0.790093 0.148117
H2    H     H_    0.476247 0.844439 0.807908 0.114726
C8    C     C_3   0.561983 0.801690 0.700500 -0.238539
H3    H     H_    0.452837 0.828426 0.688944 0.129479
H4    H     H_    0.580618 0.878499 0.671151 0.130137
H5    H     H_    0.861050 0.723942 0.777583 0.128509
H6    H     H_    0.838478 0.694093 0.659137 0.118962
C9    C     C_3   0.835183 0.639149 0.770002 -0.220986
C10   C     C_3   0.665301 0.557455 0.800469 -0.248921
C11   C     C_3   0.699314 0.675650 0.811703 0.046017
H7    H     H_    0.752277 0.455207 0.821071 0.134202
H8    H     H_    0.568054 0.582383 0.829948 0.117556
C12   C     C_3   0.669211 0.648576 0.676295 0.050157
C13   C     C_3   0.818372 0.620548 0.690616 -0.244930
C14   C     C_3   0.645030 0.543130 0.720901 -0.216993
H9    H     H_    0.537197 0.562572 0.711642 0.126430
H10   H     H_    0.719991 0.432396 0.704250 0.151533
H11   H     H_    0.924713 0.539325 0.790465 0.168685
H12   H     H_    0.897161 0.510763 0.674436 0.147980
H13   H     H_    0.455006 0.218707 0.695769 0.167514
C15   C     C_R   0.688867 0.159740 0.824110 -0.011368
C16   C     C_R   0.804073 0.143947 0.782918 0.019408
C17   C     C_R   0.795173 0.143117 0.707534 0.012386
C18   C     C_R   0.554408 0.195662 0.717979 -0.159107
C19   C     C_R   0.563841 0.193106 0.790054 -0.164817
C20   C     C_R   0.927136 0.129543 0.813626 -0.092083
C21   C     C_R   0.041651 0.102751 0.771549 -0.138554
C22   C     C_R   0.036232 0.091299 0.698450 -0.130456
C23   C     C_R   0.915167 0.109328 0.666585 -0.085346
C24   C     C_R   0.666380 0.175611 0.675478 -0.010981
H14   H     H_    0.935899 0.143387 0.869597 0.142538
H15   H     H_    0.473908 0.207076 0.819316 0.154543
H16   H     H_    0.137090 0.085701 0.796017 0.091052
H17   H     H_    0.127149 0.066007 0.666232 0.109550
H18   H     H_    0.918439 0.092633 0.609970 0.141247
H19   H     H_    0.249556 0.822893 0.702635 0.136688
C25   C     C_R   0.193007 0.657476 0.837225 -0.008532
C26   C     C_R   0.198415 0.543216 0.799480 0.023467
C27   C     C_R   0.191692 0.547602 0.724152 0.018717
C28   C     C_R   0.226534 0.749009 0.727798 -0.150983
C29   C     C_R   0.218461 0.752444 0.800894 -0.154339
C30   C     C_R   0.209889 0.424986 0.835068 -0.098764
C31   C     C_R   0.199986 0.320882 0.798243 -0.152086
C32   C     C_R   0.176554 0.333360 0.725581 -0.158005
C33   C     C_R   0.170881 0.446026 0.688784 -0.112878
C34   C     C_R   0.207136 0.652506 0.687671 -0.003519
H20   H     H_    0.232610 0.408729 0.891170 0.129833
H21   H     H_    0.225301 0.834763 0.828941 0.134681
H22   H     H_    0.211397 0.230589 0.826719 0.104027
H23   H     H_    0.165097 0.254560 0.697134 0.121694
H24   H     H_    0.145870 0.453225 0.633158 0.148024
H25   H     H_    0.502994 0.846505 0.319908 0.197542
C35   C     C_R   0.713352 0.682058 0.179451 -0.002836
C36   C     C_R   0.793131 0.540415 0.207660 0.039356
C37   C     C_R   0.743482 0.509792 0.269073 0.020712
C38   C     C_R   0.579077 0.760788 0.287668 -0.112328
C39   C     C_R   0.612344 0.790744 0.221514 -0.163880
C40   C     C_R   0.919782 0.426252 0.177035 -0.075064
C41   C     C_R   0.979858 0.288403 0.199917 -0.077078
C42   C     C_R   0.921931 0.259142 0.256412 -0.043681
C43   C     C_R   0.802284 0.367121 0.288190 -0.067825
C44   C     C_R   0.641361 0.621579 0.311665 0.000002
H26   H     H_    0.983000 0.437952 0.137510 0.138248
H27   H     H_    0.558946 0.899119 0.203062 0.130317
H28   H     H_    0.074452 0.205185 0.175146 0.106224
H29   H     H_    0.972722 0.153066 0.276513 0.118935
H30   H     H_    0.755694 0.338597 0.327614 0.155325
H31   H     H_    0.872237 0.049601 0.330030 0.116372
C45   C     C_R   0.665638 0.132137 0.182361 0.016455
C46   C     C_R   0.535307 0.186437 0.215879 -0.042152
C47   C     C_R   0.532469 0.160848 0.288509 -0.022263
C48   C     C_R   0.779506 0.082881 0.297998 -0.176742
C49   C     C_R   0.788770 0.072040 0.224269 -0.153989
C50   C     C_R   0.408486 0.261542 0.178754 -0.171840
C51   C     C_R   0.283625 0.295372 0.211331 -0.149262
C52   C     C_R   0.281380 0.253337 0.280479 0.346992
C53   C     C_R   0.407774 0.171599 0.317169 0.244716
C54   C     C_R   0.648772 0.142086 0.330011 0.042925
H32   H     H_    0.404239 0.297903 0.125012 0.150545
H33   H     H_    0.892193 0.019950 0.200236 0.160082
H34   H     H_    0.189440 0.351979 0.181328 0.119964
H35   H     H_    0.068757 0.556809 0.334460 0.200809
C55   C     C_R   0.151673 0.664921 0.182709 -0.010092
C56   C     C_R   0.224498 0.726591 0.211272 0.022918
C57   C     C_R   0.203002 0.762978 0.283090 0.021626
C58   C     C_R   0.106591 0.609856 0.300569 -0.127819
C59   C     C_R   0.087006 0.613941 0.228068 -0.147265
C60   C     C_R   0.291755 0.778707 0.167564 -0.068811
C61   C     C_R   0.300458 0.894349 0.189598 -0.133811
C62   C     C_R   0.254554 0.948932 0.257079 -0.158363
C63   C     C_R   0.209355 0.883178 0.304241 -0.087805
C64   C     C_R   0.166839 0.682895 0.328999 -0.010683
H36   H     H_    0.322078 0.741124 0.113631 0.128248
H37   H     H_    0.017417 0.582171 0.207704 0.136648
H38   H     H_    0.338256 0.944396 0.153667 0.123056
H39   H     H_    0.256312 0.040709 0.273719 0.182351
H40   H     H_    0.169674 0.935108 0.354716 0.176166
O14   O     O_R   0.089570 0.825450 0.930590 -0.520960
O15   O     O_R   0.818700 0.054260 0.929860 -0.506297
C65   C     C_R   0.702421 0.102681 0.896222 0.537894
O16   O     O_R   0.606310 0.077010 0.915520 -0.533205
O17   O     O_R   0.646730 0.806540 0.917560 -0.504134
C66   C     C_R   0.724257 0.688742 0.887711 0.554310
O18   O     O_R   0.837290 0.593240 0.915240 -0.522191
O19   O     O_R   0.065320 0.635310 0.931580 -0.512615
C67   C     C_R   0.121440 0.703234 0.906616 0.536865
O20   O     O_R   0.068470 0.828620 0.091850 -0.522177
O21   O     O_R   0.799150 0.057200 0.079350 -0.506103
C68   C     C_R   0.679052 0.098742 0.106551 0.537153
O22   O     O_R   0.585220 0.080180 0.076770 -0.534273
O23   O     O_R   0.627170 0.809480 0.067050 -0.497183
C69   C     C_R   0.733131 0.713347 0.106178 0.556825
O24   O     O_R   0.816200 0.596410 0.076500 -0.539245
O25   O     O_R   0.045770 0.638240 0.081070 -0.541071
C70   C     C_R   0.094296 0.707229 0.112175 0.522990
Cr4   Cr    Cr6+3 0.937880 0.938320 0.007620 0.999307
Cr5   Cr    Cr6+3 0.625560 0.937220 0.994510 0.995335
Cr6   Cr    Cr6+3 0.938080 0.625010 0.001190 0.981320
O26   O     O_3   0.833840 0.833520 0.001110 -0.261189
F1    F     F_    0.156416 0.289754 0.310982 -0.635170
N1    N     N_R   0.410899 0.095234 0.380434 0.082438
O27   O     O_R   0.529972 0.997082 0.406598 -0.361843
O28   O     O_R   0.295222 0.120701 0.411620 -0.298211

loop_
_geom_bond_atom_site_label_1
_geom_bond_atom_site_label_2
_geom_bond_distance
_ccdc_geom_bond_type
C19   H15   1.077352 S    
C61   H38   1.082216 S    
C66   O18   1.264835 A    
C48   C49   1.394548 A    
O19   C67   1.279114 A    
C50   C51   1.377492 A    
C69   O24   1.265548 A    
O4    Cr2   1.967423 S    
C36   C37   1.394517 A    
O8    Cr1   1.946599 S    
C8    H3    1.109164 S    
O11   Cr3   2.081074 S    
C57   C64   1.429729 A    
C52   F1    1.354869 S    
C12   C13   1.540300 S    
C1    C34   1.482615 S    
Cr5   O26   1.986665 S    
O15   Cr4   1.951819 S    
C39   H27   1.082908 S    
O23   Cr5   1.955113 S    
O4    C2    1.267466 A    
Cr4   O26   2.003263 S    
C41   H28   1.082475 S    
C55   C70   1.446116 S    
C55   C56   1.397397 A    
C33   H24   1.077834 S    
C20   H14   1.077635 S    
C51   C52   1.388625 A    
C17   C23   1.410959 A    
C45   C49   1.415117 A    
O18   Cr6   2.094853 S    
C29   H21   1.082154 S    
C57   C63   1.414172 A    
C13   H12   1.111053 S    
C7    C8    1.541090 S    
C45   C46   1.397974 A    
O25   Cr6   1.971554 S    
C62   H39   1.064874 S    
C31   H22   1.078262 S    
C18   C19   1.362590 A    
C47   C54   1.428795 A    
C68   O22   1.284444 A    
C7    C11   1.561202 S    
C48   C54   1.384638 A    
C56   C57   1.396920 A    
C9    C11   1.555769 S    
C60   H36   1.083663 S    
C22   H17   1.082243 S    
C47   C53   1.428480 A    
O19   Cr6   1.968836 S    
C40   H26   1.073345 S    
C5    C44   1.468213 S    
C4    C64   1.455056 S    
C56   C60   1.412461 A    
C31   C32   1.388801 A    
Cr3   O13   1.986736 S    
C43   H30   1.039821 S    
O20   Cr4   2.073372 S    
C59   H37   1.065387 S    
C61   C62   1.386687 A    
C35   C69   1.467457 S    
C40   C41   1.377853 A    
O17   Cr5   1.967391 S    
C42   H29   1.073384 S    
O1    Cr1   2.066656 S    
C5    O11   1.283931 A    
C28   C29   1.380538 A    
C32   C33   1.393306 A    
C10   H8    1.113218 S    
O10   Cr2   1.970559 S    
C65   O16   1.283299 A    
Cr1   O13   2.002880 S    
O1    C3    1.280251 A    
C35   C36   1.444868 A    
N1    O28   1.301715 A    
C53   N1    1.450061 S    
O6    C3    1.285740 A    
C21   C22   1.388180 A    
C16   C17   1.425468 A    
O12   Cr3   1.968408 S    
C22   C23   1.387253 A    
H6    C13   1.113144 S    
C25   C26   1.416205 A    
C6    C54   1.478073 S    
C10   H7    1.113239 S    
C30   H20   1.081593 S    
O24   Cr6   2.088753 S    
C37   C43   1.404703 A    
C42   C43   1.383562 A    
C16   C20   1.412368 A    
O7    Cr1   2.081633 S    
C7    H1    1.112905 S    
O12   C6    1.317456 A    
C46   C47   1.402318 A    
C2    O5    1.264323 A    
C23   H18   1.080452 S    
C32   H23   1.078490 S    
C37   C44   1.418010 A    
C8    C12   1.551755 S    
Cr2   O13   1.971570 S    
C20   C21   1.392167 A    
C10   C14   1.536966 S    
O17   C66   1.262023 A    
C3    C24   1.465844 S    
C30   C31   1.388040 A    
C1    O3    1.278750 A    
O20   C70   1.273032 A    
C46   C50   1.401018 A    
C38   C44   1.395578 A    
C15   C16   1.424697 A    
C62   C63   1.390018 A    
C55   C59   1.402007 A    
H35   C58   1.082818 S    
C9    H11   1.108056 S    
O9    Cr2   2.084579 S    
C45   C68   1.463850 S    
O2    Cr1   1.961913 S    
H19   C28   1.077227 S    
O16   Cr5   2.073241 S    
C35   C39   1.392477 A    
O14   C67   1.283105 A    
N1    O27   1.302545 A    
O6    Cr3   1.958483 S    
C25   C67   1.477284 S    
O8    C4    1.296794 A    
O23   C69   1.332837 A    
C27   C33   1.414845 A    
O25   C70   1.272576 A    
C15   C65   1.473969 S    
C8    H4    1.113273 S    
C52   C53   1.401446 A    
C18   C24   1.394427 A    
C25   C29   1.392288 A    
C10   C11   1.539012 S    
O14   Cr4   2.081504 S    
C12   C14   1.561932 S    
O2    C1    1.275616 A    
C28   C34   1.404011 A    
H5    C9    1.113900 S    
C15   C19   1.394490 A    
O5    Cr3   2.091852 S    
Cr6   O26   1.971068 S    
C14   H10   1.111916 S    
C14   H9    1.113218 S    
H13   C18   1.079621 S    
C60   C61   1.384962 A    
O7    C6    1.253732 A    
C51   H34   1.064970 S    
C17   C24   1.416265 A    
C11   C66   1.480440 S    
C2    C12   1.475860 S    
C7    H2    1.113434 S    
C26   C30   1.410201 A    
C26   C27   1.422221 A    
C36   C40   1.440422 A    
C21   H16   1.077814 S    
O21   Cr4   1.959200 S    
C58   C64   1.385116 A    
H31   C48   1.081708 S    
C38   C39   1.387200 A    
O3    Cr2   2.090992 S    
C9    C13   1.534822 S    
C4    O9    1.244569 A    
C27   C34   1.426056 A    
O22   Cr5   2.085141 S    
C41   C42   1.363415 A    
C49   H33   1.082881 S    
O10   C5    1.307428 A    
O15   C65   1.282461 A    
C58   C59   1.381732 A    
H25   C38   1.074360 S    
C50   H32   1.082317 S    
C63   H40   1.080026 S    
O21   C68   1.271293 A    
