data_str_m9_o10_o29_f0_sra.sym.5
_audit_creation_date              2012-12-11T14:08:42-0500
_audit_creation_method            fapswitch 2.2
_symmetry_space_group_name_H-M    P1
_symmetry_Int_Tables_number       1
_space_group_crystal_system       triclinic
_cell_length_a                    28.050184
_cell_length_b                    7.208155
_cell_length_c                    17.154478
_cell_angle_alpha                 90.003442
_cell_angle_beta                  101.085816
_cell_angle_gamma                 89.994713
_cell_volume                      3403.74461961

loop_
_atom_site_label
_atom_site_type_symbol
_atom_type_description
_atom_site_fract_x
_atom_site_fract_y
_atom_site_fract_z
_atom_type_partial_charge
O1    O     O_R   0.000700 0.436510 0.857920 -0.532578
O2    O     O_R   0.999300 0.563490 0.142080 -0.532638
O3    O     O_R   0.999300 0.936510 0.642080 -0.532599
O4    O     O_R   0.000700 0.063490 0.357920 -0.532612
O5    O     O_R   0.930080 0.766380 0.721890 -0.541937
O6    O     O_R   0.069920 0.233620 0.278110 -0.541821
O7    O     O_R   0.069920 0.266380 0.778110 -0.541864
O8    O     O_R   0.930080 0.733620 0.221890 -0.541950
C1    C     C_R   0.910535 0.597715 0.709515 0.695534
C2    C     C_R   0.089477 0.402439 0.290448 0.695423
C3    C     C_R   0.089476 0.097547 0.790487 0.695446
C4    C     C_R   0.910533 0.902301 0.209517 0.695522
O9    O     O_R   0.996180 0.766230 0.862310 -0.542682
O10   O     O_R   0.003820 0.233770 0.137690 -0.542589
O11   O     O_R   0.003820 0.266230 0.637690 -0.542604
O12   O     O_R   0.996180 0.733770 0.362310 -0.542618
O13   O     O_R   0.065870 0.936460 0.783500 -0.539047
O14   O     O_R   0.934130 0.063540 0.216500 -0.538924
O15   O     O_R   0.934130 0.436460 0.716500 -0.538918
O16   O     O_R   0.065870 0.563540 0.283500 -0.539043
C5    C     C_R   0.998472 0.596508 0.894459 0.761202
C6    C     C_R   0.001527 0.403492 0.105541 0.761354
C7    C     C_R   0.001527 0.096503 0.605542 0.761455
C8    C     C_R   0.998472 0.903497 0.394458 0.761343
O17   O     O_3   0.022790 0.603020 0.723980 -0.377869
O18   O     O_3   0.977210 0.396980 0.276020 -0.377952
O19   O     O_3   0.977210 0.103020 0.776020 -0.377967
O20   O     O_3   0.022790 0.896980 0.223980 -0.377930
V1    V     V_3+5 0.995770 0.877900 0.754830 1.409726
V2    V     V_3+5 0.004230 0.122100 0.245170 1.409840
V3    V     V_3+5 0.004230 0.377900 0.745170 1.409813
V4    V     V_3+5 0.995770 0.622100 0.254830 1.409712
C9    C     C_2   0.001712 0.082588 0.519488 -0.330671
C10   C     C_2   0.998287 0.917412 0.480512 -0.330556
C11   C     C_2   0.998289 0.582592 0.980516 -0.330575
C12   C     C_2   0.001710 0.417409 0.019484 -0.330594
H1    H     H_    0.004510 0.211121 0.487627 0.153770
H2    H     H_    0.995488 0.788879 0.512373 0.153759
H3    H     H_    0.995494 0.711129 0.012382 0.153745
H4    H     H_    0.004505 0.288872 0.987617 0.153762
C13   C     C_R   0.683222 0.913233 0.034918 0.570562
C14   C     C_R   0.315663 0.045343 0.966960 0.574030
C15   C     C_R   0.315668 0.453977 0.466728 0.573891
C16   C     C_R   0.683225 0.586932 0.534825 0.570470
O21   O     O_2   0.713072 0.876087 0.983826 -0.518321
O22   O     O_2   0.285024 0.052809 0.018709 -0.516363
O23   O     O_2   0.285032 0.445824 0.518465 -0.516401
O24   O     O_2   0.713079 0.623967 0.483729 -0.518383
N1    N     N_R   0.702239 0.939736 0.113409 -0.552087
N2    N     N_R   0.297532 0.052080 0.887394 -0.553790
N3    N     N_R   0.297535 0.447959 0.387154 -0.553808
N4    N     N_R   0.702239 0.560444 0.613321 -0.552001
C17   C     C_R   0.673099 0.977801 0.166963 0.556794
C18   C     C_R   0.327392 0.044582 0.833026 0.557164
C19   C     C_R   0.327386 0.456322 0.332792 0.557293
C20   C     C_R   0.673089 0.522426 0.666864 0.556727
C21   C     C_R   0.778093 0.757896 0.145881 -0.085384
C22   C     C_R   0.222790 0.237364 0.847043 -0.084833
C23   C     C_R   0.217646 0.597397 0.346898 -0.094605
C24   C     C_R   0.778148 0.742135 0.645118 -0.085330
C25   C     C_R   0.828714 0.748613 0.168909 -0.190003
C26   C     C_R   0.172152 0.248844 0.824022 -0.190031
C27   C     C_R   0.167094 0.586525 0.324009 -0.188993
C28   C     C_R   0.828767 0.751368 0.668175 -0.190151
C29   C     C_R   0.832245 0.083676 0.179886 -0.193024
C30   C     C_R   0.166907 0.913471 0.827464 -0.188695
C31   C     C_R   0.171975 0.250867 0.327071 -0.189554
C32   C     C_R   0.832207 0.416558 0.680570 -0.193257
C33   C     C_R   0.781612 0.092417 0.157215 -0.089760
C34   C     C_R   0.217449 0.902555 0.850452 -0.094958
C35   C     C_R   0.222610 0.262296 0.350112 -0.085180
C36   C     C_R   0.781574 0.407872 0.657877 -0.089591
C37   C     C_R   0.754251 0.929770 0.139801 0.393492
C38   C     C_R   0.245647 0.064194 0.860546 0.398305
C39   C     C_R   0.245656 0.435602 0.360289 0.398578
C40   C     C_R   0.754254 0.570412 0.639732 0.393050
C41   C     C_R   0.601648 0.965198 0.060068 -0.056201
C42   C     C_R   0.397927 0.022265 0.941242 -0.057992
C43   C     C_R   0.397926 0.477844 0.441042 -0.057879
C44   C     C_R   0.601644 0.535024 0.559951 -0.056213
C45   C     C_R   0.633010 0.926193 0.006839 -0.040257
C46   C     C_R   0.365827 0.031267 0.995296 -0.043134
C47   C     C_R   0.365826 0.468279 0.495081 -0.042950
C48   C     C_R   0.633013 0.574041 0.506739 -0.040294
C49   C     C_R   0.613845 0.900398 0.926200 -0.163974
C50   C     C_R   0.384191 0.024444 0.076959 -0.164773
C51   C     C_R   0.384181 0.474824 0.576748 -0.164901
C52   C     C_R   0.613855 0.599893 0.426103 -0.163856
C53   C     C_R   0.621454 0.990479 0.142198 -0.074488
C54   C     C_R   0.378884 0.026759 0.858090 -0.074527
C55   C     C_R   0.378885 0.473850 0.357881 -0.074604
C56   C     C_R   0.621444 0.509725 0.642080 -0.074457
C57   C     C_R   0.856580 0.911563 0.185888 -0.052248
C58   C     C_R   0.143429 0.086873 0.814187 -0.052725
C59   C     C_R   0.143434 0.413033 0.314029 -0.052652
C60   C     C_R   0.856585 0.588511 0.685872 -0.052180
H5    H     H_    0.852242 0.212123 0.192603 0.135493
H6    H     H_    0.146304 0.785526 0.820524 0.135069
H7    H     H_    0.155262 0.114946 0.320100 0.132300
H8    H     H_    0.852172 0.288208 0.693883 0.135610
H9    H     H_    0.763638 0.226063 0.152357 0.115389
H10   H     H_    0.234731 0.768132 0.861053 0.111447
H11   H     H_    0.243923 0.136350 0.360699 0.112574
H12   H     H_    0.763567 0.274333 0.653576 0.115741
H13   H     H_    0.637161 0.867541 0.884575 0.173883
H14   H     H_    0.360156 0.026459 0.119415 0.176062
H15   H     H_    0.360142 0.472455 0.619194 0.176058
H16   H     H_    0.637175 0.632747 0.384490 0.173870
C61   C     C_R   0.481145 0.989546 0.917652 -0.003037
C62   C     C_R   0.518710 0.010477 0.083443 -0.003906
C63   C     C_R   0.518702 0.489581 0.583288 -0.003891
C64   C     C_R   0.481147 0.510853 0.417496 -0.003055
C65   C     C_R   0.467438 0.012098 0.054323 0.053159
C66   C     C_R   0.531768 0.961750 0.947574 0.050485
C67   C     C_R   0.531770 0.538590 0.447442 0.050516
C68   C     C_R   0.467431 0.487806 0.554148 0.053094
C69   C     C_R   0.448947 0.007810 0.971034 0.065521
C70   C     C_R   0.550587 0.978908 0.030433 0.061620
C71   C     C_R   0.550583 0.521309 0.530299 0.061592
C72   C     C_R   0.448945 0.492331 0.470858 0.065430
C73   C     C_R   0.462019 0.001871 0.835598 -0.190098
C74   C     C_R   0.538932 0.042166 0.164120 -0.191142
C75   C     C_R   0.538924 0.457890 0.663968 -0.191047
C76   C     C_R   0.462028 0.498748 0.335433 -0.190137
C77   C     C_R   0.411907 0.014817 0.804171 0.073945
C78   C     C_R   0.589101 0.029390 0.195316 0.074079
C79   C     C_R   0.589088 0.470781 0.695182 0.074061
C80   C     C_R   0.411919 0.485849 0.303980 0.073923
O25   O     O_2   0.306820 0.055324 0.755487 -0.532038
O26   O     O_2   0.694557 0.002859 0.243454 -0.533440
O27   O     O_2   0.694535 0.497476 0.743367 -0.533516
O28   O     O_2   0.306802 0.446560 0.255233 -0.531956
C81   C     C_R   0.564380 0.915363 0.897260 -0.189152
C82   C     C_R   0.433770 0.014807 0.105935 -0.193238
C83   C     C_R   0.433753 0.484692 0.605743 -0.193121
C84   C     C_R   0.564391 0.585014 0.397151 -0.189216
H17   H     H_    0.155588 0.384692 0.814405 0.132807
H18   H     H_    0.845959 0.613644 0.172716 0.132508
H19   H     H_    0.846051 0.886199 0.671409 0.132508
H20   H     H_    0.146627 0.714599 0.314447 0.135301
H21   H     H_    0.244250 0.363231 0.855060 0.112906
H22   H     H_    0.757361 0.631299 0.132380 0.115713
H23   H     H_    0.757455 0.868647 0.631046 0.116029
H24   H     H_    0.235072 0.731965 0.354915 0.111337
H25   H     H_    0.486528 0.008000 0.795020 0.111453
H26   H     H_    0.515572 0.084416 0.203312 0.113332
H27   H     H_    0.515572 0.415575 0.703154 0.113319
H28   H     H_    0.486541 0.492748 0.294865 0.111491
H29   H     H_    0.552851 0.885347 0.834959 0.117678
H30   H     H_    0.444320 0.003771 0.169547 0.117926
H31   H     H_    0.444285 0.495528 0.669364 0.117900
H32   H     H_    0.552875 0.615103 0.334856 0.117669
C85   C     C_3   0.394105 0.012694 0.713724 -0.290968
C86   C     C_3   0.432663 0.984753 0.661658 -0.381259
C87   C     C_3   0.409387 0.970466 0.573716 -0.695050
H33   H     H_    0.382760 0.855259 0.563573 0.238621
H34   H     H_    0.390240 0.100694 0.552769 0.238766
H35   H     H_    0.437907 0.944442 0.538209 0.218988
H36   H     H_    0.458274 0.103953 0.669146 0.200740
H37   H     H_    0.453247 0.854721 0.679143 0.204001
H38   H     H_    0.367870 0.896339 0.699418 0.218652
H39   H     H_    0.375441 0.146313 0.695705 0.214172
C88   C     C_3   0.607696 0.056330 0.284748 -0.292258
C89   C     C_3   0.569565 0.089471 0.337059 -0.383950
C90   C     C_3   0.593369 0.103363 0.424772 -0.693078
H40   H     H_    0.611238 0.971006 0.446157 0.235752
H41   H     H_    0.621203 0.214405 0.433935 0.240860
H42   H     H_    0.565371 0.135130 0.460610 0.220086
H43   H     H_    0.549967 0.221426 0.319476 0.202536
H44   H     H_    0.543076 0.973137 0.330040 0.202224
H45   H     H_    0.627979 0.929263 0.307923 0.214917
H46   H     H_    0.632625 0.177656 0.293099 0.217602
C91   C     C_3   0.607674 0.443904 0.784621 -0.292239
C92   C     C_3   0.569540 0.410743 0.836920 -0.384040
C93   C     C_3   0.593336 0.396889 0.924636 -0.693062
H47   H     H_    0.621175 0.285843 0.933811 0.240864
H48   H     H_    0.611200 0.529253 0.946018 0.235781
H49   H     H_    0.565336 0.365147 0.960468 0.220085
H50   H     H_    0.543039 0.527056 0.829887 0.202215
H51   H     H_    0.549958 0.278763 0.819337 0.202482
H52   H     H_    0.632620 0.322614 0.792991 0.217584
H53   H     H_    0.627935 0.571014 0.807793 0.214939
C94   C     C_3   0.394134 0.487844 0.213527 -0.290978
C95   C     C_3   0.432727 0.514921 0.161462 -0.381247
C96   C     C_3   0.409483 0.528733 0.073492 -0.695061
H54   H     H_    0.390238 0.398598 0.052713 0.238786
H55   H     H_    0.382946 0.644233 0.063173 0.238610
H56   H     H_    0.438035 0.553997 0.037974 0.218935
H57   H     H_    0.453378 0.644866 0.178793 0.203996
H58   H     H_    0.458273 0.395501 0.169126 0.200812
H59   H     H_    0.375364 0.354396 0.195568 0.214328
H60   H     H_    0.367996 0.604501 0.199145 0.218634

loop_
_geom_bond_atom_site_label_1
_geom_bond_atom_site_label_2
_ccdc_geom_bond_type
O17   V3    S    
C47   C51   A    
N1    C17   A    
C22   C26   A    
C90   H40   S    
C92   H51   S    
C87   H34   S    
O13   V1    S    
C27   H20   S    
O3    C7    A    
C11   C12   D    
C14   C46   A    
C44   C48   A    
O4    V2    S    
O15   V3    S    
C94   H60   S    
C62   C70   A    
C34   C38   A    
C61   C69   A    
C93   H48   S    
C68   C83   A    
C91   C92   S    
C42   C54   A    
O1    C5    A    
C76   H28   S    
C41   C53   A    
C32   C60   A    
C21   H22   S    
C63   C71   A    
C89   C90   S    
N3    C39   S    
C18   C54   A    
N2    C38   S    
C24   H23   S    
C52   H16   S    
C25   C57   A    
C25   H18   S    
C96   H55   S    
C31   C35   A    
O19   V1    S    
C67   C84   A    
C82   H30   S    
C27   C59   A    
O1    V3    S    
C15   C47   A    
C95   C96   S    
O2    V4    S    
C14   O22   S    
C21   C37   A    
O3    V1    S    
C92   C93   S    
C19   C55   A    
C73   C77   A    
C89   H44   S    
C1    O15   A    
C88   C89   S    
C2    O16   A    
C7    C9    S    
C50   C82   A    
O2    C6    A    
C33   C37   A    
C63   C68   A    
O14   V2    S    
C88   H45   S    
C43   C55   A    
C79   C91   S    
C31   H7    S    
C30   C58   A    
C16   N4    A    
O11   C7    A    
C44   C71   A    
C91   H52   S    
O12   C8    A    
C87   H35   S    
C31   C59   A    
C89   H43   S    
C50   H14   S    
C80   C94   S    
O10   V2    S    
C49   H13   S    
C13   N1    A    
C84   H32   S    
C77   C85   S    
O7    C3    A    
C93   H49   S    
O5    V1    S    
C53   C78   A    
O7    V3    S    
C86   H37   S    
C63   C75   A    
O8    V4    S    
C51   C83   A    
C12   H4    S    
C42   C69   A    
C81   H29   S    
C52   C84   A    
C41   C70   A    
C55   C80   A    
C64   C72   A    
O18   V4    S    
C96   H56   S    
C36   H12   S    
N4    C40   S    
C46   C50   A    
O11   V3    S    
C24   C40   A    
C8    C10   S    
C68   C72   A    
C85   H38   S    
C32   C36   A    
C74   C78   A    
C11   H3    S    
C94   C95   S    
C32   H8    S    
O5    C1    A    
C88   H46   S    
C54   C77   A    
C42   C46   A    
C75   C79   A    
C93   H47   S    
C1    C60   S    
C41   C45   A    
O8    C4    A    
C13   C45   A    
C43   C72   A    
C9    C10   D    
O9    C5    A    
C36   C40   A    
N2    C18   A    
C21   C25   A    
C44   C56   A    
C62   C65   A    
C28   C60   A    
C86   C87   S    
C66   C70   A    
C61   C66   A    
C14   N2    A    
C65   C69   A    
C3    C58   S    
O6    V2    S    
C75   H27   S    
C91   H53   S    
C90   H42   S    
C67   C71   A    
C65   C82   A    
C26   C58   A    
C17   C53   A    
O10   C6    A    
C73   H25   S    
N1    C37   S    
C4    C57   S    
C78   C88   S    
C56   C79   A    
C23   C39   A    
C22   C38   A    
O16   V4    S    
O9    V1    S    
C83   H31   S    
C18   O25   S    
C35   H11   S    
C3    O13   A    
C95   H58   S    
C10   H2    S    
C48   C52   A    
C17   O26   S    
C16   C48   A    
C94   H59   S    
C23   H24   S    
C34   H10   S    
C64   C76   A    
C5    C11   S    
C33   H9    S    
O12   V4    S    
C6    C12   S    
C23   C27   A    
C76   C80   A    
C85   H39   S    
C24   C28   A    
C30   H6    S    
O20   V2    S    
C29   H5    S    
C86   H36   S    
C62   C74   A    
C35   C39   A    
C22   H21   S    
C15   N3    A    
C96   H54   S    
C30   C34   A    
C2    C59   S    
O4    C8    A    
C29   C33   A    
C29   C57   A    
C66   C81   A    
N3    C19   A    
C74   H26   S    
C26   H17   S    
C9    H1    S    
C20   O27   S    
O6    C2    A    
C43   C47   A    
N4    C20   A    
C20   C56   A    
C51   H15   S    
C90   H41   S    
C19   O28   S    
C4    O14   A    
C87   H33   S    
C13   O21   S    
C95   H57   S    
C61   C73   A    
C85   C86   S    
C15   O23   S    
C92   H50   S    
C64   C67   A    
C45   C49   A    
C16   O24   S    
C49   C81   A    
C28   H19   S    
