data_str_m9_o5_o16_f0_sra.sym.66
_audit_creation_date              2012-12-11T17:14:08-0500
_audit_creation_method            fapswitch 2.2
_symmetry_space_group_name_H-M    P1
_symmetry_Int_Tables_number       1
_space_group_crystal_system       triclinic
_cell_length_a                    18.22485
_cell_length_b                    7.093283
_cell_length_c                    13.019055
_cell_angle_alpha                 90.32988
_cell_angle_beta                  72.003818
_cell_angle_gamma                 89.908178
_cell_volume                      1600.65043127

loop_
_atom_site_label
_atom_site_type_symbol
_atom_type_description
_atom_site_fract_x
_atom_site_fract_y
_atom_site_fract_z
_atom_type_partial_charge
O1    O     O_R   0.453880 0.506200 0.150010 -0.538227
O2    O     O_R   0.546120 0.006200 0.849990 -0.542317
O3    O     O_R   0.604080 0.177770 0.007280 -0.542431
O4    O     O_R   0.395920 0.677770 0.992720 -0.540508
C1    C     C_R   0.635968 0.344424 0.001816 0.753340
C2    C     C_R   0.364031 0.844605 0.998171 0.753345
O5    O     O_R   0.458010 0.176640 0.159130 -0.543613
O6    O     O_R   0.541990 0.676640 0.840870 -0.539698
O7    O     O_R   0.399010 0.004010 0.002930 -0.539984
O8    O     O_R   0.600990 0.504010 0.997070 -0.538026
C3    C     C_R   0.443259 0.346027 0.201731 0.774710
C4    C     C_R   0.556774 0.844505 0.798212 0.774557
O9    O     O_3   0.480810 0.338440 0.948570 -0.378687
O10   O     O_3   0.519190 0.838440 0.051430 -0.378055
V1    V     V_3+5 0.503560 0.064490 0.009540 1.463205
V2    V     V_3+5 0.496440 0.564490 0.990460 1.474819
C5    C     C_R   0.582891 0.820925 0.500944 -0.185949
C6    C     C_R   0.416208 0.421900 0.496719 -0.190018
H1    H     H_    0.662119 0.808483 0.292802 0.150062
H2    H     H_    0.336496 0.459581 0.703703 0.154664
H3    H     H_    0.547233 0.804548 0.448511 0.169633
H4    H     H_    0.451446 0.454115 0.548038 0.174385
C7    C     C_R   0.592374 0.849355 0.681249 -0.144810
C8    C     C_R   0.407536 0.358330 0.318536 -0.145532
C9    C     C_R   0.953928 0.883349 0.384471 -0.171487
C10   C     C_R   0.046639 0.315059 0.617146 -0.170376
C11   C     C_R   0.922231 0.889642 0.496065 -0.127343
C12   C     C_R   0.078607 0.293082 0.506201 -0.126442
C13   C     C_R   0.842620 0.879122 0.543965 -0.159848
C14   C     C_R   0.157994 0.308796 0.457676 -0.160244
C15   C     C_R   0.792178 0.861349 0.480522 0.105090
C16   C     C_R   0.207925 0.347825 0.519794 0.104988
C17   C     C_R   0.825273 0.852198 0.366022 0.059598
C18   C     C_R   0.174522 0.372603 0.633507 0.060154
C19   C     C_R   0.710172 0.852956 0.526685 0.076496
C20   C     C_R   0.289720 0.362564 0.473090 0.077542
C21   C     C_R   0.663486 0.832809 0.457615 0.050888
C22   C     C_R   0.335861 0.403932 0.540740 0.050302
C23   C     C_R   0.697397 0.823623 0.345848 -0.117204
C24   C     C_R   0.301641 0.428087 0.651737 -0.119923
C25   C     C_R   0.776895 0.833731 0.300613 -0.197376
C26   C     C_R   0.222366 0.412281 0.697569 -0.198144
C27   C     C_R   0.672610 0.862851 0.639205 -0.315024
C28   C     C_R   0.327581 0.338598 0.361344 -0.314539
C29   C     C_R   0.547530 0.827636 0.612222 0.582603
C30   C     C_R   0.451836 0.400638 0.386077 0.584587
C31   C     C_R   0.906353 0.864041 0.319034 -0.070257
C32   C     C_R   0.093697 0.355204 0.681177 -0.071319
H5    H     H_    0.703802 0.877686 0.696852 0.121576
H6    H     H_    0.296807 0.307377 0.304755 0.121579
H7    H     H_    0.015917 0.894555 0.348805 0.103658
H8    H     H_    0.984866 0.299805 0.653445 0.104413
H9    H     H_    0.822699 0.885651 0.630820 0.107286
H10   H     H_    0.178151 0.289268 0.371420 0.107276
H11   H     H_    0.959660 0.904282 0.546034 0.128137
H12   H     H_    0.041587 0.262273 0.457287 0.128183
H13   H     H_    0.800130 0.826449 0.213455 0.123182
H14   H     H_    0.198868 0.431971 0.784100 0.123707
C33   C     C_1   0.216322 0.858613 0.000246 -0.182946
C34   C     C_1   0.783677 0.358896 0.999740 -0.182401
C35   C     C_1   0.283617 0.852686 0.999049 -0.169061
C36   C     C_1   0.716387 0.352478 0.000944 -0.168394
O11   O     O_R   0.899030 0.205490 0.002790 -0.535404
O12   O     O_R   0.100970 0.705490 0.997210 -0.536927
O13   O     O_R   0.042000 0.536370 0.840840 -0.541119
O14   O     O_R   0.958000 0.036370 0.159160 -0.540065
C37   C     C_R   0.057578 0.367442 0.798297 0.681655
C38   C     C_R   0.942365 0.868973 0.201759 0.681908
O15   O     O_R   0.895930 0.535070 0.992690 -0.540604
O16   O     O_R   0.104070 0.035070 0.007310 -0.539098
O17   O     O_R   0.953870 0.707520 0.150040 -0.538181
O18   O     O_R   0.046130 0.207520 0.849960 -0.537008
C39   C     C_R   0.864126 0.366850 0.998725 0.729737
C40   C     C_R   0.135878 0.866644 0.001273 0.730093
O19   O     O_3   0.019200 0.374340 0.051340 -0.374445
O20   O     O_3   0.980800 0.874340 0.948660 -0.374848
V3    V     V_3+5 0.996440 0.648350 0.990470 1.427115
V4    V     V_3+5 0.003560 0.148350 0.009530 1.431879
F1    F     F_    0.469651 0.812149 0.652700 -0.710624
F2    F     F_    0.529413 0.422140 0.344747 -0.707850

loop_
_geom_bond_atom_site_label_1
_geom_bond_atom_site_label_2
_ccdc_geom_bond_type
O14   C38   A    
C7    C29   A    
O16   V4    S    
O12   V3    S    
C3    C8    S    
O15   V3    S    
C18   C26   A    
O2    C4    A    
C26   H14   S    
C2    O7    A    
C12   H12   S    
C23   C25   A    
O5    C3    A    
C14   H10   S    
C4    C7    S    
C16   C20   A    
C2    C35   S    
C19   C21   A    
C5    C29   A    
H2    C24   S    
C11   H11   S    
C11   C13   A    
C34   C39   S    
C7    C27   A    
C34   C36   T    
C37   O18   A    
O18   V4    S    
O13   C37   A    
O1    C3    A    
O16   C40   A    
C15   C17   A    
O15   C39   A    
C14   C16   A    
C19   C27   A    
C9    C31   A    
C10   C32   A    
C24   C26   A    
O6    V2    S    
C6    C30   A    
O14   V4    S    
C33   C35   T    
O13   V3    S    
O20   V3    S    
O4    C2    A    
C27   H5    S    
O5    V1    S    
O11   C39   A    
C5    H3    S    
C16   C18   A    
O4    V2    S    
C9    H7    S    
C10   H8    S    
O6    C4    A    
C29   F1    S    
O1    V2    S    
C5    C21   A    
O2    V1    S    
O19   V3    S    
C33   C40   S    
H1    C23   S    
C17   C31   A    
C15   C19   A    
C20   C28   A    
C18   C32   A    
C31   C38   S    
O17   V3    S    
O3    V1    S    
C28   H6    S    
C6    H4    S    
O20   V4    S    
O3    C1    A    
C9    C11   A    
C10   C12   A    
C17   C25   A    
C12   C14   A    
C6    C22   A    
C25   H13   S    
C1    O8    A    
C21   C23   A    
O8    V2    S    
C22   C24   A    
C13   H9    S    
C38   O17   A    
C8    C28   A    
C20   C22   A    
C1    C36   S    
C32   C37   S    
O7    V1    S    
O19   V4    S    
C13   C15   A    
O9    V2    S    
O12   C40   A    
O10   V1    S    
C30   F2    S    
C8    C30   A    
O11   V4    S    
