data_str_m9_o17_o18_f0_sra.sym.78
_audit_creation_date              2012-12-11T15:18:40-0500
_audit_creation_method            fapswitch 2.2
_symmetry_space_group_name_H-M    P1
_symmetry_Int_Tables_number       1
_space_group_crystal_system       triclinic
_cell_length_a                    6.942813
_cell_length_b                    19.905701
_cell_length_c                    23.782699
_cell_angle_alpha                 93.538355
_cell_angle_beta                  91.340616
_cell_angle_gamma                 88.483816
_cell_volume                      3278.61171718

loop_
_atom_site_label
_atom_site_type_symbol
_atom_type_description
_atom_site_fract_x
_atom_site_fract_y
_atom_site_fract_z
_atom_type_partial_charge
O1    O     O_R   0.620100 0.812200 0.810870 -0.539283
O2    O     O_R   0.379900 0.187800 0.189130 -0.539283
O3    O     O_R   0.296960 0.671650 0.794750 -0.539690
O4    O     O_R   0.703040 0.328350 0.205250 -0.539690
O5    O     O_R   0.120160 0.687800 0.689130 -0.542337
O6    O     O_R   0.879840 0.312200 0.310870 -0.542337
C1    C     C_R   0.468975 0.647094 0.804794 0.705872
C2    C     C_R   0.531024 0.352906 0.195206 0.705872
O7    O     O_R   0.290810 0.810670 0.817290 -0.544416
O8    O     O_R   0.709190 0.189330 0.182710 -0.544416
O9    O     O_R   0.113980 0.827820 0.711840 -0.537125
O10   O     O_R   0.886020 0.172180 0.288160 -0.537125
C3    C     C_R   0.459443 0.831983 0.834145 0.707205
C4    C     C_R   0.540557 0.168017 0.165855 0.707204
O11   O     O_R   0.626290 0.672180 0.788160 -0.536648
O12   O     O_R   0.373710 0.327820 0.211840 -0.536648
O13   O     O_3   0.451520 0.755460 0.715370 -0.368312
O14   O     O_3   0.548480 0.244540 0.284630 -0.368312
V1    V     V_3+5 0.179200 0.748980 0.756420 1.423752
V2    V     V_3+5 0.820800 0.251020 0.243580 1.423752
O15   O     O_R   0.783880 0.828350 0.705250 -0.536596
O16   O     O_R   0.216120 0.171650 0.294750 -0.536595
C5    C     C_R   0.949568 0.852814 0.695007 0.703452
C6    C     C_R   0.050432 0.147186 0.304993 0.703452
O17   O     O_R   0.790030 0.689320 0.682700 -0.541529
O18   O     O_R   0.209970 0.310680 0.317300 -0.541528
C7    C     C_R   0.958994 0.668237 0.665626 0.714446
C8    C     C_R   0.041006 0.331763 0.334374 0.714446
V3    V     V_3+5 0.678400 0.751010 0.743570 1.434197
V4    V     V_3+5 0.321600 0.248990 0.256430 1.434198
O19   O     O_3   0.955950 0.744540 0.784620 -0.367663
O20   O     O_3   0.044050 0.255460 0.215380 -0.367663
C9    C     C_R   0.181130 0.425862 0.396361 -0.216648
C10   C     C_R   0.818870 0.574138 0.603639 -0.216648
C11   C     C_R   0.030894 0.380752 0.384016 -0.074849
C12   C     C_R   0.969106 0.619248 0.615984 -0.074849
C13   C     C_R   0.868768 0.383546 0.418692 -0.196453
C14   C     C_R   0.131232 0.616454 0.581308 -0.196451
C15   C     C_R   0.856579 0.430295 0.465312 0.089134
C16   C     C_R   0.143421 0.569704 0.534688 0.089134
C17   C     C_R   0.006375 0.476035 0.476835 0.056297
C18   C     C_R   0.993625 0.523965 0.523165 0.056297
C19   C     C_R   0.168741 0.474000 0.442054 0.091609
C20   C     C_R   0.831259 0.526000 0.557945 0.091609
C21   C     C_R   0.697052 0.432207 0.500629 -0.178179
C22   C     C_R   0.302947 0.567793 0.499371 -0.178178
C23   C     C_R   0.684680 0.479533 0.546557 -0.180773
C24   C     C_R   0.315320 0.520467 0.453443 -0.180773
H1    H     H_    0.305870 0.424447 0.369675 0.119040
H2    H     H_    0.694130 0.575552 0.630325 0.119040
H3    H     H_    0.752760 0.348803 0.409719 0.129632
H4    H     H_    0.247240 0.651197 0.590280 0.129633
H5    H     H_    0.580960 0.397340 0.492520 0.142607
H6    H     H_    0.419040 0.602660 0.507480 0.142607
H7    H     H_    0.559533 0.480066 0.572983 0.136629
H8    H     H_    0.440467 0.519934 0.427017 0.136629
C25   C     C_R   0.946884 0.914330 0.663434 -0.052626
C26   C     C_R   0.053116 0.085670 0.336566 -0.052627
C27   C     C_R   0.873451 0.033225 0.660336 -0.141337
C28   C     C_R   0.126551 0.966775 0.339663 -0.141337
C29   C     C_R   0.879753 0.974800 0.689598 -0.164586
C30   C     C_R   0.120248 0.025200 0.310401 -0.164586
C31   C     C_R   0.997400 0.912103 0.606398 -0.198115
C32   C     C_R   0.002601 0.087896 0.393602 -0.198113
C33   C     C_R   0.969630 0.969345 0.573593 0.080325
C34   C     C_R   0.030372 0.030653 0.426406 0.080326
C35   C     C_R   0.921794 0.031227 0.603217 0.123300
C36   C     C_R   0.078209 0.968772 0.396782 0.123299
C37   C     C_R   0.995419 0.968445 0.513440 0.000815
C38   C     C_R   0.004585 0.031553 0.486559 0.000816
C39   C     C_R   0.991789 0.092459 0.521428 -0.045807
C40   C     C_R   0.008218 0.907539 0.478572 -0.045806
C41   C     C_R   0.934935 0.091445 0.577083 -0.220897
C42   C     C_R   0.065071 0.908554 0.422916 -0.220897
H9    H     H_    0.914991 0.138734 0.601831 0.136218
H10   H     H_    0.085017 0.861265 0.398168 0.136219
H11   H     H_    0.936758 0.134146 0.410453 0.122391
H12   H     H_    0.063243 0.865853 0.589547 0.122392
H13   H     H_    0.161661 0.022815 0.266656 0.107561
H14   H     H_    0.838339 0.977186 0.733344 0.107561
H15   H     H_    0.831890 0.080353 0.682592 0.127720
H16   H     H_    0.168113 0.919647 0.317407 0.127721
C43   C     C_R   0.490859 0.585248 0.835742 -0.045165
C44   C     C_R   0.509141 0.414752 0.164258 -0.045165
C45   C     C_R   0.611403 0.469645 0.837018 0.001048
C46   C     C_R   0.388598 0.530355 0.162982 0.001048
C47   C     C_R   0.569833 0.527568 0.808220 -0.243735
C48   C     C_R   0.430168 0.472432 0.191780 -0.243735
C49   C     C_R   0.451203 0.585417 0.893251 -0.209551
C50   C     C_R   0.548797 0.414583 0.106749 -0.209552
C51   C     C_R   0.497569 0.528529 0.924995 0.065786
C52   C     C_R   0.502431 0.471471 0.075005 0.065786
C53   C     C_R   0.584775 0.470914 0.896292 0.108032
C54   C     C_R   0.415226 0.529086 0.103708 0.108032
C55   C     C_R   0.466887 0.528062 0.984625 0.066129
C56   C     C_R   0.533113 0.471938 0.015375 0.066130
C57   C     C_R   0.630096 0.418376 0.985611 -0.199857
C58   C     C_R   0.369904 0.581624 0.014390 -0.199856
C59   C     C_R   0.653516 0.417685 0.927830 -0.144587
C60   C     C_R   0.346485 0.582315 0.072170 -0.144586
H17   H     H_    0.734388 0.375514 0.908749 0.181824
H18   H     H_    0.265613 0.624486 0.091251 0.181824
H19   H     H_    0.604841 0.367886 0.087584 0.104992
H20   H     H_    0.395158 0.632114 0.912416 0.104992
H21   H     H_    0.402152 0.472275 0.236477 0.098750
H22   H     H_    0.597850 0.527726 0.763523 0.098750
H23   H     H_    0.693991 0.376124 0.005963 0.133757
H24   H     H_    0.306009 0.623876 0.994037 0.133757
C61   C     C_R   0.373027 0.075280 0.109889 -0.176428
C62   C     C_R   0.626973 0.924720 0.890111 -0.176433
C63   C     C_R   0.529754 0.118492 0.116635 -0.082102
C64   C     C_R   0.470246 0.881508 0.883365 -0.082102
C65   C     C_R   0.675458 0.113989 0.076420 -0.210293
C66   C     C_R   0.324543 0.886010 0.923581 -0.210293
C67   C     C_R   0.665020 0.067477 0.029167 0.052710
C68   C     C_R   0.334981 0.932523 0.970833 0.052710
C69   C     C_R   0.506803 0.023772 0.023311 0.059930
C70   C     C_R   0.493197 0.976228 0.976689 0.059927
C71   C     C_R   0.361631 0.027657 0.064016 0.105123
C72   C     C_R   0.638369 0.972342 0.935984 0.105118
C73   C     C_R   0.807715 0.063505 0.987452 -0.047583
C74   C     C_R   0.192288 0.936493 0.012549 -0.047584
C75   C     C_R   0.793482 0.016091 0.941604 -0.221826
C76   C     C_R   0.206520 0.983908 0.058396 -0.221827
H25   H     H_    0.260640 0.078049 0.140920 0.115579
H26   H     H_    0.739359 0.921951 0.859080 0.115580
H27   H     H_    0.795447 0.147624 0.081817 0.136275
H28   H     H_    0.204554 0.852375 0.918183 0.136275
H29   H     H_    0.904656 0.013162 0.910155 0.129916
H30   H     H_    0.095348 0.986836 0.089846 0.129915
C77   C     C_2   0.681615 0.409592 0.802553 0.360507
H31   H     H_    0.763335 0.416231 0.765006 0.054404
O21   O     O_2   0.638851 0.352740 0.813218 -0.520018
C78   C     C_2   0.318387 0.590408 0.197447 0.360509
H32   H     H_    0.236668 0.583770 0.234995 0.054404
O22   O     O_2   0.361152 0.647260 0.186781 -0.520018
C79   C     C_1   0.969940 0.107730 0.990149 0.305792
N1    N     N_1   0.099833 0.143128 0.992247 -0.343560
C80   C     C_1   0.030073 0.892265 0.009854 0.305796
N2    N     N_1   0.900190 0.856863 0.007759 -0.343559
C81   C     C_1   0.059109 0.156497 0.505278 0.296930
N3    N     N_1   0.113541 0.207918 0.492856 -0.361112
C82   C     C_1   0.940905 0.843500 0.494721 0.296930
N4    N     N_1   0.886480 0.792079 0.507143 -0.361114

loop_
_geom_bond_atom_site_label_1
_geom_bond_atom_site_label_2
_ccdc_geom_bond_type
C26   C30   A    
C40   C82   S    
C43   C47   A    
C31   C33   A    
C67   C73   A    
O13   V3    S    
C17   C18   A    
C1    C43   S    
C55   C56   A    
O4    C2    A    
V1    O19   S    
C64   C66   A    
C55   C58   A    
C15   C17   A    
C71   C76   A    
C16   C22   A    
O9    V1    S    
C68   C74   A    
C11   C13   A    
C74   C80   S    
C3    C64   S    
O3    C1    A    
C69   C71   A    
C13   H3    S    
C46   C48   A    
C14   H4    S    
C34   C36   A    
C29   H14   S    
C36   C42   A    
C82   N4    T    
C52   C56   A    
C58   H24   S    
C28   C30   A    
C32   H11   S    
C73   C79   S    
O7    C3    A    
C46   C54   A    
C27   C35   A    
O5    C7    A    
C28   H16   S    
O7    V1    S    
O6    C8    A    
C8    C11   S    
O8    V2    S    
C33   C35   A    
O3    V1    S    
C38   C39   A    
C35   C41   A    
C49   C51   A    
C19   C24   A    
C53   C59   A    
C10   C12   A    
C20   C23   A    
C39   C81   S    
C21   C23   A    
C21   H5    S    
C2    O12   A    
C75   H29   S    
C26   C32   A    
C41   H9    S    
C22   H6    S    
C44   C50   A    
O1    V3    S    
C57   C59   A    
C46   C78   S    
O11   V3    S    
C70   C72   A    
C45   C47   A    
O17   V3    S    
C4    C63   S    
C43   C49   A    
C22   C24   A    
C27   C29   A    
C10   H2    S    
C65   H27   S    
C9    C19   A    
C6    C26   S    
C44   C48   A    
C30   H13   S    
C10   C20   A    
C40   C42   A    
O8    C4    A    
C62   C72   A    
C39   C41   A    
C78   O22   D    
C1    O11   A    
C67   C69   A    
O15   V3    S    
O4    V2    S    
C37   C40   A    
V4    O20   S    
C51   C53   A    
C66   H28   S    
C50   C52   A    
C45   C53   A    
C54   C60   A    
C56   C57   A    
O10   V2    S    
C5    C25   S    
C60   H18   S    
C76   H30   S    
C63   C65   A    
C42   H10   S    
C62   H26   S    
O14   V4    S    
C61   H25   S    
C59   H17   S    
O18   V4    S    
C58   C60   A    
O15   C5    A    
C49   H20   S    
O16   C6    A    
O1    C3    A    
O12   V4    S    
C74   C76   A    
C77   H31   S    
C61   C71   A    
C23   H7    S    
V2    O20   S    
C24   H8    S    
O16   V4    S    
C2    C44   S    
C17   C19   A    
C27   H15   S    
C25   C31   A    
C16   C18   A    
C77   O21   D    
C66   C68   A    
C80   N2    T    
C72   C75   A    
C25   C29   A    
C78   H32   S    
O5    V1    S    
C7    C12   S    
O17   C7    A    
O6    V2    S    
C79   N1    T    
O10   C6    A    
O18   C8    A    
C15   C21   A    
O2    V4    S    
C61   C63   A    
C18   C20   A    
V3    O19   S    
C81   N3    T    
C45   C77   S    
C12   C14   A    
C14   C16   A    
C48   H21   S    
C9    C11   A    
C52   C54   A    
C34   C38   A    
C47   H22   S    
C33   C37   A    
O9    C5    A    
O13   V1    S    
C68   C70   A    
O14   V2    S    
C37   C38   A    
O2    C4    A    
C62   C64   A    
C50   H19   S    
C73   C75   A    
C51   C55   A    
C57   H23   S    
C28   C36   A    
C13   C15   A    
C69   C70   A    
C9    H1    S    
C32   C34   A    
C65   C67   A    
C31   H12   S    
