data_str_m9_o11_o13_f0_sra.sym.145
_audit_creation_date              2012-12-11T14:14:02-0500
_audit_creation_method            fapswitch 2.2
_symmetry_space_group_name_H-M    P1
_symmetry_Int_Tables_number       1
_space_group_crystal_system       triclinic
_cell_length_a                    17.017325
_cell_length_b                    7.257407
_cell_length_c                    17.074651
_cell_angle_alpha                 89.348207
_cell_angle_beta                  99.067005
_cell_angle_gamma                 90.445407
_cell_volume                      2082.225304

loop_
_atom_site_label
_atom_site_type_symbol
_atom_type_description
_atom_site_fract_x
_atom_site_fract_y
_atom_site_fract_z
_atom_type_partial_charge
O1    O     O_R   0.414560 0.494370 0.416770 -0.544458
O2    O     O_R   0.585440 0.994370 0.583230 -0.542548
O3    O     O_R   0.578370 0.819590 0.429320 -0.536827
O4    O     O_R   0.421630 0.319590 0.570680 -0.535110
C1    C     C_R   0.604164 0.656878 0.413285 0.686029
C2    C     C_R   0.396082 0.153869 0.586784 0.684983
O5    O     O_R   0.414740 0.823790 0.407360 -0.539840
O6    O     O_R   0.585260 0.323790 0.592640 -0.541189
O7    O     O_R   0.420650 0.998510 0.561120 -0.532931
O8    O     O_R   0.579350 0.498510 0.438880 -0.530578
C3    C     C_R   0.387308 0.657224 0.387190 0.628332
C4    C     C_R   0.612752 0.157009 0.612580 0.629483
O9    O     O_3   0.502130 0.662240 0.550470 -0.373446
O10   O     O_3   0.497870 0.162240 0.449530 -0.373319
V1    V     V_3+5 0.499600 0.935390 0.490640 1.433301
V2    V     V_3+5 0.500400 0.435390 0.509360 1.434164
C5    C     C_2   0.764860 0.238380 0.802400 0.390801
C6    C     C_2   0.235712 0.739164 0.196398 0.382562
C7    C     C_2   0.815540 0.094375 0.821696 -0.063740
C8    C     C_2   0.184947 0.594047 0.177866 -0.057534
C9    C     C_2   0.690239 0.221754 0.742599 -0.276432
C10   C     C_2   0.310210 0.723564 0.256545 -0.275037
C11   C     C_2   0.688316 0.159202 0.668186 0.201666
C12   C     C_2   0.311870 0.659101 0.331250 0.199417
H1    H     H_    0.635424 0.270789 0.760137 0.085297
H2    H     H_    0.365109 0.774886 0.238983 0.084657
C13   C     C_R   0.335015 0.136666 0.639698 -0.111790
C14   C     C_R   0.665938 0.657290 0.360716 -0.113344
C15   C     C_R   0.168019 0.125569 0.864265 -0.240999
C16   C     C_R   0.832041 0.613973 0.136221 -0.247609
C17   C     C_R   0.306236 0.206153 0.852024 0.073871
C18   C     C_R   0.696853 0.521392 0.155294 0.078905
C19   C     C_R   0.243303 0.200282 0.897168 0.290509
C20   C     C_R   0.758614 0.523821 0.108739 0.281627
C21   C     C_R   0.156552 0.057826 0.785397 0.278278
C22   C     C_R   0.842134 0.705237 0.210443 0.276321
C23   C     C_R   0.218025 0.077547 0.738863 0.038931
C24   C     C_R   0.781459 0.693801 0.258351 0.036031
C25   C     C_R   0.290421 0.167840 0.769411 -0.041603
C26   C     C_R   0.711929 0.586252 0.234674 -0.038794
C27   C     C_R   0.345067 0.214466 0.716550 0.300448
C28   C     C_R   0.658960 0.551652 0.290510 0.296740
C29   C     C_R   0.266921 0.031018 0.613923 -0.236138
C30   C     C_R   0.730957 0.777118 0.378869 -0.224216
C31   C     C_R   0.207801 0.008618 0.661191 -0.092241
C32   C     C_R   0.789633 0.788646 0.330608 -0.091214
H3    H     H_    0.258071 0.970740 0.555373 0.138998
H4    H     H_    0.737726 0.858367 0.432419 0.132441
H5    H     H_    0.154450 0.933533 0.636821 0.175975
H6    H     H_    0.840618 0.876723 0.349423 0.176084
O11   O     O_R   0.920750 0.773600 0.061260 -0.533466
O12   O     O_R   0.079250 0.273600 0.938740 -0.529246
O13   O     O_R   0.085340 0.439850 0.092570 -0.557427
O14   O     O_R   0.914660 0.939850 0.907430 -0.559573
C33   C     C_R   0.113586 0.605739 0.113557 0.718397
C34   C     C_R   0.886596 0.105997 0.886328 0.716805
O15   O     O_R   0.921720 0.444130 0.070790 -0.528087
O16   O     O_R   0.078280 0.944130 0.929210 -0.532756
O17   O     O_R   0.914480 0.269530 0.916840 -0.504702
O18   O     O_R   0.085520 0.769530 0.083160 -0.507171
C35   C     C_R   0.896741 0.611261 0.086820 0.672406
C36   C     C_R   0.103339 0.113589 0.913465 0.681216
O19   O     O_3   0.997840 0.601520 0.949550 -0.375623
O20   O     O_3   0.002160 0.101520 0.050450 -0.375225
V3    V     V_3+5 0.000400 0.328340 0.009360 1.487821
V4    V     V_3+5 0.999600 0.828340 0.990640 1.473618
O21   O     O_3   0.778106 0.399267 0.845125 -0.653695
H7    H     H_    0.734284 0.485927 0.826114 0.273649
O22   O     O_3   0.222730 0.900404 0.152511 -0.653101
H8    H     H_    0.266429 0.988171 0.171254 0.273661
O23   O     O_3   0.085441 0.978452 0.750474 -0.648617
H9    H     H_    0.042729 0.003804 0.781837 0.276230
O24   O     O_3   0.911180 0.800634 0.239828 -0.645165
H10   H     H_    0.954117 0.771742 0.209248 0.289227
C37   C     C_3   0.796208 0.900727 0.787206 -0.356404
C38   C     C_3   0.858945 0.836495 0.737405 -0.241493
C39   C     C_3   0.826413 0.685844 0.679140 -0.701835
H11   H     H_    0.807848 0.563705 0.711375 0.248317
H12   H     H_    0.774667 0.737144 0.636876 0.227596
H13   H     H_    0.873411 0.643265 0.644877 0.219794
H14   H     H_    0.879821 0.953827 0.703599 0.227306
H15   H     H_    0.911775 0.781363 0.777004 0.199973
H16   H     H_    0.794379 0.800854 0.836697 0.171943
H17   H     H_    0.735698 0.887998 0.753023 0.191759
C40   C     C_3   0.204713 0.399738 0.212578 -0.347069
C41   C     C_3   0.142289 0.329888 0.262584 -0.249338
C42   C     C_3   0.175189 0.176676 0.320353 -0.706906
H18   H     H_    0.193902 0.057781 0.287687 0.249214
H19   H     H_    0.226922 0.227567 0.362654 0.228594
H20   H     H_    0.128373 0.129331 0.354607 0.219417
H21   H     H_    0.121604 0.444161 0.296777 0.225017
H22   H     H_    0.089290 0.275281 0.223129 0.199419
H23   H     H_    0.206641 0.302454 0.163151 0.173576
H24   H     H_    0.265284 0.388467 0.246759 0.191498
O25   O     O_3   0.758556 0.122396 0.640722 -0.646333
H25   H     H_    0.745626 0.085369 0.584385 0.276390
O26   O     O_3   0.241475 0.618808 0.358505 -0.647590
H26   H     H_    0.254170 0.580539 0.415019 0.278706
O27   O     O_3   0.402525 0.347822 0.738444 -0.657193
H27   H     H_    0.449750 0.322085 0.713327 0.276462
O28   O     O_3   0.607249 0.403253 0.279363 -0.654462
H28   H     H_    0.558154 0.433170 0.300630 0.280975
C43   C     C_3   0.391309 0.233980 0.894841 -0.258661
C44   C     C_3   0.413829 0.106690 0.967779 -0.321890
C45   C     C_3   0.503981 0.081322 0.987018 -0.818028
H29   H     H_    0.524441 0.987362 0.943568 0.237417
H30   H     H_    0.535060 0.215217 0.983938 0.248209
H31   H     H_    0.520307 0.022296 0.047579 0.233704
H32   H     H_    0.393527 0.167000 0.020516 0.234577
H33   H     H_    0.385324 0.969029 0.956823 0.207784
H34   H     H_    0.434853 0.200868 0.855610 0.205101
H35   H     H_    0.399545 0.380441 0.911928 0.192061
C46   C     C_3   0.612960 0.471708 0.114710 -0.261915
C47   C     C_3   0.584627 0.594110 0.041348 -0.330119
C48   C     C_3   0.494039 0.613558 0.026862 -0.808881
H36   H     H_    0.465030 0.477864 0.032241 0.246534
H37   H     H_    0.475094 0.706583 0.071504 0.235792
H38   H     H_    0.473898 0.671376 0.966666 0.234968
H39   H     H_    0.611438 0.734214 0.049289 0.204251
H40   H     H_    0.603143 0.532823 0.987863 0.231103
H41   H     H_    0.611432 0.324332 0.098051 0.189173
H42   H     H_    0.568367 0.490583 0.154039 0.207747
O29   O     O_3   0.258344 0.267218 0.973725 -0.653037
H43   H     H_    0.220385 0.213634 0.006054 0.289298
O30   O     O_3   0.743989 0.438870 0.035641 -0.643634
H44   H     H_    0.779040 0.491636 0.000062 0.307021

loop_
_geom_bond_atom_site_label_1
_geom_bond_atom_site_label_2
_ccdc_geom_bond_type
C7    C34   S    
O16   C36   A    
C24   C26   A    
C42   H18   S    
O28   H28   S    
O24   H10   S    
O25   H25   S    
O1    C3    A    
O2    C4    A    
C2    O7    A    
O26   H26   S    
O29   H43   S    
C25   C27   A    
C39   H11   S    
O5    C3    A    
C45   H30   S    
C4    C11   S    
C21   C23   A    
C41   H21   S    
C44   H32   S    
C37   H17   S    
C48   H36   S    
C15   C19   A    
C3    C12   S    
C43   H34   S    
C14   C28   A    
C42   H20   S    
C40   H23   S    
O16   V4    S    
C46   H42   S    
O27   H27   S    
C11   O25   S    
C48   H37   S    
O11   C35   A    
C27   O27   S    
C18   C46   S    
O13   V3    S    
C47   H39   S    
C6    O22   S    
C39   H12   S    
O19   V4    S    
C21   O23   S    
O6    V2    S    
C33   O18   A    
C8    C33   S    
C44   C45   S    
C30   C32   A    
C32   H6    S    
C47   C48   S    
O13   C33   A    
C45   H31   S    
O14   C34   A    
C5    O21   S    
C16   C20   A    
O21   H7    S    
C38   C39   S    
O4    C2    A    
C38   H15   S    
C41   C42   S    
C40   C41   S    
C14   C30   A    
C5    C9    S    
C12   O26   S    
C43   H35   S    
O11   V4    S    
C17   C43   S    
O4    V2    S    
C37   C38   S    
C1    C14   S    
C40   H24   S    
C13   C27   A    
C2    C13   S    
C31   H5    S    
O6    C4    A    
C48   H38   S    
C8    C40   S    
C17   C19   A    
O1    V2    S    
O2    V1    S    
C29   C31   A    
C9    C11   D    
O30   H44   S    
C10   C12   D    
O9    V2    S    
C23   C31   A    
C22   C24   A    
C41   H22   S    
C28   O28   S    
O3    V1    S    
C46   C47   S    
C39   H13   S    
C9    H1    S    
C15   C36   S    
C6    C10   S    
O15   V3    S    
C26   C28   A    
O3    C1    A    
C38   H14   S    
O15   C35   A    
O14   V4    S    
C45   H29   S    
C15   C21   A    
C34   O17   A    
C16   C22   A    
O20   V3    S    
C7    C37   S    
O7    V1    S    
O23   H9    S    
C23   C25   A    
O12   C36   A    
O17   V3    S    
C44   H33   S    
C37   H16   S    
C20   O30   S    
O5    V1    S    
C5    C7    D    
C17   C25   A    
C6    C8    D    
C18   C26   A    
O22   H8    S    
C24   C32   A    
C22   O24   S    
O18   V4    S    
C13   C29   A    
C1    O8    A    
C46   H41   S    
C10   H2    S    
C16   C35   S    
C43   C44   S    
C19   O29   S    
C42   H19   S    
O10   V1    S    
O8    V2    S    
C29   H3    S    
C47   H40   S    
O12   V3    S    
C30   H4    S    
C18   C20   A    
