data_str_m3_o10_o29_f0_pcu.sym.62
_audit_creation_date              2012-12-10T16:59:21-0500
_audit_creation_method            fapswitch 2.2
_symmetry_space_group_name_H-M    P1
_symmetry_Int_Tables_number       1
_space_group_crystal_system       triclinic
_cell_length_a                    7.73531
_cell_length_b                    8.552719
_cell_length_c                    27.7519
_cell_angle_alpha                 90.891785
_cell_angle_beta                  85.71715
_cell_angle_gamma                 93.794898
_cell_volume                      1826.76280563

loop_
_atom_site_label
_atom_site_type_symbol
_atom_type_description
_atom_site_fract_x
_atom_site_fract_y
_atom_site_fract_z
_atom_type_partial_charge
Br1   Br    Br    0.765372 0.955841 0.124051 -0.382205
Br2   Br    Br    0.234600 0.044035 0.875945 -0.382212
C1    C     C_R   0.546014 0.794907 0.498726 0.961585
C2    C     C_R   0.572023 0.643514 0.125897 -0.089289
C3    C     C_R   0.504626 0.494385 0.646613 -0.190914
C4    C     C_R   0.495369 0.505574 0.353386 -0.190936
C5    C     C_R   0.566060 0.637219 0.023734 0.046226
C6    C     C_R   0.433888 0.362653 0.976267 0.046221
C7    C     C_R   0.448488 0.361665 0.026945 -0.066408
C8    C     C_R   0.551449 0.638210 0.973057 -0.066404
C9    C     C_R   0.507142 0.502000 0.050618 0.007331
C10   C     C_R   0.492805 0.497874 0.949383 0.007328
C11   C     C_R   0.648259 0.763844 0.048201 -0.108640
C12   C     C_R   0.453986 0.205093 0.501274 0.961527
C13   C     C_R   0.351700 0.236026 0.951799 -0.108631
C14   C     C_R   0.647426 0.770825 0.098205 0.297046
C15   C     C_R   0.352548 0.229045 0.901794 0.297034
C16   C     C_R   0.502063 0.499173 0.593977 0.916970
C17   C     C_R   0.497937 0.500823 0.406022 0.916953
C18   C     C_R   0.585966 0.775980 0.944996 0.615629
C19   C     C_R   0.413956 0.223899 0.055007 0.615646
C20   C     C_2   0.570325 0.958425 0.497994 -0.351467
C21   C     C_2   0.429675 0.041575 0.502006 -0.351460
C22   C     C_R   0.549085 0.622536 0.821194 0.584865
C23   C     C_R   0.489211 0.493900 0.898324 -0.102379
C24   C     C_R   0.450861 0.377346 0.178808 0.584865
C25   C     C_R   0.439934 0.354970 0.823176 0.567971
C26   C     C_R   0.560066 0.644898 0.176824 0.567994
C27   C     C_R   0.659781 0.488451 0.719138 -0.166235
C28   C     C_R   0.340226 0.511672 0.280862 -0.166269
C29   C     C_R   0.662130 0.492934 0.669025 0.613627
C30   C     C_R   0.337879 0.507231 0.330975 0.613635
C31   C     C_R   0.346386 0.490256 0.675130 -0.257674
C32   C     C_R   0.653597 0.509448 0.324866 -0.257640
C33   C     C_R   0.345096 0.485592 0.725057 -0.075667
C34   C     C_R   0.510744 0.505975 0.101677 -0.102373
C35   C     C_R   0.654883 0.514070 0.274938 -0.075691
C36   C     C_R   0.501528 0.485084 0.747021 0.205149
C37   C     C_R   0.498464 0.514793 0.252978 0.205200
C38   C     C_R   0.545315 0.628650 0.871462 -0.111739
C39   C     C_R   0.454627 0.371230 0.128541 -0.111746
C40   C     C_R   0.589093 0.768771 0.895140 -0.147000
C41   C     C_R   0.410830 0.231112 0.104863 -0.147002
C42   C     C_R   0.427954 0.356357 0.874103 -0.089273
F1    F     F_    0.182112 0.502881 0.357102 -0.664209
F2    F     F_    0.817908 0.497541 0.642900 -0.664236
F3    F     F_    0.602658 0.921863 0.964543 -0.633794
F4    F     F_    0.397245 0.078015 0.035462 -0.633790
H1    H     H_    0.223243 0.490726 0.658958 0.230566
H2    H     H_    0.780747 0.488655 0.736451 0.167249
H3    H     H_    0.722992 0.857220 0.029244 0.240464
H4    H     H_    0.276964 0.142649 0.970753 0.240477
H5    H     H_    0.703035 0.009802 0.494171 0.184945
H6    H     H_    0.296965 0.990197 0.505829 0.184952
H7    H     H_    0.776731 0.508807 0.341034 0.230579
H8    H     H_    0.014414 0.383081 0.463458 0.218129
H9    H     H_    0.985586 0.616919 0.536542 0.218185
H10   H     H_    0.222752 0.483905 0.746808 0.168021
H11   H     H_    0.777213 0.515566 0.253185 0.167997
H12   H     H_    0.620760 0.876024 0.875153 0.235007
H13   H     H_    0.379151 0.123863 0.124852 0.235001
H14   H     H_    0.219272 0.511638 0.263550 0.167226
N1    N     N_R   0.499274 0.486729 0.798370 -0.354177
N2    N     N_R   0.500707 0.513146 0.201630 -0.354190
N3    N     N_2   0.950320 0.457960 0.486880 -0.153823
N4    N     N_2   0.049680 0.542040 0.513120 -0.153813
O1    O     O_R   0.389250 0.738570 0.503220 -0.616911
O2    O     O_2   0.398723 0.248439 0.204891 -0.508235
O3    O     O_2   0.604104 0.775990 0.201822 -0.470022
O4    O     O_2   0.395944 0.223865 0.798178 -0.470038
O5    O     O_R   0.610750 0.261430 0.496780 -0.616936
O6    O     O_R   0.678390 0.711630 0.494810 -0.630596
O7    O     O_R   0.321610 0.288370 0.505190 -0.630632
O8    O     O_R   0.355440 0.513440 0.575450 -0.618636
O9    O     O_R   0.644560 0.486560 0.424550 -0.618639
O10   O     O_R   0.644590 0.486500 0.567040 -0.567164
O11   O     O_R   0.355410 0.513500 0.432960 -0.567140
O12   O     O_2   0.601192 0.751455 0.795113 -0.508226
Zn1   Zn    Zn3+2 0.306940 0.517990 0.505620 1.006437
Zn2   Zn    Zn3+2 0.693060 0.482010 0.494380 1.006425

loop_
_geom_bond_atom_site_label_1
_geom_bond_atom_site_label_2
_ccdc_geom_bond_type
C5    C8    A    
C4    C30   A    
C2    C34   A    
C32   C35   A    
C30   F1    S    
C26   O3    S    
H9    N4    S    
C5    C9    A    
N4    Zn1   S    
C33   H10   S    
C9    C34   A    
C23   C38   A    
C31   H1    S    
H8    N3    S    
C12   O5    A    
C17   O11   A    
C24   N2    A    
C31   C33   A    
C11   H3    S    
C25   C42   A    
C8    C18   A    
C6    C7    A    
C29   F2    S    
C3    C31   A    
C27   C36   A    
O9    Zn2   S    
C19   F4    S    
C38   C40   A    
C32   H7    S    
C16   O8    A    
N3    Zn2   S    
C19   C41   A    
Br2   C15   S    
C27   C29   A    
C39   C41   A    
C34   C39   A    
C8    C10   A    
C23   C42   A    
O5    Zn2   S    
C2    C26   A    
C20   H5    S    
C27   H2    S    
O11   Zn1   S    
C37   N2    S    
C12   O7    A    
C33   C36   A    
O1    Zn1   S    
C40   H12   S    
C3    C16   S    
C4    C32   A    
C12   C21   S    
C2    C14   A    
C4    C17   S    
C6    C10   A    
O7    Zn1   S    
Br1   C14   S    
C13   H4    S    
C7    C9    A    
C35   H11   S    
C25   O4    S    
C25   N1    A    
C26   N2    A    
C22   O12   S    
C22   N1    A    
O8    Zn1   S    
C28   H14   S    
C41   H13   S    
C21   H6    S    
C36   N1    S    
C13   C15   A    
C16   O10   A    
C1    O1    A    
O10   Zn2   S    
C18   C40   A    
C6    C13   A    
C10   C23   A    
C24   O2    S    
C17   O9    A    
C1    O6    A    
C15   C42   A    
C35   C37   A    
C28   C30   A    
C7    C19   A    
C22   C38   A    
C28   C37   A    
C18   F3    S    
C5    C11   A    
O6    Zn2   S    
N3    N4    D    
C11   C14   A    
C20   C21   D    
C1    C20   S    
C24   C39   A    
C3    C29   A    
