data_str_m9_o16_o22_f0_sra.sym.78
_audit_creation_date              2012-12-11T15:11:51-0500
_audit_creation_method            fapswitch 2.2
_symmetry_space_group_name_H-M    P1
_symmetry_Int_Tables_number       1
_space_group_crystal_system       triclinic
_cell_length_a                    20.301349
_cell_length_b                    7.099519
_cell_length_c                    13.442578
_cell_angle_alpha                 90.00007
_cell_angle_beta                  103.794756
_cell_angle_gamma                 89.999934
_cell_volume                      1881.59189622

loop_
_atom_site_label
_atom_site_type_symbol
_atom_type_description
_atom_site_fract_x
_atom_site_fract_y
_atom_site_fract_z
_atom_type_partial_charge
O1    O     O_R   0.449830 0.506740 0.599960 -0.537692
O2    O     O_R   0.550170 0.006740 0.400040 -0.537688
O3    O     O_R   0.588980 0.179860 0.596720 -0.545915
O4    O     O_R   0.411020 0.679860 0.403280 -0.545914
C1    C     C_R   0.615655 0.344990 0.621167 0.713581
C2    C     C_R   0.384346 0.844991 0.378832 0.713595
O5    O     O_R   0.452740 0.177340 0.612040 -0.544288
O6    O     O_R   0.547260 0.677340 0.387960 -0.544287
O7    O     O_R   0.412960 0.002070 0.415460 -0.514518
O8    O     O_R   0.587040 0.502070 0.584540 -0.514526
C3    C     C_R   0.436789 0.345436 0.639068 0.705921
C4    C     C_R   0.563210 0.845436 0.360931 0.705926
O9    O     O_3   0.487110 0.337570 0.435490 -0.370335
O10   O     O_3   0.512890 0.837570 0.564510 -0.370348
V1    V     V_3+5 0.502390 0.064650 0.511970 1.495723
V2    V     V_3+5 0.497610 0.564650 0.488030 1.495723
C5    C     C_R   0.611597 0.840982 0.106793 -0.163118
C6    C     C_R   0.388403 0.340970 0.893206 -0.163117
H1    H     H_    0.693385 0.878589 0.981815 0.114824
H2    H     H_    0.306615 0.378569 0.018185 0.114808
H3    H     H_    0.586506 0.835571 0.025918 0.131731
H4    H     H_    0.413493 0.335555 0.974081 0.131738
C7    C     C_R   0.604137 0.850776 0.283812 -0.127512
C8    C     C_R   0.395863 0.350776 0.716188 -0.127513
C9    C     C_R   0.932904 0.826524 0.319659 0.334856
C10   C     C_R   0.067096 0.326527 0.680340 0.334855
C11   C     C_R   0.896810 0.783117 0.393276 -0.180344
C12   C     C_R   0.103189 0.283125 0.606723 -0.180343
C13   C     C_R   0.826329 0.780765 0.367556 -0.162268
C14   C     C_R   0.173671 0.280771 0.632442 -0.162268
C15   C     C_R   0.788922 0.835329 0.269130 0.069538
C16   C     C_R   0.211078 0.335328 0.730869 0.069538
C17   C     C_R   0.825410 0.860534 0.191677 -0.001800
C18   C     C_R   0.174590 0.360529 0.808323 -0.001797
C19   C     C_R   0.716257 0.850491 0.242872 0.041820
C20   C     C_R   0.283742 0.350488 0.757127 0.041818
C21   C     C_R   0.682362 0.853967 0.137297 0.121558
C22   C     C_R   0.317638 0.353956 0.862702 0.121561
C23   C     C_R   0.719165 0.870818 0.062210 -0.111465
C24   C     C_R   0.280834 0.370802 0.937789 -0.111464
C25   C     C_R   0.789365 0.881234 0.089146 -0.173688
C26   C     C_R   0.210635 0.381221 0.910855 -0.173694
C27   C     C_R   0.675495 0.866789 0.315796 -0.113851
C28   C     C_R   0.324505 0.366790 0.684204 -0.113851
C29   C     C_R   0.572768 0.830877 0.179190 -0.051082
C30   C     C_R   0.427231 0.330871 0.820809 -0.051082
C31   C     C_R   0.897391 0.857089 0.217799 -0.107793
C32   C     C_R   0.102609 0.357088 0.782201 -0.107793
H5    H     H_    0.802527 0.725376 0.424853 0.154184
H6    H     H_    0.197472 0.225387 0.575145 0.154185
H7    H     H_    0.923391 0.745912 0.470591 0.151936
H8    H     H_    0.076608 0.245924 0.529407 0.151934
H9    H     H_    0.815294 0.897513 0.028066 0.093495
H10   H     H_    0.184706 0.397496 0.971934 0.093493
C33   C     C_3   0.221243 0.662935 0.184839 -0.293685
C34   C     C_3   0.778755 0.162936 0.815165 -0.293664
H11   H     H_    0.189765 0.550032 0.207628 0.191497
H12   H     H_    0.810234 0.050026 0.792382 0.191495
H13   H     H_    0.224900 0.629857 0.105530 0.172158
H14   H     H_    0.775097 0.129869 0.894475 0.172156
C35   C     C_3   0.292847 0.658227 0.257070 -0.367725
C36   C     C_3   0.707152 0.158227 0.742931 -0.367695
H15   H     H_    0.330121 0.614610 0.212738 0.155452
H16   H     H_    0.669877 0.114609 0.787261 0.155452
H17   H     H_    0.293916 0.549261 0.316617 0.231368
H18   H     H_    0.706085 0.049259 0.683385 0.231375
H19   H     H_    0.267091 0.815306 0.437701 0.186848
H20   H     H_    0.732909 0.315297 0.562298 0.186844
C37   C     C_3   0.187018 0.901060 0.303312 0.241219
C38   C     C_3   0.812983 0.401050 0.696687 0.241219
C39   C     C_3   0.234788 0.007011 0.151051 0.124436
C40   C     C_3   0.765212 0.507019 0.848946 0.124487
C41   C     C_3   0.187848 0.859592 0.187786 -0.075691
C42   C     C_3   0.812152 0.359592 0.812214 -0.075724
H21   H     H_    0.213953 0.151348 0.156091 0.100937
H22   H     H_    0.786046 0.651356 0.843900 0.100970
C43   C     C_3   0.313456 0.853704 0.308023 -0.029508
C44   C     C_3   0.686544 0.353703 0.691976 -0.029530
C45   C     C_3   0.261358 0.910029 0.370357 -0.303216
C46   C     C_3   0.738642 0.410022 0.629641 -0.303216
C47   C     C_3   0.308564 0.999974 0.220019 0.194277
C48   C     C_3   0.691436 0.499977 0.779979 0.194279
H23   H     H_    0.344324 0.954689 0.173347 0.150739
H24   H     H_    0.655677 0.454688 0.826651 0.150705
H25   H     H_    0.274183 0.053234 0.403286 0.152204
H26   H     H_    0.725819 0.553227 0.596713 0.152210
O11   O     O_R   0.912980 0.203550 0.915410 -0.539031
O12   O     O_R   0.087020 0.703550 0.084590 -0.539031
O13   O     O_R   0.047270 0.535570 0.887960 -0.534304
O14   O     O_R   0.952730 0.035570 0.112040 -0.534305
C49   C     C_R   0.063843 0.368098 0.861572 0.749136
C50   C     C_R   0.936157 0.868098 0.138428 0.749133
O15   O     O_R   0.911030 0.532970 0.903270 -0.552091
O16   O     O_R   0.088970 0.032970 0.096730 -0.552089
O17   O     O_R   0.949820 0.708150 0.099970 -0.544307
O18   O     O_R   0.050180 0.208150 0.900030 -0.544308
C51   C     C_R   0.883625 0.364972 0.882462 0.653854
C52   C     C_R   0.116375 0.864971 0.117538 0.653854
O19   O     O_3   0.012900 0.375230 0.064480 -0.370449
O20   O     O_3   0.987100 0.875230 0.935520 -0.370450
V3    V     V_3+5 0.997610 0.648190 0.988040 1.469118
V4    V     V_3+5 0.002390 0.148190 0.011960 1.469118
C53   C     C_1   0.500517 0.802590 0.143903 0.280836
N1    N     N_1   0.442742 0.778601 0.115072 -0.392733
C54   C     C_1   0.499483 0.302587 0.856095 0.280825
N2    N     N_1   0.557258 0.278601 0.884926 -0.392743
O21   O     O_3   0.153405 0.755683 0.342993 -0.616690
H27   H     H_    0.108532 0.735152 0.295507 0.321088
O22   O     O_3   0.846594 0.255662 0.657010 -0.616688
H28   H     H_    0.891469 0.235139 0.704493 0.321089
O23   O     O_3   0.237182 0.971965 0.048869 -0.648206
H29   H     H_    0.195315 0.025528 0.004216 0.290995
O24   O     O_3   0.762818 0.471986 0.951130 -0.648207
H30   H     H_    0.804687 0.525550 0.995779 0.290992
O25   O     O_3   0.327801 0.180078 0.260110 -0.653096
H31   H     H_    0.337737 0.255881 0.203378 0.276407
O26   O     O_3   0.672200 0.680082 0.739887 -0.653104
H32   H     H_    0.662203 0.755834 0.796593 0.276416
C55   C     C_1   0.152523 0.081331 0.314047 0.303188
N3    N     N_1   0.125673 0.222183 0.322539 -0.321848
C56   C     C_1   0.847481 0.581317 0.685948 0.303185
N4    N     N_1   0.874333 0.722163 0.677453 -0.321841
C57   C     C_1   0.704184 0.918117 0.421530 0.272662
N5    N     N_1   0.727016 0.958177 0.506113 -0.345944
C58   C     C_1   0.295816 0.418129 0.578472 0.272665
N6    N     N_1   0.272984 0.458198 0.493890 -0.345948
O27   O     O_3   0.002845 0.832126 0.344473 -0.656539
H33   H     H_    0.019809 0.808497 0.418925 0.303136
O28   O     O_3   0.997155 0.332130 0.655528 -0.656540
H34   H     H_    0.980190 0.308501 0.581076 0.303134

loop_
_geom_bond_atom_site_label_1
_geom_bond_atom_site_label_2
_ccdc_geom_bond_type
H20   C46   S    
C14   C16   A    
C7    C29   A    
C33   H13   S    
C11   C13   A    
C31   C50   S    
O23   H29   S    
O1    C3    A    
C40   H22   S    
O2    C4    A    
C2    O7    A    
O12   V3    S    
C37   O21   S    
C57   N5    T    
C23   C25   A    
C13   H5    S    
O5    C3    A    
C4    C7    S    
C16   C20   A    
C19   C21   A    
C5    C29   A    
O28   H34   S    
O18   V4    S    
H2    C24   S    
C44   C46   S    
O16   C52   A    
O25   H31   S    
C9    O27   S    
C30   C54   S    
C3    C8    S    
C7    C27   A    
C35   H15   S    
O14   V4    S    
C36   H16   S    
C29   C53   S    
C49   O18   A    
C35   C43   S    
C18   C26   A    
C32   C49   S    
C39   O23   S    
C38   C42   S    
C46   H26   S    
O21   H27   S    
C15   C17   A    
C37   C41   S    
O13   C49   A    
C19   C27   A    
C9    C31   A    
C10   C32   A    
C24   C26   A    
C14   H6    S    
O6    V2    S    
C22   C24   A    
C6    C30   A    
C47   H23   S    
C11   H7    S    
C42   C51   S    
C43   C45   S    
C41   C52   S    
C28   C58   S    
C34   C42   S    
C36   H18   S    
C38   C46   S    
H19   C45   S    
C40   C42   S    
O15   V3    S    
C39   C41   S    
C2    C43   S    
O5    V1    S    
C40   O24   S    
C37   C55   S    
C50   O17   A    
C5    H3    S    
C34   H14   S    
C16   C18   A    
O4    V2    S    
C38   O22   S    
O11   V4    S    
C44   C48   S    
O15   C51   A    
O14   C50   A    
C43   C47   S    
O6    C4    A    
C47   O25   S    
O20   V4    S    
O1    V2    S    
C5    C21   A    
O2    V1    S    
C25   H9    S    
C56   N4    T    
C10   O28   S    
H1    C23   S    
O4    C2    A    
O19   V3    S    
C48   H24   S    
C33   H11   S    
C58   N6    T    
C17   C31   A    
C15   C19   A    
C37   C45   S    
C18   C32   A    
O27   H33   S    
C27   C57   S    
C45   H25   S    
O3    V1    S    
O24   H30   S    
O13   V3    S    
C6    H4    S    
C36   C44   S    
O3    C1    A    
C55   N3    T    
C9    C11   A    
C54   N2    T    
C10   C12   A    
C8    C30   A    
C12   C14   A    
O7    V1    S    
C17   C25   A    
C1    O8    A    
C13   C15   A    
O8    V2    S    
O26   H32   S    
C26   H10   S    
C39   H21   S    
C12   H8    S    
C38   C56   S    
C8    C28   A    
C33   C35   S    
C20   C22   A    
O20   V3    S    
C34   H12   S    
C34   C36   S    
C6    C22   A    
C40   C48   S    
C20   C28   A    
C33   C41   S    
C35   H17   S    
O19   V4    S    
O16   V4    S    
C21   C23   A    
O9    V2    S    
C53   N1    T    
O10   V1    S    
C48   O26   S    
O11   C51   A    
C1    C44   S    
O22   H28   S    
O12   C52   A    
O17   V3    S    
C39   C47   S    
