data_str_m2_o10_o29_f0_pcu.sym.184
_audit_creation_date              2012-12-10T16:51:16-0500
_audit_creation_method            fapswitch 2.2
_symmetry_space_group_name_H-M    P1
_symmetry_Int_Tables_number       1
_space_group_crystal_system       triclinic
_cell_length_a                    27.61363
_cell_length_b                    8.661163
_cell_length_c                    7.436606
_cell_angle_alpha                 103.058769
_cell_angle_beta                  94.109602
_cell_angle_gamma                 92.732501
_cell_volume                      1724.3960732

loop_
_atom_site_label
_atom_site_type_symbol
_atom_type_description
_atom_site_fract_x
_atom_site_fract_y
_atom_site_fract_z
_atom_type_partial_charge
C1    C     C_R   0.498410 0.199581 0.453112 0.901903
C2    C     C_R   0.501588 0.800418 0.546888 0.901921
C3    C     C_R   0.101841 0.490631 0.570025 -0.048750
C4    C     C_R   0.898160 0.509355 0.429996 -0.048756
C5    C     C_R   0.124703 0.346182 0.526390 -0.073854
C6    C     C_R   0.875301 0.653810 0.473604 -0.073844
C7    C     C_R   0.095781 0.203647 0.454600 -0.024547
C8    C     C_R   0.904224 0.796345 0.545381 -0.024550
C9    C     C_R   0.130268 0.629626 0.658888 -0.018321
C10   C     C_R   0.869730 0.370356 0.341168 -0.018331
C11   C     C_R   0.354705 0.500622 0.507506 -0.127469
C12   C     C_R   0.645295 0.499395 0.492499 -0.127462
C13   C     C_R   0.971481 0.358533 0.410549 0.050236
C14   C     C_R   0.028519 0.641445 0.589475 0.050236
C15   C     C_R   0.977713 0.647295 0.546587 0.034003
C16   C     C_R   0.022288 0.352686 0.453421 0.034003
C17   C     C_R   0.949309 0.505071 0.463110 0.072657
C18   C     C_R   0.050691 0.494910 0.536907 0.072658
C19   C     C_R   0.942018 0.223540 0.311112 -0.212075
C20   C     C_R   0.057980 0.776432 0.688941 -0.212074
C21   C     C_R   0.892168 0.229963 0.276380 -0.115519
C22   C     C_R   0.107829 0.770010 0.723693 -0.115544
C23   C     C_R   0.407595 0.497803 0.502173 0.837506
C24   C     C_R   0.592405 0.502196 0.497827 0.837525
C25   C     C_R   0.045595 0.208168 0.420023 -0.252323
C26   C     C_R   0.954409 0.791817 0.579967 -0.252325
C27   C     C_2   0.497492 0.031516 0.426751 -0.308447
C28   C     C_2   0.502506 0.968484 0.573249 -0.308430
C29   C     C_R   0.175990 0.352150 0.557036 0.548498
C30   C     C_R   0.824015 0.647853 0.442943 0.548473
C31   C     C_R   0.180970 0.624213 0.680330 0.569325
C32   C     C_R   0.819028 0.375772 0.319748 0.569337
C33   C     C_R   0.282679 0.648614 0.567955 -0.035477
C34   C     C_R   0.717330 0.351419 0.432211 -0.035454
C35   C     C_R   0.333646 0.645019 0.573497 -0.134407
C36   C     C_R   0.666362 0.354988 0.426647 -0.134406
C37   C     C_R   0.324664 0.365001 0.420558 0.068908
C38   C     C_R   0.675328 0.635064 0.579342 0.068889
C39   C     C_R   0.273887 0.370219 0.420620 -0.027323
C40   C     C_R   0.726106 0.629869 0.579310 -0.027327
C41   C     C_R   0.253127 0.503735 0.530459 0.152496
C42   C     C_R   0.746874 0.496310 0.469584 0.152472
Cu1   Cu    Cu3+1 0.505380 0.517380 0.684380 1.003140
Cu2   Cu    Cu3+1 0.494620 0.482620 0.315620 1.003143
H1    H     H_    0.462059 0.377085 0.948513 0.240408
H2    H     H_    0.537941 0.622915 0.051487 0.240405
H3    H     H_    0.871019 0.122655 0.203287 0.197890
H4    H     H_    0.128975 0.877313 0.796812 0.197883
H5    H     H_    0.956293 0.110810 0.255103 0.141245
H6    H     H_    0.043702 0.889155 0.744964 0.141250
H7    H     H_    0.025534 0.095062 0.368527 0.136541
H8    H     H_    0.974472 0.904922 0.631448 0.136544
H9    H     H_    0.492788 0.959426 0.285738 0.185886
H10   H     H_    0.507210 0.040574 0.714261 0.185890
N1    N     N_R   0.202771 0.494744 0.585086 -0.438628
N2    N     N_R   0.797230 0.505271 0.414949 -0.438630
N3    N     N_2   0.486510 0.456430 0.038510 -0.209842
N4    N     N_2   0.513490 0.543570 0.961490 -0.209846
O1    O     O_R   0.503500 0.286120 0.619780 -0.589784
O2    O     O_R   0.496500 0.713880 0.380220 -0.589783
O3    O     O_R   0.494410 0.256780 0.308360 -0.571829
O4    O     O_R   0.505590 0.743220 0.691640 -0.571825
O5    O     O_R   0.434810 0.514700 0.655690 -0.582139
O6    O     O_R   0.565190 0.485300 0.344310 -0.582130
O7    O     O_R   0.425720 0.485350 0.344280 -0.560671
O8    O     O_R   0.574280 0.514650 0.655720 -0.560680
O9    O     O_2   0.198320 0.220393 0.572855 -0.506281
O10   O     O_2   0.801690 0.779600 0.427041 -0.506292
O11   O     O_2   0.792859 0.259164 0.194792 -0.516466
O12   O     O_2   0.207133 0.740785 0.805354 -0.516482
I1    I     I_    0.355593 0.150389 0.288213 -0.296265
I2    I     I_    0.644386 0.849705 0.711515 -0.296310
C43   C     C_1   0.244364 0.254478 0.279207 0.374705
N5    N     N_1   0.220885 0.162236 0.165469 -0.206211
C44   C     C_1   0.755621 0.745686 0.720675 0.374727
N6    N     N_1   0.779090 0.837990 0.834376 -0.206156
C45   C     C_1   0.116169 0.050515 0.403564 0.332129
N7    N     N_1   0.132273 0.927775 0.361952 -0.238874
C46   C     C_1   0.883837 0.949479 0.596415 0.332103
N8    N     N_1   0.867735 0.072221 0.638027 -0.238876
C47   C     C_1   0.635939 0.208392 0.364457 0.296508
N9    N     N_1   0.611820 0.091337 0.314595 -0.256203
C48   C     C_1   0.364077 0.791588 0.635801 0.296495
N10   N     N_1   0.388203 0.908621 0.685752 -0.256225
C49   C     C_1   0.737975 0.204294 0.450285 0.361349
N11   N     N_1   0.754128 0.086707 0.465883 -0.153621
C50   C     C_1   0.262044 0.795786 0.550020 0.361349
N12   N     N_1   0.245898 0.913412 0.534535 -0.153571

loop_
_geom_bond_atom_site_label_1
_geom_bond_atom_site_label_2
_ccdc_geom_bond_type
C22   H4    S    
C50   N12   T    
C8    C26   A    
C43   N5    T    
C14   C18   A    
C34   C42   A    
Cu1   Cu2   S    
C47   N9    T    
Cu1   O5    S    
C39   C41   A    
C49   N11   T    
Cu2   O6    S    
H1    N3    S    
C19   C21   A    
C1    O1    A    
C2    O2    A    
C9    C22   A    
C3    C18   A    
C11   C23   S    
C11   C37   A    
C41   N1    S    
C20   H6    S    
Cu1   N4    S    
C42   N2    S    
C29   O9    S    
C31   O12   S    
C8    C46   S    
C12   C36   A    
Cu2   N3    S    
Cu1   O1    S    
C7    C45   S    
C23   O5    A    
C24   O6    A    
H2    N4    S    
Cu2   O7    S    
C5    C29   A    
C10   C21   A    
C38   I2    S    
C13   C19   A    
C14   C20   A    
C4    C6    A    
C5    C7    A    
C28   H10   S    
C15   C26   A    
C6    C8    A    
C29   N1    A    
C45   N7    T    
C30   N2    A    
C34   C49   S    
C44   N6    T    
C25   H7    S    
C3    C9    A    
C26   H8    S    
C19   H5    S    
C48   N10   T    
C36   C47   S    
C4    C17   A    
C6    C30   A    
C20   C22   A    
C37   I1    S    
C4    C10   A    
C16   C25   A    
C15   C17   A    
C35   C48   S    
C3    C5    A    
C1    O3    A    
C27   H9    S    
C32   O11   S    
C24   O8    A    
Cu2   O3    S    
C12   C24   S    
C7    C25   A    
C40   C44   S    
C13   C17   A    
C33   C41   A    
C23   O7    A    
C11   C35   A    
C33   C50   S    
C37   C39   A    
C38   C40   A    
N3    N4    D    
Cu2   O2    S    
Cu1   O8    S    
C40   C42   A    
C33   C35   A    
C34   C36   A    
C39   C43   S    
C12   C38   A    
C9    C31   A    
C46   N8    T    
C10   C32   A    
C16   C18   A    
C13   C16   A    
C27   C28   D    
C1    C27   S    
C14   C15   A    
C2    C28   S    
C31   N1    A    
C32   N2    A    
C30   O10   S    
C2    O4    A    
Cu1   O4    S    
C21   H3    S    
