data_str_m3_o14_o18_f0_pcu.sym.99
_audit_creation_date              2012-12-10T17:44:38-0500
_audit_creation_method            fapswitch 2.2
_symmetry_space_group_name_H-M    P1
_symmetry_Int_Tables_number       1
_space_group_crystal_system       triclinic
_cell_length_a                    9.912314
_cell_length_b                    10.667734
_cell_length_c                    15.555172
_cell_angle_alpha                 92.569439
_cell_angle_beta                  68.70756
_cell_angle_gamma                 91.932459
_cell_volume                      1530.74650712

loop_
_atom_site_label
_atom_site_type_symbol
_atom_type_description
_atom_site_fract_x
_atom_site_fract_y
_atom_site_fract_z
_atom_type_partial_charge
C1    C     C_R   0.505698 0.739436 0.493467 0.852783
C2    C     C_R   0.744134 0.492240 0.031019 -0.011312
C3    C     C_R   0.594813 0.478737 0.083611 -0.029263
C4    C     C_R   0.410125 0.497592 0.675185 0.831835
C5    C     C_R   0.843537 0.496382 0.076267 -0.169488
C6    C     C_R   0.793516 0.492333 0.172075 -0.264118
C7    C     C_R   0.545736 0.510232 0.178478 0.468166
C8    C     C_R   0.345065 0.872012 0.401342 -0.205531
C9    C     C_R   0.224728 0.922975 0.391370 -0.377489
C10   C     C_R   0.163020 0.033216 0.442359 0.496929
C11   C     C_R   0.235485 0.096151 0.495153 0.454013
C12   C     C_R   0.432550 0.452097 0.904020 0.060430
C13   C     C_R   0.373681 0.054608 0.490984 -0.109229
C14   C     C_R   0.411831 0.932466 0.458263 0.037320
C15   C     C_R   0.512181 0.872731 0.486907 -0.079403
C16   C     C_R   0.492260 0.260196 0.507349 0.891231
C17   C     C_R   0.597652 0.940633 0.527308 -0.233721
C18   C     C_R   0.584029 0.068134 0.539071 -0.183849
C19   C     C_R   0.476302 0.126630 0.518115 -0.108614
C20   C     C_R   0.803157 0.676571 0.612683 -0.267139
C21   C     C_R   0.847037 0.767205 0.665911 0.553122
C22   C     C_R   0.986795 0.764390 0.665851 -0.297871
C23   C     C_R   0.298795 0.389868 0.951152 0.031978
C24   C     C_R   0.080917 0.671434 0.615605 -0.180436
C25   C     C_R   0.043506 0.585493 0.556283 0.150496
C26   C     C_R   0.899542 0.586527 0.555688 -0.001633
C27   C     C_R   0.954876 0.416290 0.446645 0.587492
C28   C     C_R   0.590006 0.502044 0.324442 0.886032
C29   C     C_R   0.097978 0.415198 0.448635 -0.173600
C30   C     C_R   0.358796 0.474902 0.773376 -0.076016
C31   C     C_R   0.644660 0.500557 0.223535 -0.158231
C32   C     C_R   0.198359 0.368355 0.906997 -0.165063
C33   C     C_R   0.229792 0.408612 0.817602 -0.146679
C34   C     C_R   0.539229 0.465617 0.944262 -0.003689
C35   C     C_R   0.455716 0.500101 0.818103 -0.233661
C36   C     C_3   0.172822 0.154358 0.086020 -0.390333
C37   C     C_3   0.967365 0.019270 0.390013 -0.276728
C38   C     C_3   0.111704 0.145925 0.646774 -0.252945
C39   C     C_3   0.001230 0.322489 0.303159 -0.289985
C40   C     C_3   0.632586 0.820558 0.780642 -0.358602
C41   C     C_3   0.301853 0.559782 0.249114 -0.285560
C42   C     C_3   0.962395 0.653690 0.878908 -0.341869
C43   C     C_R   0.498285 0.444167 0.038791 0.022706
C44   C     C_R   0.369065 0.376492 0.083681 -0.330168
C45   C     C_R   0.271004 0.346344 0.039766 0.495940
C46   C     C_R   0.686402 0.494117 0.892738 -0.319109
C47   C     C_R   0.789025 0.503585 0.935070 0.524787
H1    H     H_    0.959032 0.500923 0.038184 0.195194
H2    H     H_    0.674954 0.895547 0.549673 0.196005
H3    H     H_    0.177536 0.871045 0.347658 0.165065
H4    H     H_    0.934514 0.922094 0.413280 0.156677
H5    H     H_    0.039520 0.020525 0.316095 0.136998
H6    H     H_    0.867643 0.068702 0.396030 0.230806
H7    H     H_    0.203085 0.127736 0.669637 0.137117
H8    H     H_    0.042262 0.060114 0.652563 0.177856
H9    H     H_    0.044237 0.219143 0.694446 0.190791
H10   H     H_    0.658464 0.121113 0.564061 0.205667
H11   H     H_    0.098919 0.267289 0.293583 0.166331
H12   H     H_    0.385550 0.784492 0.364520 0.215226
H13   H     H_    0.032427 0.417898 0.275478 0.131373
H14   H     H_    0.943052 0.273881 0.262001 0.224562
H15   H     H_    0.656140 0.749882 0.823592 0.158951
H16   H     H_    0.554468 0.782270 0.749553 0.155128
H17   H     H_    0.579540 0.900324 0.827636 0.204064
H18   H     H_    0.248202 0.565459 0.198088 0.172938
H19   H     H_    0.241395 0.621790 0.308969 0.178337
H20   H     H_    0.292759 0.463486 0.274955 0.140576
H21   H     H_    0.021667 0.832878 0.707357 0.147526
H22   H     H_    0.173323 0.344482 0.409157 0.167841
H23   H     H_    0.694118 0.679884 0.616983 0.209673
H24   H     H_    0.871305 0.490408 0.205881 0.184473
H25   H     H_    0.074399 0.670259 0.829760 0.193172
H26   H     H_    0.956222 0.692698 0.947700 0.166664
H27   H     H_    0.887865 0.704837 0.854464 0.172160
H28   H     H_    0.156234 0.384359 0.782032 0.189789
H29   H     H_    0.551416 0.555711 0.783487 0.142567
H30   H     H_    0.726734 0.501204 0.818589 0.173605
H31   H     H_    0.181312 0.668843 0.625877 0.215678
H32   H     H_    0.097701 0.317289 0.940134 0.189760
H33   H     H_    0.347022 0.340890 0.151382 0.141616
H34   H     H_    0.240709 0.138460 0.127737 0.169148
H35   H     H_    0.225417 0.114790 0.014436 0.174648
H36   H     H_    0.068885 0.102434 0.118182 0.193856
N1    N     N_R   0.856800 0.501200 0.500850 -0.150065
N2    N     N_R   0.142390 0.501280 0.500880 -0.130856
O1    O     O_R   0.385310 0.683220 0.500000 -0.635924
O2    O     O_3   0.032129 0.083646 0.446726 -0.565870
O3    O     O_3   0.161885 0.190748 0.556429 -0.559917
O4    O     O_3   0.907774 0.326416 0.396422 -0.566372
O5    O     O_3   0.759828 0.866064 0.712306 -0.609260
O6    O     O_3   0.445414 0.605720 0.211093 -0.606471
O7    O     O_3   0.932884 0.523391 0.881443 -0.627497
O8    O     O_R   0.614640 0.683250 0.500010 -0.648691
O9    O     O_R   0.319840 0.499980 0.632240 -0.620033
O10   O     O_R   0.549160 0.500000 0.632250 -0.630164
O11   O     O_R   0.385360 0.316750 0.499990 -0.568451
O12   O     O_R   0.614690 0.316780 0.500000 -0.563586
O13   O     O_R   0.450840 0.500000 0.367750 -0.610482
O14   O     O_R   0.680160 0.500020 0.367760 -0.595388
O15   O     O_3   0.143039 0.282689 0.086126 -0.638358
Zn1   Zn    Zn3+2 0.346880 0.499980 0.499990 0.959892
Zn2   Zn    Zn3+2 0.653120 0.500020 0.500010 0.971731

loop_
_geom_bond_atom_site_label_1
_geom_bond_atom_site_label_2
_ccdc_geom_bond_type
C23   C45   A    
C27   C29   A    
N1    Zn2   S    
C47   O7    S    
C41   H20   S    
C12   C23   A    
C3    C43   A    
C40   H16   S    
C30   C35   A    
C21   C22   A    
C27   N1    A    
C3    C7    A    
C8    H12   S    
C5    C6    A    
C37   H4    S    
C16   O12   A    
C36   H36   S    
C40   H15   S    
C18   C19   A    
C33   H28   S    
C38   H8    S    
O9    Zn1   S    
C36   H35   S    
C8    C9    A    
C8    C14   A    
C1    C15   S    
C9    C10   A    
C36   H34   S    
C29   N2    A    
O12   Zn2   S    
O10   Zn2   S    
C37   H6    S    
C6    C31   A    
O11   Zn1   S    
C20   H23   S    
C39   H14   S    
C25   N2    A    
C29   H22   S    
C21   O5    S    
C6    H24   S    
C35   H29   S    
C5    H1    S    
C10   O2    S    
C42   H27   S    
C7    C31   A    
C13   C19   A    
C44   H33   S    
C24   C25   A    
C17   H2    S    
C37   H5    S    
C41   H18   S    
C25   C26   A    
C39   H11   S    
C38   O3    S    
C43   C44   A    
C42   O7    S    
C4    O10   A    
C18   H10   S    
C38   H7    S    
C11   O3    S    
C7    O6    S    
C42   H25   S    
C17   C18   A    
C16   O11   A    
C36   O15   S    
C12   C35   A    
C22   H21   S    
C34   C46   A    
C28   O14   A    
C24   H31   S    
C41   O6    S    
C4    O9    A    
C2    C5    A    
C12   C34   A    
N2    Zn1   S    
C44   C45   A    
C28   O13   A    
C1    O1    A    
C15   C17   A    
C46   C47   A    
C42   H26   S    
C26   N1    A    
C30   C33   A    
C37   O2    S    
C28   C31   S    
C9    H3    S    
C45   O15   S    
O8    Zn2   S    
C46   H30   S    
C41   H19   S    
C2    C47   A    
O13   Zn1   S    
C40   H17   S    
C23   C32   A    
C2    C3    A    
C32   C33   A    
C32   H32   S    
C11   C13   A    
C20   C26   A    
C16   C19   S    
C39   H13   S    
C27   O4    S    
C22   C24   A    
C10   C11   A    
O14   Zn2   S    
C38   H9    S    
C20   C21   A    
C1    O8    A    
C14   C15   A    
C40   O5    S    
C13   C14   A    
O1    Zn1   S    
C34   C43   A    
C39   O4    S    
C4    C30   S    
