data_str_m4_o14_o22_f0_acs.sym.37
_audit_creation_date              2012-12-11T14:23:09-0500
_audit_creation_method            fapswitch 2.2
_symmetry_space_group_name_H-M    P1
_symmetry_Int_Tables_number       1
_space_group_crystal_system       triclinic
_cell_length_a                    11.081243
_cell_length_b                    10.900116
_cell_length_c                    18.852303
_cell_angle_alpha                 90.155023
_cell_angle_beta                  90.184638
_cell_angle_gamma                 59.873519
_cell_volume                      1969.50514341

loop_
_atom_site_label
_atom_site_type_symbol
_atom_type_description
_atom_site_fract_x
_atom_site_fract_y
_atom_site_fract_z
_atom_type_partial_charge
C1    C     C_R   0.240885 0.643878 0.611190 0.543093
C2    C     C_R   0.550829 0.206154 0.719425 -0.159773
C3    C     C_R   0.561925 0.202510 0.791564 -0.165664
C4    C     C_R   0.653508 0.622856 0.600839 0.543188
C5    C     C_R   0.928172 0.126880 0.813458 -0.090117
C6    C     C_R   0.041934 0.097960 0.770914 -0.134406
C7    C     C_R   0.034844 0.086213 0.697883 -0.129169
C8    C     C_R   0.912913 0.106065 0.666553 -0.087994
C9    C     C_R   0.663734 0.179386 0.676346 -0.011973
C10   C     C_R   0.192988 0.656855 0.837463 -0.007727
C11   C     C_R   0.196814 0.542653 0.799507 0.023243
C12   C     C_3   0.664412 0.557670 0.800188 -0.250582
C13   C     C_R   0.190776 0.547027 0.724110 0.019028
C14   C     C_R   0.230023 0.747283 0.728340 -0.150599
C15   C     C_R   0.221124 0.751001 0.801475 -0.153861
C16   C     C_R   0.628004 0.228399 0.602903 0.530403
C17   C     C_R   0.206755 0.424152 0.834939 -0.101689
C18   C     C_R   0.197321 0.319185 0.797769 -0.149333
C19   C     C_R   0.174262 0.331840 0.724996 -0.158694
C20   C     C_R   0.169183 0.445285 0.688414 -0.117814
C21   C     C_R   0.208194 0.651733 0.687877 -0.003713
C22   C     C_R   0.729933 0.697379 0.181818 -0.001479
C23   C     C_3   0.700006 0.675799 0.811570 0.045415
C24   C     C_R   0.801559 0.557804 0.211625 0.038752
C25   C     C_R   0.746722 0.534994 0.272875 0.024861
C26   C     C_R   0.626513 0.788921 0.296907 -0.153521
C27   C     C_R   0.649920 0.812614 0.226609 -0.160611
C28   C     C_R   0.286998 0.622158 0.392576 0.561324
C29   C     C_R   0.921803 0.438337 0.181796 -0.091225
C30   C     C_R   0.970386 0.301772 0.205670 -0.148502
C31   C     C_R   0.902174 0.279934 0.260096 -0.119604
C32   C     C_R   0.782816 0.394120 0.288268 -0.073270
C33   C     C_R   0.664818 0.651382 0.318654 0.007949
C34   C     C_3   0.669632 0.648981 0.676106 0.055073
C35   C     C_R   0.661179 0.147976 0.178782 0.001102
C36   C     C_R   0.528916 0.210638 0.209631 0.012556
C37   C     C_R   0.519807 0.192026 0.282471 0.036058
C38   C     C_R   0.769065 0.092631 0.295835 -0.185518
C39   C     C_R   0.781132 0.083309 0.222474 -0.150868
C40   C     C_R   0.641427 0.621370 0.391448 0.528296
C41   C     C_R   0.406901 0.273914 0.168249 -0.080010
C42   C     C_R   0.286410 0.283041 0.194008 -0.119568
C43   C     C_R   0.279556 0.247413 0.263955 -0.156951
C44   C     C_R   0.394968 0.201835 0.307953 -0.095913
C45   C     C_3   0.818407 0.620473 0.690772 -0.245998
C46   C     C_R   0.637952 0.159371 0.325999 -0.003890
C47   C     C_R   0.176594 0.654130 0.175652 -0.000449
C48   C     C_R   0.264003 0.706132 0.197287 0.027421
C49   C     C_R   0.280768 0.719024 0.270425 0.011371
C50   C     C_R   0.169477 0.579063 0.294342 -0.128160
C51   C     C_R   0.127277 0.595344 0.224856 -0.152205
C52   C     C_R   0.616382 0.224515 0.396370 0.525708
C53   C     C_R   0.316366 0.765324 0.147999 -0.075166
C54   C     C_R   0.348090 0.867219 0.169981 -0.102569
C55   C     C_R   0.339786 0.900472 0.241387 -0.142701
C56   C     C_3   0.644107 0.543436 0.720557 -0.212665
C57   C     C_R   0.317680 0.820484 0.291641 -0.111985
C58   C     C_R   0.246699 0.639910 0.318297 0.004985
C59   C     C_R   0.702488 0.103227 0.896438 0.537268
C60   C     C_R   0.724771 0.688808 0.887640 0.553971
C61   C     C_R   0.121626 0.702992 0.906669 0.535715
C62   C     C_R   0.677732 0.103861 0.104842 0.526709
C63   C     C_R   0.737984 0.717696 0.105032 0.569108
C64   C     C_3   0.579356 0.817239 0.780482 -0.229293
C65   C     C_R   0.099109 0.705279 0.110316 0.523656
C66   C     C_3   0.564471 0.802602 0.700091 -0.241468
C67   C     C_R   0.688631 0.162959 0.824901 -0.012764
C68   C     C_3   0.835469 0.638768 0.770238 -0.219700
C69   C     C_R   0.803863 0.143930 0.783248 0.019043
C70   C     C_R   0.793536 0.142968 0.707925 0.012443
Cr1   Cr    Cr6+3 0.392940 0.397950 0.502230 0.997174
Cr2   Cr    Cr6+3 0.398400 0.708500 0.501260 0.986489
Cr3   Cr    Cr6+3 0.708640 0.393530 0.496460 0.995839
Cr4   Cr    Cr6+3 0.937880 0.938320 0.007620 0.997558
Cr5   Cr    Cr6+3 0.625560 0.937220 0.994510 0.989149
Cr6   Cr    Cr6+3 0.938080 0.625010 0.001190 0.980649
H1    H     H_    0.600715 0.905451 0.789864 0.149522
H2    H     H_    0.255375 0.820300 0.703403 0.133991
H3    H     H_    0.479237 0.845666 0.807285 0.115072
H4    H     H_    0.228682 0.407908 0.891156 0.128638
H5    H     H_    0.229757 0.832699 0.829845 0.132077
H6    H     H_    0.208265 0.228396 0.826141 0.104560
H7    H     H_    0.162716 0.252546 0.696311 0.115876
H8    H     H_    0.145016 0.452467 0.632618 0.140023
H9    H     H_    0.570348 0.877956 0.332515 0.115020
H10   H     H_    0.985308 0.447368 0.141742 0.147189
H11   H     H_    0.604211 0.919845 0.206973 0.139508
H12   H     H_    0.717748 0.432411 0.704021 0.152567
H13   H     H_    0.061599 0.212778 0.182349 0.113551
H14   H     H_    0.945333 0.174553 0.280815 0.117689
H15   H     H_    0.455685 0.829849 0.688272 0.128493
H16   H     H_    0.720390 0.373280 0.323093 0.169777
H17   H     H_    0.861019 0.050598 0.329186 0.125190
H18   H     H_    0.406567 0.306782 0.114063 0.128724
H19   H     H_    0.885011 0.024753 0.200167 0.162693
H20   H     H_    0.200875 0.315460 0.158233 0.097323
H21   H     H_    0.186257 0.252825 0.284537 0.121048
H22   H     H_    0.387257 0.164661 0.359870 0.137858
H23   H     H_    0.923625 0.538387 0.790783 0.168846
H24   H     H_    0.132220 0.528017 0.330290 0.150570
H25   H     H_    0.319663 0.743448 0.091731 0.126112
H26   H     H_    0.050419 0.568168 0.210527 0.124511
H27   H     H_    0.584209 0.879376 0.670835 0.119626
H28   H     H_    0.375123 0.923199 0.131682 0.139362
H29   H     H_    0.360094 0.982302 0.258523 0.120825
H30   H     H_    0.322288 0.848003 0.345798 0.165413
H31   H     H_    0.862542 0.723459 0.778032 0.128701
H32   H     H_    0.839362 0.694193 0.659450 0.113338
H33   H     H_    0.749942 0.455015 0.820983 0.133863
H34   H     H_    0.895895 0.510398 0.674671 0.147357
H35   H     H_    0.567446 0.583015 0.829407 0.117266
H36   H     H_    0.536650 0.563080 0.710999 0.129391
H37   H     H_    0.938384 0.140870 0.869339 0.142759
H38   H     H_    0.450001 0.234557 0.697591 0.168922
H39   H     H_    0.471769 0.220519 0.821515 0.153835
H40   H     H_    0.137989 0.079569 0.794939 0.089879
H41   H     H_    0.124906 0.059805 0.665284 0.101113
H42   H     H_    0.914693 0.089171 0.609979 0.135700
O1    O     O_R   0.507340 0.255690 0.581430 -0.526506
O2    O     O_R   0.837290 0.593240 0.915240 -0.522543
O3    O     O_R   0.065320 0.635310 0.931580 -0.513370
O4    O     O_R   0.280360 0.527380 0.578910 -0.506068
O5    O     O_R   0.068470 0.828620 0.091850 -0.525658
O6    O     O_R   0.799150 0.057200 0.079350 -0.503408
O7    O     O_R   0.585220 0.080180 0.076770 -0.539759
O8    O     O_R   0.627170 0.809480 0.067050 -0.501802
O9    O     O_R   0.816200 0.596410 0.076500 -0.532734
O10   O     O_R   0.045770 0.638240 0.081070 -0.543318
O11   O     O_3   0.833840 0.833520 0.001110 -0.264242
O12   O     O_R   0.524510 0.695820 0.424050 -0.534046
O13   O     O_R   0.260600 0.739610 0.584580 -0.525761
O14   O     O_R   0.532370 0.695050 0.573830 -0.510249
O15   O     O_R   0.744850 0.503430 0.576380 -0.523581
O16   O     O_R   0.699080 0.276500 0.571950 -0.509018
O17   O     O_R   0.498860 0.256520 0.419860 -0.537435
O18   O     O_R   0.272490 0.528150 0.429140 -0.499952
O19   O     O_R   0.252110 0.740440 0.423010 -0.536487
O20   O     O_R   0.736370 0.504260 0.414810 -0.522586
O21   O     O_R   0.691220 0.277270 0.422180 -0.521483
O22   O     O_3   0.499990 0.499990 0.499980 -0.263067
O23   O     O_R   0.089570 0.825450 0.930590 -0.523452
O24   O     O_R   0.818700 0.054260 0.929860 -0.506728
O25   O     O_R   0.606310 0.077010 0.915520 -0.531945
O26   O     O_R   0.646730 0.806540 0.917560 -0.504015

loop_
_geom_bond_atom_site_label_1
_geom_bond_atom_site_label_2
_ccdc_geom_bond_type
Cr4   O6    S    
C1    C21   S    
C11   C13   A    
C64   H1    S    
C7    H41   S    
Cr1   O4    S    
C19   C20   A    
C16   O16   A    
C34   C66   S    
C62   O6    A    
C8    H42   S    
C7    C8    A    
C15   H5    S    
C32   H16   S    
C53   C54   A    
C51   H26   S    
C34   C56   S    
C12   C23   S    
C26   C27   A    
Cr6   O2    S    
C55   H29   S    
C5    C6    A    
Cr6   O3    S    
C14   C21   A    
C54   H28   S    
C36   C37   A    
C9    C16   S    
C10   C15   A    
Cr1   O17   S    
C30   C31   A    
C56   H12   S    
Cr3   O20   S    
C46   C52   S    
C52   O21   A    
C49   C57   A    
C61   O3    A    
C18   C19   A    
C41   C42   A    
C24   C29   A    
C5    C69   A    
C59   C67   S    
C22   C63   S    
C1    O4    A    
C44   H22   S    
C41   H18   S    
C59   O24   A    
C53   H25   S    
C40   O20   A    
C47   C48   A    
C60   O2    A    
C68   H31   S    
C45   H32   S    
C25   C32   A    
C65   O5    A    
C57   H30   S    
Cr4   O24   S    
C59   O25   A    
C36   C41   A    
C48   C53   A    
C30   H13   S    
C19   H7    S    
C12   H33   S    
Cr2   O14   S    
Cr2   O19   S    
C23   C60   S    
C4    C34   S    
C33   C40   S    
C50   C58   A    
C65   O10   A    
C9    C70   A    
C4    O14   A    
Cr5   O26   S    
C16   O1    A    
Cr1   O18   S    
C45   H34   S    
C47   C51   A    
Cr3   O21   S    
C50   C51   A    
C17   H4    S    
C49   C58   A    
C67   C69   A    
C35   C36   A    
C64   C66   S    
C23   C68   S    
C35   C39   A    
C43   C44   A    
C29   C30   A    
Cr6   O11   S    
C26   C33   A    
C31   C32   A    
C31   H14   S    
C39   H19   S    
C45   C68   S    
C17   C18   A    
C13   C21   A    
C34   C45   S    
C24   C25   A    
C27   H11   S    
C6    H40   S    
C29   H10   S    
C12   C56   S    
C66   H15   S    
Cr5   O25   S    
C61   O23   A    
C23   C64   S    
Cr4   O23   S    
Cr3   O15   S    
C22   C27   A    
C20   H8    S    
Cr6   O10   S    
C64   H3    S    
C22   C24   A    
C10   C61   S    
C42   C43   A    
Cr2   O13   S    
C52   O17   A    
C40   O12   A    
C54   C55   A    
C11   C17   A    
Cr1   O22   S    
C13   C20   A    
C5    H37   S    
C28   O18   A    
C50   H24   S    
C66   H27   S    
C3    C67   A    
C28   O19   A    
C43   H21   S    
C1    O13   A    
C62   O7    A    
Cr2   O12   S    
C6    C7    A    
Cr3   O22   S    
C28   C58   S    
C8    C70   A    
Cr1   O1    S    
C42   H20   S    
Cr5   O8    S    
C37   C44   A    
C55   C57   A    
C2    C3    A    
C68   H23   S    
C3    H39   S    
C60   O26   A    
C2    H38   S    
C38   C39   A    
C26   H9    S    
C48   C49   A    
C38   H17   S    
C18   H6    S    
C47   C65   S    
Cr4   O5    S    
C35   C62   S    
C14   H2    S    
C69   C70   A    
C38   C46   A    
C63   O8    A    
C10   C11   A    
Cr2   O22   S    
Cr3   O16   S    
Cr4   O11   S    
Cr6   O9    S    
C14   C15   A    
Cr5   O7    S    
C37   C46   A    
C2    C9    A    
C56   H36   S    
C12   H35   S    
C63   O9    A    
Cr5   O11   S    
C25   C33   A    
C4    O15   A    
