data_str_m9_o11_o2_f0_sra.sym.154
_audit_creation_date              2012-12-11T14:29:29-0500
_audit_creation_method            fapswitch 2.2
_symmetry_space_group_name_H-M    P1
_symmetry_Int_Tables_number       1
_space_group_crystal_system       triclinic
_cell_length_a                    6.941233
_cell_length_b                    14.980819
_cell_length_c                    16.111132
_cell_angle_alpha                 90.046063
_cell_angle_beta                  90.175337
_cell_angle_gamma                 90.497734
_cell_volume                      1675.2501475

loop_
_atom_site_label
_atom_site_type_symbol
_atom_type_description
_atom_site_fract_x
_atom_site_fract_y
_atom_site_fract_z
_atom_type_partial_charge
O1    O     O_R   0.494400 0.416610 0.413880 -0.539115
O2    O     O_R   0.823920 0.406790 0.585520 -0.542081
O3    O     O_R   0.994250 0.583390 0.586120 -0.548188
C1    C     C_R   0.654592 0.386873 0.614963 0.731272
O4    O     O_R   0.824110 0.405730 0.414490 -0.555656
O5    O     O_R   0.994440 0.582310 0.413870 -0.552528
C2    C     C_R   0.653883 0.385955 0.384379 0.637109
O6    O     O_R   0.494210 0.417690 0.586130 -0.539433
O7    O     O_3   0.660810 0.557940 0.500000 -0.376383
V1    V     V_3+5 0.935650 0.489250 0.500000 1.373781
O8    O     O_R   0.324160 0.593210 0.414480 -0.529311
C3    C     C_R   0.156227 0.611099 0.383459 0.684642
O9    O     O_R   0.323970 0.594270 0.585510 -0.516903
C4    C     C_R   0.155801 0.619234 0.610871 0.773322
V2    V     V_3+5 0.435660 0.510750 0.500000 1.413840
O10   O     O_3   0.160630 0.442060 0.500000 -0.378244
H1    H     H_    0.321145 0.922175 0.502084 0.143450
C5    C     C_R   0.045177 0.571672 0.776083 -0.143906
C6    C     C_R   0.986994 0.545086 0.854917 -0.101764
C7    C     C_R   0.973156 0.607413 0.918245 -0.100273
C8    C     C_R   0.017509 0.696724 0.903176 -0.144706
C9    C     C_R   0.075253 0.726360 0.823303 0.055933
C10   C     C_R   0.089176 0.662378 0.758191 0.059852
C11   C     C_R   0.122252 0.817445 0.808927 -0.142581
C12   C     C_R   0.185306 0.844556 0.727019 -0.063100
C13   C     C_R   0.200717 0.779689 0.661386 -0.016919
C14   C     C_R   0.149953 0.688428 0.677533 -0.156657
C15   C     C_R   0.233683 0.935280 0.707445 0.186943
C16   C     C_R   0.266935 0.963418 0.625885 0.435014
C17   C     C_R   0.279905 0.900818 0.563807 -0.314368
C18   C     C_R   0.263221 0.810192 0.580993 0.193951
H2    H     H_    0.057016 0.519644 0.729877 0.101455
H3    H     H_    0.953959 0.475532 0.867020 0.126892
H4    H     H_    0.929237 0.586387 0.979670 0.123864
H5    H     H_    0.007131 0.741707 0.955433 0.104093
C19   C     C_2   0.001630 0.724196 0.295033 -0.187009
C20   C     C_2   0.151495 0.668554 0.308465 0.132026
H6    H     H_    0.886158 0.726561 0.340327 0.093952
C21   C     C_2   0.977756 0.781891 0.220326 -0.119498
C22   C     C_2   0.127195 0.821958 0.182362 -0.275539
H7    H     H_    0.832103 0.796991 0.200466 0.126725
H8    H     H_    0.271268 0.813674 0.206763 0.172823
C23   C     C_2   0.773873 0.227431 0.795848 -0.197596
C24   C     C_2   0.615010 0.203972 0.838526 0.308993
H9    H     H_    0.905462 0.194698 0.808501 0.069994
C25   C     C_2   0.785412 0.300347 0.733317 -0.098862
C26   C     C_2   0.638333 0.320586 0.682403 -0.262030
H10   H     H_    0.925138 0.331634 0.723423 0.111911
H11   H     H_    0.500384 0.287213 0.689539 0.156129
C27   C     C_2   0.775736 0.207634 0.217160 -0.097406
C28   C     C_2   0.613247 0.174125 0.182632 -0.256756
H12   H     H_    0.914589 0.186462 0.193743 0.123983
H13   H     H_    0.474838 0.189151 0.209670 0.161615
C29   C     C_2   0.776535 0.267270 0.291727 -0.231217
C30   C     C_2   0.637003 0.326815 0.309685 0.317902
H14   H     H_    0.900243 0.262099 0.332824 0.083527
O11   O     O_R   0.770210 0.079270 0.910680 -0.559431
O12   O     O_R   0.440150 0.091160 0.082270 -0.544421
O13   O     O_R   0.269970 0.914530 0.082860 -0.543869
C31   C     C_R   0.609261 0.111575 0.111536 0.719718
O14   O     O_R   0.440480 0.090100 0.911240 -0.533882
O15   O     O_R   0.270310 0.913460 0.910610 -0.515183
C32   C     C_R   0.609976 0.120110 0.890966 0.637487
O16   O     O_R   0.769870 0.080340 0.082930 -0.540412
O17   O     O_3   0.603660 0.938980 0.996790 -0.364635
V3    V     V_3+5 0.328750 0.007610 0.996740 1.428335
O18   O     O_R   0.940600 0.902510 0.911180 -0.547953
C33   C     C_R   0.109609 0.882033 0.880995 0.774923
O19   O     O_R   0.940270 0.903570 0.082200 -0.542744
C34   C     C_R   0.109320 0.883558 0.111489 0.712602
V4    V     V_3+5 0.828770 0.986010 0.996670 1.402991
O20   O     O_3   0.103730 0.054750 0.996710 -0.381445
N1    N     N_2   0.289218 0.653308 0.244498 -0.502522
H15   H     H_    0.275924 0.590784 0.218161 0.259677
C35   C     C_3   0.487379 0.676276 0.263835 -0.546033
H16   H     H_    0.568501 0.684110 0.205032 0.197818
H17   H     H_    0.556458 0.622337 0.300236 0.205717
H18   H     H_    0.496370 0.740218 0.298739 0.179272
O21   O     O_3   0.481471 0.271473 0.850925 -0.538937
C36   C     C_3   0.294071 0.244234 0.829232 -0.238647
H19   H     H_    0.220968 0.213885 0.883524 0.165382
H20   H     H_    0.291323 0.199848 0.774021 0.127021
H21   H     H_    0.211235 0.304594 0.812556 0.149353
O22   O     O_3   0.496084 0.343856 0.250134 -0.546022
C37   C     C_3   0.308817 0.331155 0.282539 -0.215805
H22   H     H_    0.249709 0.395762 0.304073 0.159914
H23   H     H_    0.301710 0.280207 0.332918 0.101678
H24   H     H_    0.213471 0.307233 0.231653 0.145733
N2    N     N_2   0.243157 0.001322 0.769072 -0.498572
H25   H     H_    0.361888 0.042766 0.764216 0.268120
C38   C     C_3   0.066490 0.049229 0.777002 -0.530442
H26   H     H_    0.072322 0.082407 0.837874 0.219601
H27   H     H_    0.939011 0.003776 0.775512 0.188394
H28   H     H_    0.052472 0.098157 0.725716 0.190535
O23   O     O_3   0.309295 0.052552 0.610146 -0.556044
C39   C     C_3   0.174831 0.087750 0.553218 -0.285553
H29   H     H_    0.023716 0.068725 0.568988 0.137034
H30   H     H_    0.209309 0.067085 0.488773 0.137325
H31   H     H_    0.184622 0.161670 0.555625 0.160930
N3    N     N_2   0.326181 0.752416 0.517127 -0.498665
H32   H     H_    0.257367 0.765361 0.461675 0.226849
C40   C     C_3   0.534051 0.753259 0.506882 -0.420808
H33   H     H_    0.574506 0.711182 0.453293 0.193532
H34   H     H_    0.605262 0.727616 0.563837 0.203204
H35   H     H_    0.588905 0.821685 0.493696 0.141916

loop_
_geom_bond_atom_site_label_1
_geom_bond_atom_site_label_2
_ccdc_geom_bond_type
C11   C12   A    
N1    H15   S    
O23   C39   S    
C2    C30   S    
C1    O6    A    
C26   H11   S    
C37   H22   S    
C12   C15   A    
C13   C14   A    
C27   C29   S    
C22   C34   S    
C19   C20   D    
O13   V3    S    
O5    C3    A    
C17   C18   A    
O12   C31   A    
V2    O10   S    
C39   H31   S    
C40   H35   S    
O14   C32   A    
C5    C6    A    
O16   V4    S    
C3    C20   S    
O19   V4    S    
C29   C30   D    
O8    V2    S    
O14   V3    S    
O12   V3    S    
V3    O20   S    
C6    C7    A    
C39   H30   S    
C27   H12   S    
C15   N2    S    
O1    V2    S    
C10   C14   A    
C4    C14   S    
N2    C38   S    
O7    V1    S    
C7    H4    S    
C22   H8    S    
C13   C18   A    
C8    C9    A    
H1    C17   S    
N1    C35   S    
O19   C34   A    
C36   H21   S    
C23   C25   S    
O11   C32   A    
C25   H10   S    
C37   H23   S    
C24   C32   S    
C29   H14   S    
O15   V3    S    
C5    C10   A    
O22   C37   S    
C36   H20   S    
C6    H3    S    
C38   H26   S    
O4    C2    A    
C12   C13   A    
O17   V4    S    
C19   C21   S    
O18   C33   A    
C28   H13   S    
O2    C1    A    
C35   H16   S    
C16   C17   A    
C38   H27   S    
C23   H9    S    
C39   H29   S    
N3    C40   S    
C27   C28   D    
C18   N3    S    
O11   V4    S    
C40   H34   S    
C35   H17   S    
O3    C4    A    
O6    V2    S    
O9    V2    S    
C23   C24   D    
C9    C11   A    
C5    H2    S    
O2    V1    S    
C21   C22   D    
C16   O23   S    
C37   H24   S    
C20   N1    S    
C25   C26   D    
C15   C16   A    
O1    C2    A    
C24   O21   S    
C36   H19   S    
O5    V1    S    
O8    C3    A    
C8    H5    S    
C30   O22   S    
O15   C33   A    
C31   O16   A    
C19   H6    S    
O7    V2    S    
O4    V1    S    
O3    V1    S    
V1    O10   S    
C38   H28   S    
N3    H32   S    
O18   V4    S    
C40   H33   S    
C35   H18   S    
C11   C33   S    
O13   C34   A    
O21   C36   S    
V4    O20   S    
C7    C8    A    
C21   H7    S    
O17   V3    S    
C9    C10   A    
C28   C31   S    
N2    H25   S    
O9    C4    A    
C1    C26   S    
