data_str_m9_o2_o19_f0_sra.sym.4
_audit_creation_date              2012-12-11T16:28:27-0500
_audit_creation_method            fapswitch 2.2
_symmetry_space_group_name_H-M    P1
_symmetry_Int_Tables_number       1
_space_group_crystal_system       triclinic
_cell_length_a                    16.460183
_cell_length_b                    7.256762
_cell_length_c                    15.324912
_cell_angle_alpha                 89.998333
_cell_angle_beta                  94.565145
_cell_angle_gamma                 89.996182
_cell_volume                      1824.71704892

loop_
_atom_site_label
_atom_site_type_symbol
_atom_type_description
_atom_site_fract_x
_atom_site_fract_y
_atom_site_fract_z
_atom_type_partial_charge
O1    O     O_R   0.663460 0.361760 0.165970 -0.545902
O2    O     O_R   0.336540 0.638240 0.834030 -0.520496
O3    O     O_R   0.836540 0.861760 0.334030 -0.545861
O4    O     O_R   0.163460 0.138240 0.665970 -0.520520
O5    O     O_R   0.827100 0.689870 0.163730 -0.556109
O6    O     O_R   0.172900 0.310130 0.836270 -0.510334
O7    O     O_R   0.672900 0.189870 0.336270 -0.556220
O8    O     O_R   0.327100 0.810130 0.663730 -0.510329
H1    H     H_    0.214403 0.011834 0.507718 0.148477
H2    H     H_    0.785694 0.029514 0.493683 0.148538
H3    H     H_    0.285602 0.511373 0.992326 0.148476
H4    H     H_    0.714304 0.529592 0.006301 0.148557
C1    C     C_R   0.853235 0.522825 0.143585 0.695568
C2    C     C_R   0.146832 0.476983 0.856499 0.698948
C3    C     C_R   0.646761 0.022831 0.356411 0.695728
C4    C     C_R   0.353168 0.976980 0.643500 0.698950
O9    O     O_R   0.663490 0.691370 0.155500 -0.524375
O10   O     O_R   0.336510 0.308630 0.844500 -0.548069
O11   O     O_R   0.836510 0.191370 0.344500 -0.524490
O12   O     O_R   0.163490 0.808630 0.655500 -0.548061
O13   O     O_R   0.671770 0.863320 0.325740 -0.510064
O14   O     O_R   0.328230 0.136680 0.674260 -0.554656
O15   O     O_R   0.828230 0.363320 0.174260 -0.510013
O16   O     O_R   0.171770 0.636680 0.825740 -0.554663
C5    C     C_R   0.633963 0.523524 0.136411 0.764837
C6    C     C_R   0.366201 0.477347 0.863419 0.759577
C7    C     C_R   0.866045 0.023511 0.363579 0.765045
C8    C     C_R   0.133795 0.977360 0.636588 0.759564
O17   O     O_3   0.752910 0.528800 0.305860 -0.374589
O18   O     O_3   0.247090 0.471200 0.694140 -0.374176
O19   O     O_3   0.747090 0.028800 0.194140 -0.374401
O20   O     O_3   0.252910 0.971200 0.805860 -0.374182
V1    V     V_3+5 0.749460 0.803010 0.239640 1.510885
V2    V     V_3+5 0.250540 0.196990 0.760360 1.517118
V3    V     V_3+5 0.750540 0.303010 0.260360 1.510601
V4    V     V_3+5 0.249460 0.696990 0.739640 1.517128
C9    C     C_1   0.468628 0.994167 0.529860 0.116108
C10   C     C_1   0.531057 0.004721 0.469724 0.119376
C11   C     C_1   0.031368 0.494168 0.970134 0.116157
C12   C     C_1   0.968936 0.504710 0.030269 0.119382
C13   C     C_R   0.040457 0.060327 0.323343 0.272279
C14   C     C_R   0.960277 0.027229 0.678852 0.271714
C15   C     C_R   0.459560 0.560588 0.176647 0.272352
C16   C     C_R   0.539711 0.527214 0.821143 0.271718
C17   C     C_R   0.122530 0.093195 0.307685 0.352939
C18   C     C_R   0.878859 0.063560 0.696225 0.352956
C19   C     C_R   0.377470 0.593250 0.192310 0.353048
C20   C     C_R   0.621124 0.563567 0.803761 0.352928
C21   C     C_R   0.183925 0.071927 0.374798 0.405200
C22   C     C_R   0.817033 0.058132 0.628827 0.407148
C23   C     C_R   0.316073 0.571683 0.125223 0.405271
C24   C     C_R   0.682953 0.558169 0.871156 0.407170
C25   C     C_R   0.164138 0.025699 0.458300 -0.277958
C26   C     C_R   0.836143 0.029930 0.543363 -0.280384
C27   C     C_R   0.335867 0.525416 0.041729 -0.277902
C28   C     C_R   0.663853 0.529977 0.956624 -0.280355
C29   C     C_R   0.082167 0.011011 0.479156 -0.054101
C30   C     C_R   0.917861 0.015230 0.521633 -0.055381
C31   C     C_R   0.417839 0.510913 0.020857 -0.054124
C32   C     C_R   0.582138 0.515259 0.978360 -0.055394
C33   C     C_R   0.018369 0.027039 0.410704 -0.070325
C34   C     C_R   0.981780 0.008782 0.590310 -0.068910
C35   C     C_R   0.481639 0.527107 0.089297 -0.070287
C36   C     C_R   0.518215 0.508777 0.909689 -0.068897
C37   C     C_R   0.064309 0.991539 0.567988 -0.053864
C38   C     C_R   0.935509 0.016263 0.432328 -0.053277
C39   C     C_R   0.435691 0.491488 0.932019 -0.053892
C40   C     C_R   0.564496 0.516322 0.067666 -0.053130
C41   C     C_1   0.415762 0.985691 0.581225 -0.125214
C42   C     C_1   0.583995 0.013427 0.418456 -0.121078
C43   C     C_1   0.084235 0.485698 0.918772 -0.125198
C44   C     C_1   0.915998 0.513411 0.081536 -0.121205
Cl1   Cl    Cl    0.147966 0.169986 0.203908 -0.476500
Cl2   Cl    Cl    0.854970 0.125281 0.802798 -0.481470
Cl3   Cl    Cl    0.352005 0.670312 0.296032 -0.476609
Cl4   Cl    Cl    0.644997 0.625270 0.697181 -0.481541
Cl5   Cl    Cl    0.714378 0.095303 0.648868 -0.514144
Cl6   Cl    Cl    0.286951 0.112100 0.357378 -0.510832
Cl7   Cl    Cl    0.785602 0.595368 0.851104 -0.514080
Cl8   Cl    Cl    0.213028 0.611643 0.142648 -0.511000
O21   O     O_3   0.981982 0.080924 0.254208 -0.549068
C45   C     C_3   0.980572 0.919597 0.202715 -0.105274
H5    H     H_    0.965320 0.796676 0.241573 0.111153
H6    H     H_    0.039153 0.894737 0.173446 0.189187
H7    H     H_    0.933432 0.936949 0.147561 0.165124
O22   O     O_3   0.019074 0.031072 0.748325 -0.547381
C46   C     C_3   0.017145 0.861956 0.793469 -0.111739
H8    H     H_    0.033371 0.745666 0.750918 0.111902
H9    H     H_    0.957054 0.833434 0.818809 0.192984
H10   H     H_    0.062073 0.869363 0.851156 0.163622
O23   O     O_3   0.518056 0.581792 0.245719 -0.549070
C47   C     C_3   0.519674 0.420749 0.297425 -0.105390
H11   H     H_    0.534686 0.297535 0.258640 0.111088
H12   H     H_    0.461258 0.396274 0.327079 0.189176
H13   H     H_    0.567084 0.438294 0.352300 0.165111
O24   O     O_3   0.480911 0.531014 0.751672 -0.547382
C48   C     C_3   0.482862 0.361887 0.706544 -0.111744
H14   H     H_    0.466635 0.245607 0.749101 0.111926
H15   H     H_    0.542962 0.333360 0.681222 0.192989
H16   H     H_    0.437947 0.369281 0.648847 0.163609

loop_
_geom_bond_atom_site_label_1
_geom_bond_atom_site_label_2
_ccdc_geom_bond_type
C30   C34   A    
C16   C20   A    
C46   H8    S    
C10   C42   T    
C27   C31   A    
C2    C43   S    
C20   Cl4   S    
O10   C6    A    
C13   C33   A    
O21   C45   S    
C15   C35   A    
C16   C36   A    
C22   C26   A    
C6    C39   S    
C9    C41   T    
O8    V4    S    
O13   V1    S    
O3    V1    S    
C21   Cl6   S    
C1    O15   A    
C17   Cl1   S    
C14   C18   A    
C2    O16   A    
C23   Cl8   S    
C48   H15   S    
C33   C38   A    
C30   C38   A    
O5    V1    S    
O19   V1    S    
C14   O22   S    
C24   Cl7   S    
O11   C7    A    
C14   C34   A    
O5    C1    A    
O23   C47   S    
C31   C39   A    
O7    C3    A    
O8    C4    A    
C11   C43   T    
O1    C5    A    
C5    C40   S    
O9    V1    S    
O4    C8    A    
C48   H14   S    
O14   V2    S    
O4    V2    S    
C36   C39   A    
C11   C12   S    
C25   C29   A    
O22   C46   S    
C19   C23   A    
O12   C8    A    
C47   H13   S    
C15   O23   S    
C28   C32   A    
O20   V2    S    
C9    C10   S    
C16   O24   S    
O6    C2    A    
C17   C21   A    
C13   O21   S    
O24   C48   S    
C47   H12   S    
O2    C6    A    
O16   V4    S    
O10   V2    S    
H4    C28   S    
C45   H6    S    
C46   H9    S    
C31   C35   A    
H1    C25   S    
C22   Cl5   S    
C18   Cl2   S    
C48   H16   S    
H3    C27   S    
O1    V3    S    
C26   C30   A    
O2    V4    S    
C3    C42   S    
O17   V3    S    
C35   C40   A    
C4    O14   A    
C12   C44   T    
C34   C37   A    
O7    V3    S    
C4    C41   S    
C29   C37   A    
C29   C33   A    
C1    C44   S    
C45   H7    S    
C18   C22   A    
O15   V3    S    
O18   V4    S    
C32   C36   A    
O9    C5    A    
O3    C7    A    
C8    C37   S    
C19   Cl3   S    
C7    C38   S    
O11   V3    S    
C3    O13   A    
C21   C25   A    
C47   H11   S    
C23   C27   A    
H2    C26   S    
O12   V4    S    
O6    V2    S    
C20   C24   A    
C32   C40   A    
C45   H5    S    
C46   H10   S    
C13   C17   A    
C15   C19   A    
C24   C28   A    
