data_str_m9_o13_o16_f0_sra.sym.38
_audit_creation_date              2012-12-11T14:43:33-0500
_audit_creation_method            fapswitch 2.2
_symmetry_space_group_name_H-M    P1
_symmetry_Int_Tables_number       1
_space_group_crystal_system       triclinic
_cell_length_a                    20.703833
_cell_length_b                    7.106753
_cell_length_c                    16.352153
_cell_angle_alpha                 89.965674
_cell_angle_beta                  92.591972
_cell_angle_gamma                 90.000318
_cell_volume                      2403.54520281

loop_
_atom_site_label
_atom_site_type_symbol
_atom_type_description
_atom_site_fract_x
_atom_site_fract_y
_atom_site_fract_z
_atom_type_partial_charge
O1    O     O_R   0.564840 0.505290 0.579830 -0.534800
O2    O     O_R   0.435160 0.005290 0.420170 -0.534450
O3    O     O_R   0.556720 0.179930 0.409350 -0.542767
O4    O     O_R   0.443280 0.679930 0.590650 -0.542882
C1    C     C_R   0.569042 0.345423 0.379527 0.730373
C2    C     C_R   0.430870 0.845320 0.620388 0.729853
O5    O     O_R   0.572280 0.175810 0.578530 -0.539598
O6    O     O_R   0.427720 0.675810 0.421470 -0.540094
O7    O     O_R   0.450830 0.001920 0.590540 -0.537531
O8    O     O_R   0.549170 0.501920 0.409460 -0.537605
C3    C     C_R   0.590044 0.344099 0.604633 0.682748
C4    C     C_R   0.409953 0.844179 0.395385 0.682204
O9    O     O_3   0.460130 0.338030 0.503750 -0.369343
O10   O     O_3   0.539870 0.838030 0.496250 -0.369342
V1    V     V_3+5 0.507400 0.064560 0.499310 1.399912
V2    V     V_3+5 0.492600 0.564560 0.500690 1.399216
C5    C     C_R   0.141506 0.910959 0.170711 -0.078668
C6    C     C_R   0.858459 0.411397 0.829342 -0.078664
C7    C     C_R   0.356949 0.853042 0.331970 -0.035920
C8    C     C_R   0.643082 0.352596 0.668030 -0.036462
C9    C     C_R   0.320932 0.855642 0.188201 -0.185317
C10   C     C_R   0.679438 0.346172 0.811678 -0.183583
C11   C     C_R   0.370738 0.843689 0.248884 -0.194799
C12   C     C_R   0.629583 0.335837 0.751006 -0.196688
C13   C     C_R   0.292472 0.872400 0.353961 -0.220111
C14   C     C_R   0.707332 0.378126 0.646131 -0.219973
C15   C     C_R   0.241982 0.883877 0.293262 0.125011
C16   C     C_R   0.757885 0.387799 0.706803 0.124590
C17   C     C_R   0.256412 0.877375 0.209777 0.154902
C18   C     C_R   0.743731 0.373589 0.790209 0.154264
C19   C     C_R   0.206235 0.892735 0.149339 -0.251766
C20   C     C_R   0.793948 0.387156 0.850674 -0.252049
C21   C     C_R   0.126298 0.910947 0.254486 0.067876
C22   C     C_R   0.873467 0.418113 0.745553 0.068059
C23   C     C_R   0.177386 0.900598 0.314924 -0.180675
C24   C     C_R   0.822302 0.409854 0.685169 -0.180701
H1    H     H_    0.217537 0.889004 0.085440 0.102023
H2    H     H_    0.782862 0.377432 0.914544 0.102661
H3    H     H_    0.332977 0.849701 0.124445 0.118904
H4    H     H_    0.667601 0.334425 0.875364 0.119777
H5    H     H_    0.167653 0.903993 0.379304 0.107549
H6    H     H_    0.831860 0.418938 0.620834 0.107690
H7    H     H_    0.420213 0.829795 0.230910 0.103367
H8    H     H_    0.580279 0.317578 0.768956 0.104166
H9    H     H_    0.281780 0.878555 0.418217 0.092830
H10   H     H_    0.717823 0.389929 0.581953 0.093315
C25   C     C_R   0.383361 0.937053 0.839305 0.389742
C26   C     C_R   0.616557 0.442692 0.161025 0.388580
H11   H     H_    0.300580 0.906689 0.961849 0.142985
H12   H     H_    0.699336 0.418168 0.038261 0.143539
C27   C     C_R   0.392719 0.859484 0.694643 -0.123060
C28   C     C_R   0.607110 0.360139 0.305195 -0.123732
C29   C     C_R   0.079259 0.905756 0.731119 -0.187467
C30   C     C_R   0.920726 0.399226 0.268726 -0.187536
C31   C     C_R   0.114870 0.892661 0.661217 -0.150014
C32   C     C_R   0.885110 0.383570 0.338526 -0.149880
C33   C     C_R   0.182096 0.878431 0.667374 -0.154954
C34   C     C_R   0.817826 0.371983 0.332324 -0.155031
C35   C     C_R   0.215887 0.878079 0.744573 0.111736
C36   C     C_R   0.783977 0.376879 0.255186 0.111737
C37   C     C_R   0.178899 0.892729 0.816082 0.079034
C38   C     C_R   0.820979 0.394578 0.183798 0.079155
C39   C     C_R   0.285210 0.873052 0.752930 0.028729
C40   C     C_R   0.714627 0.373717 0.246857 0.028718
C41   C     C_R   0.315756 0.902009 0.831360 0.009986
C42   C     C_R   0.684121 0.406731 0.168690 0.008851
C43   C     C_R   0.278195 0.899884 0.900789 -0.205691
C44   C     C_R   0.721683 0.407941 0.099250 -0.205448
C45   C     C_R   0.211140 0.895149 0.893264 -0.201484
C46   C     C_R   0.788721 0.402108 0.106691 -0.201947
C47   C     C_R   0.325179 0.843197 0.686073 -0.261393
C48   C     C_R   0.674603 0.341893 0.313526 -0.261692
C49   C     C_R   0.422204 0.913439 0.770993 0.008175
C50   C     C_R   0.577706 0.417391 0.229216 0.009327
C51   C     C_R   0.110318 0.906228 0.808801 -0.079690
C52   C     C_R   0.889618 0.405411 0.191120 -0.079811
H13   H     H_    0.305064 0.808329 0.625981 0.113247
H14   H     H_    0.694640 0.304455 0.373370 0.113630
H15   H     H_    0.027046 0.915932 0.724564 0.109210
H16   H     H_    0.972989 0.406873 0.275301 0.109250
H17   H     H_    0.206363 0.873661 0.610482 0.103026
H18   H     H_    0.793608 0.364706 0.389199 0.102973
H19   H     H_    0.090086 0.894179 0.601457 0.122971
H20   H     H_    0.909938 0.380871 0.398250 0.122961
H21   H     H_    0.184484 0.900097 0.948524 0.103842
H22   H     H_    0.815352 0.410099 0.051464 0.103874
O11   O     O_R   0.950790 0.256670 0.090520 -0.533280
O12   O     O_R   0.049210 0.756670 0.909480 -0.533442
O13   O     O_R   0.927720 0.590370 0.921470 -0.536935
O14   O     O_R   0.072280 0.090370 0.078530 -0.536750
C53   C     C_R   0.910123 0.421389 0.895138 0.681047
C54   C     C_R   0.089869 0.921319 0.104878 0.681191
O15   O     O_R   0.943270 0.586180 0.090640 -0.538236
O16   O     O_R   0.056730 0.086180 0.909360 -0.538004
O17   O     O_R   0.064850 0.759970 0.079840 -0.534751
O18   O     O_R   0.935150 0.259970 0.920160 -0.534553
C55   C     C_R   0.930479 0.417314 0.119308 0.680905
C56   C     C_R   0.069497 0.917442 0.880665 0.680968
O19   O     O_3   0.039850 0.428050 0.996240 -0.367913
O20   O     O_3   0.960150 0.928050 0.003760 -0.367946
V3    V     V_3+5 0.992610 0.701540 0.000700 1.418816
V4    V     V_3+5 0.007390 0.201540 0.999300 1.419440
C57   C     C_3   0.055541 0.919520 0.276648 -0.344571
C58   C     C_3   0.042856 0.902110 0.368304 -0.334501
C59   C     C_3   0.970522 0.897801 0.382523 -0.760336
H23   H     H_    0.946972 0.027710 0.358261 0.241323
H24   H     H_    0.947653 0.773810 0.351767 0.239265
H25   H     H_    0.962849 0.888280 0.449178 0.211982
H26   H     H_    0.064623 0.769738 0.393175 0.195886
H27   H     H_    0.064536 0.024161 0.402031 0.193626
H28   H     H_    0.034651 0.054582 0.253457 0.169694
H29   H     H_    0.029359 0.802882 0.244167 0.174838
C60   C     C_3   0.944119 0.430690 0.723248 -0.344371
C61   C     C_3   0.956711 0.415389 0.631497 -0.334336
C62   C     C_3   0.029020 0.410741 0.617139 -0.760523
H30   H     H_    0.052837 0.539173 0.642414 0.242295
H31   H     H_    0.051669 0.285050 0.646864 0.238414
H32   H     H_    0.036621 0.404105 0.550406 0.211988
H33   H     H_    0.934788 0.283808 0.606088 0.196049
H34   H     H_    0.935120 0.538417 0.598317 0.193439
H35   H     H_    0.964337 0.566178 0.746820 0.169793
H36   H     H_    0.970974 0.314585 0.755293 0.174420
C63   C     C_3   0.494117 0.959686 0.778624 -0.357452
C64   C     C_3   0.537525 0.785126 0.776324 -0.317604
C65   C     C_3   0.608688 0.842831 0.779646 -0.743474
H37   H     H_    0.619365 0.928742 0.725140 0.242901
H38   H     H_    0.620705 0.924996 0.836060 0.220290
H39   H     H_    0.639933 0.716602 0.780024 0.233360
H40   H     H_    0.528619 0.693152 0.829483 0.197596
H41   H     H_    0.527243 0.702788 0.719702 0.203317
H42   H     H_    0.506213 0.058785 0.729153 0.169680
H43   H     H_    0.506644 0.034885 0.836440 0.202151
C66   C     C_3   0.505901 0.465399 0.221929 -0.356300
C67   C     C_3   0.462043 0.291663 0.223423 -0.319658
C68   C     C_3   0.391095 0.351069 0.222804 -0.742139
H44   H     H_    0.381476 0.431364 0.279206 0.243013
H45   H     H_    0.378585 0.439373 0.168284 0.221841
H46   H     H_    0.359444 0.225629 0.220644 0.232568
H47   H     H_    0.469708 0.203261 0.168823 0.196739
H48   H     H_    0.473067 0.205183 0.278736 0.202608
H49   H     H_    0.494105 0.563580 0.271821 0.171069
H50   H     H_    0.493466 0.542397 0.164489 0.200914
O21   O     O_3   0.412871 0.986136 0.914431 -0.584320
C69   C     C_3   0.393589 0.168728 0.939129 0.049379
H51   H     H_    0.390161 0.165813 0.006766 0.147990
H52   H     H_    0.345265 0.213622 0.913357 0.120636
C70   C     C_3   0.443381 0.317538 0.917181 -0.347651
H53   H     H_    0.492279 0.274714 0.940744 0.213614
H54   H     H_    0.444026 0.331786 0.849531 0.178954
C71   C     C_3   0.426923 0.507946 0.953986 -0.763805
H55   H     H_    0.378524 0.555804 0.930383 0.233320
H56   H     H_    0.463347 0.613539 0.937102 0.245859
H57   H     H_    0.427259 0.498323 0.021805 0.225260
O22   O     O_3   0.587118 0.495001 0.086259 -0.583742
C72   C     C_3   0.606766 0.678200 0.062799 0.050280
H58   H     H_    0.612275 0.676204 0.995495 0.148367
H59   H     H_    0.654208 0.724057 0.091031 0.120033
C73   C     C_3   0.555816 0.825385 0.082448 -0.345629
H60   H     H_    0.507745 0.781706 0.056280 0.216268
H61   H     H_    0.552980 0.838524 0.149914 0.177844
C74   C     C_3   0.573030 0.016764 0.047132 -0.764993
H62   H     H_    0.620773 0.064611 0.072954 0.233593
H63   H     H_    0.535989 0.121551 0.062817 0.245308
H64   H     H_    0.574573 0.008618 0.979422 0.223137

loop_
_geom_bond_atom_site_label_1
_geom_bond_atom_site_label_2
_ccdc_geom_bond_type
C68   H46   S    
C42   C44   A    
C39   C41   A    
O18   V4    S    
C63   H43   S    
C72   H59   S    
C24   H6    S    
C70   H53   S    
O1    C3    A    
C40   C48   A    
O2    C4    A    
C2    O7    A    
C74   H62   S    
C45   H21   S    
C68   H44   S    
C37   C51   A    
C22   C60   S    
O5    C3    A    
C59   H24   S    
C66   H50   S    
C5    C21   A    
C6    C53   S    
C10   C12   A    
C57   H28   S    
C70   H54   S    
C28   C50   A    
C34   H18   S    
C67   H48   S    
C58   H26   S    
C33   C35   A    
C15   C17   A    
O16   C56   A    
C34   C36   A    
C62   H30   S    
C50   C66   S    
C25   O21   S    
C11   H7    S    
C38   C46   A    
C36   C38   A    
O14   V4    S    
C48   H14   S    
O10   V1    S    
C73   C74   S    
C53   O18   A    
C60   H36   S    
C8    C12   A    
C62   H31   S    
C71   H57   S    
C65   H39   S    
C1    C28   S    
C32   H20   S    
C20   H2    S    
C2    C27   S    
O13   C53   A    
H11   C43   S    
C61   H33   S    
C63   H42   S    
O5    V1    S    
C65   H37   S    
O6    V2    S    
C72   C73   S    
C73   H61   S    
C38   C52   A    
C29   C51   A    
C5    C54   S    
C27   C47   A    
C69   C70   S    
C7    C13   A    
C58   C59   S    
C74   H63   S    
C61   C62   S    
C72   H58   S    
C30   H16   S    
C29   C31   A    
C59   H25   S    
C30   C32   A    
C3    C8    S    
C35   C37   A    
C18   C20   A    
C26   C50   A    
C63   C64   S    
C70   C71   S    
C25   C49   A    
O4    C2    A    
O15   V3    S    
C67   H47   S    
C15   C23   A    
C52   C55   S    
C9    C17   A    
C51   C56   S    
C19   H1    S    
C57   H29   S    
C43   C45   A    
C40   C42   A    
O4    V2    S    
C7    C11   A    
C28   C48   A    
O11   V4    S    
O15   C55   A    
O14   C54   A    
C9    H3    S    
O6    C4    A    
C62   H32   S    
C10   H4    S    
O20   V4    S    
C64   H41   S    
O1    V2    S    
O2    V1    S    
C6    C22   A    
O16   V4    S    
O22   C72   S    
C30   C52   A    
C69   H52   S    
O19   V3    S    
C39   C47   A    
C31   C33   A    
C66   C67   S    
C5    C19   A    
C71   H56   S    
C6    C20   A    
C31   H19   S    
C46   H22   S    
C13   H9    S    
C47   H13   S    
C74   H64   S    
O3    V1    S    
C60   C61   S    
C37   C45   A    
C68   H45   S    
C26   O22   S    
C10   C18   A    
O13   V3    S    
C21   C57   S    
C14   C16   A    
O12   V3    S    
C27   C49   A    
C69   H51   S    
O3    C1    A    
C67   C68   S    
C13   C15   A    
C59   H23   S    
C35   C39   A    
C41   C43   A    
C36   C40   A    
C29   H15   S    
C9    C11   A    
O7    V1    S    
C1    O8    A    
C17   C19   A    
O8    V2    S    
C58   H27   S    
C73   H60   S    
C8    C14   A    
C12   H8    S    
C4    C7    S    
C16   C18   A    
O20   V3    S    
C21   C23   A    
C32   C34   A    
C64   H40   S    
C22   C24   A    
C54   O17   A    
C23   H5    S    
C33   H17   S    
O12   C56   A    
C14   H10   S    
O17   V3    S    
O19   V4    S    
C60   H35   S    
C16   C24   A    
C44   C46   A    
O9    V2    S    
C57   C58   S    
C65   H38   S    
C71   H55   S    
C66   H49   S    
C26   C42   A    
H12   C44   S    
C25   C41   A    
C61   H34   S    
O21   C69   S    
C64   C65   S    
O11   C55   A    
C49   C63   S    
