data_str_m9_o16_o22_f0_sra.sym.2
_audit_creation_date              2012-12-11T15:11:44-0500
_audit_creation_method            fapswitch 2.2
_symmetry_space_group_name_H-M    P1
_symmetry_Int_Tables_number       1
_space_group_crystal_system       triclinic
_cell_length_a                    20.164187
_cell_length_b                    7.098165
_cell_length_c                    13.472276
_cell_angle_alpha                 90.000331
_cell_angle_beta                  103.606793
_cell_angle_gamma                 89.999805
_cell_volume                      1874.14918218

loop_
_atom_site_label
_atom_site_type_symbol
_atom_type_description
_atom_site_fract_x
_atom_site_fract_y
_atom_site_fract_z
_atom_type_partial_charge
O1    O     O_R   0.449830 0.506740 0.599960 -0.528442
O2    O     O_R   0.550170 0.006740 0.400040 -0.528423
O3    O     O_R   0.588980 0.179860 0.596720 -0.543802
O4    O     O_R   0.411020 0.679860 0.403280 -0.543825
C1    C     C_R   0.616493 0.344173 0.618932 0.712742
C2    C     C_R   0.383505 0.844172 0.381073 0.712755
O5    O     O_R   0.452740 0.177340 0.612040 -0.535600
O6    O     O_R   0.547260 0.677340 0.387960 -0.535620
O7    O     O_R   0.412960 0.002070 0.415460 -0.543577
O8    O     O_R   0.587040 0.502070 0.584540 -0.543592
C3    C     C_R   0.436567 0.345703 0.638675 0.694081
C4    C     C_R   0.563433 0.845701 0.361326 0.694092
O9    O     O_3   0.487110 0.337570 0.435490 -0.375899
O10   O     O_3   0.512890 0.837570 0.564510 -0.375897
V1    V     V_3+5 0.502390 0.064650 0.511970 1.449494
V2    V     V_3+5 0.497610 0.564650 0.488030 1.449439
C5    C     C_R   0.608688 0.856075 0.106786 -0.157701
C6    C     C_R   0.391312 0.356122 0.893216 -0.157700
H1    H     H_    0.515151 0.851620 0.156600 0.099314
H2    H     H_    0.484849 0.351699 0.843401 0.099312
H3    H     H_    0.691541 0.859472 0.980451 0.116621
H4    H     H_    0.308459 0.359480 0.019550 0.116612
H5    H     H_    0.582305 0.856566 0.026780 0.112803
H6    H     H_    0.417695 0.356639 0.973220 0.112805
C7    C     C_R   0.603141 0.853194 0.283736 -0.025732
C8    C     C_R   0.396859 0.353200 0.716265 -0.025729
C9    C     C_R   0.931974 0.858659 0.318965 -0.173095
C10   C     C_R   0.068027 0.358702 0.681033 -0.173089
C11   C     C_R   0.896657 0.854595 0.395870 -0.102947
C12   C     C_R   0.103343 0.354668 0.604127 -0.102953
C13   C     C_R   0.825561 0.853268 0.371814 -0.096673
C14   C     C_R   0.174439 0.353324 0.628185 -0.096657
C15   C     C_R   0.787603 0.855729 0.268852 0.079980
C16   C     C_R   0.212397 0.355738 0.731148 0.079983
C17   C     C_R   0.824255 0.858335 0.190299 0.070712
C18   C     C_R   0.175745 0.358327 0.809701 0.070709
C19   C     C_R   0.714669 0.855845 0.241208 0.076559
C20   C     C_R   0.285331 0.355845 0.758794 0.076560
C21   C     C_R   0.680288 0.857021 0.136042 0.142893
C22   C     C_R   0.319712 0.357037 0.863959 0.142893
C23   C     C_R   0.717423 0.858738 0.060709 -0.211710
C24   C     C_R   0.282577 0.358741 0.939293 -0.211701
C25   C     C_R   0.788194 0.859671 0.087218 -0.201520
C26   C     C_R   0.211805 0.359653 0.912783 -0.201513
C27   C     C_R   0.674383 0.854596 0.314146 -0.142774
C28   C     C_R   0.325617 0.354573 0.685856 -0.142743
C29   C     C_R   0.570359 0.853599 0.180294 -0.182033
C30   C     C_R   0.429641 0.353649 0.819707 -0.182035
C31   C     C_R   0.896543 0.860309 0.216547 -0.075398
C32   C     C_R   0.103456 0.360310 0.783452 -0.075400
H7    H     H_    0.696447 0.853527 0.395170 0.116850
H8    H     H_    0.303554 0.353460 0.604833 0.116817
H9    H     H_    0.987272 0.860692 0.339341 0.107764
H10   H     H_    0.012728 0.360754 0.660656 0.107764
H11   H     H_    0.802117 0.850257 0.435803 0.129783
H12   H     H_    0.197882 0.350354 0.564194 0.129773
H13   H     H_    0.924623 0.852971 0.475031 0.124665
H14   H     H_    0.075378 0.353089 0.524966 0.124663
H15   H     H_    0.814480 0.861213 0.025819 0.108594
H16   H     H_    0.185521 0.361185 0.974184 0.108593
C33   C     C_3   0.213967 0.652297 0.205975 -0.315697
C34   C     C_3   0.786005 0.152312 0.794110 -0.315698
H17   H     H_    0.178913 0.567029 0.240647 0.150600
H18   H     H_    0.821045 0.066935 0.759466 0.150622
H19   H     H_    0.215240 0.585937 0.131588 0.137313
H20   H     H_    0.784726 0.086066 0.868523 0.137302
C35   C     C_3   0.286249 0.647380 0.276782 -0.297793
C36   C     C_3   0.713719 0.147396 0.723310 -0.297795
H21   H     H_    0.321710 0.579823 0.235383 0.126335
H22   H     H_    0.678250 0.079977 0.764741 0.126315
H23   H     H_    0.285715 0.557114 0.344090 0.175042
H24   H     H_    0.714239 0.057007 0.656042 0.175051
H25   H     H_    0.150953 0.863368 0.329307 0.165781
H26   H     H_    0.849050 0.363105 0.670703 0.165784
C37   C     C_3   0.187014 0.943959 0.294457 -0.338914
C38   C     C_3   0.812996 0.443796 0.705519 -0.338923
C39   C     C_3   0.238763 0.971250 0.142187 -0.317430
C40   C     C_3   0.761248 0.471402 0.857775 -0.317446
C41   C     C_3   0.187284 0.857864 0.188492 0.076038
C42   C     C_3   0.812713 0.357865 0.811515 0.076054
H27   H     H_    0.221922 0.120531 0.130138 0.141796
H28   H     H_    0.778108 0.620677 0.869773 0.141805
H29   H     H_    0.240185 0.912420 0.066145 0.148090
H30   H     H_    0.759815 0.412689 0.933837 0.148093
C43   C     C_3   0.312016 0.849658 0.311620 0.069562
C44   C     C_3   0.687981 0.349657 0.688387 0.069557
C45   C     C_3   0.260028 0.943207 0.365983 0.136924
C46   C     C_3   0.739984 0.443028 0.633988 0.136944
C47   C     C_3   0.311545 0.965303 0.213559 -0.403001
C48   C     C_3   0.688466 0.465466 0.786401 -0.402991
H31   H     H_    0.347644 0.901722 0.172005 0.141096
H32   H     H_    0.652355 0.402020 0.827977 0.141089
H33   H     H_    0.329271 0.111744 0.234217 0.140908
H34   H     H_    0.670764 0.611905 0.765682 0.140931
H35   H     H_    0.167884 0.091499 0.284961 0.124681
H36   H     H_    0.832140 0.591326 0.714959 0.124669
H37   H     H_    0.275844 0.091757 0.384738 0.102111
H38   H     H_    0.724185 0.591567 0.615162 0.102118
O11   O     O_R   0.912980 0.203550 0.915410 -0.540695
O12   O     O_R   0.087020 0.703550 0.084590 -0.540694
O13   O     O_R   0.047270 0.535570 0.887960 -0.537717
O14   O     O_R   0.952730 0.035570 0.112040 -0.537720
C49   C     C_R   0.063835 0.368209 0.861607 0.690199
C50   C     C_R   0.936165 0.868210 0.138392 0.690194
O15   O     O_R   0.911030 0.532970 0.903270 -0.546092
O16   O     O_R   0.088970 0.032970 0.096730 -0.546092
O17   O     O_R   0.949820 0.708150 0.099970 -0.535996
O18   O     O_R   0.050180 0.208150 0.900030 -0.535994
C51   C     C_R   0.883761 0.364783 0.881946 0.662761
C52   C     C_R   0.116238 0.864782 0.118058 0.662760
O19   O     O_3   0.012900 0.375230 0.064480 -0.372864
O20   O     O_3   0.987100 0.875230 0.935520 -0.372862
V3    V     V_3+5 0.997610 0.648190 0.988040 1.404576
V4    V     V_3+5 0.002390 0.148190 0.011960 1.404577
Br1   Br    Br    0.259310 0.823033 0.496388 -0.633540
Br2   Br    Br    0.740693 0.322609 0.503641 -0.633571

loop_
_geom_bond_atom_site_label_1
_geom_bond_atom_site_label_2
_ccdc_geom_bond_type
C12   C14   A    
O12   C52   A    
C40   H28   S    
C9    C11   A    
C36   C44   S    
O1    C3    A    
O2    C4    A    
O11   V4    S    
O20   V4    S    
C37   H35   S    
C21   C23   A    
C40   C48   S    
O5    C3    A    
C39   C47   S    
C5    H5    S    
C2    C43   S    
H26   C38   S    
O16   V4    S    
C6    H6    S    
C34   C42   S    
C26   H16   S    
C40   C42   S    
C39   H29   S    
O11   C51   A    
C28   H8    S    
O13   V3    S    
C5    C21   A    
O18   V4    S    
C33   H17   S    
C6    C22   A    
O17   V3    S    
C34   H18   S    
C10   C32   A    
C42   C51   S    
C17   C31   A    
C13   C15   A    
C49   O18   A    
C47   H31   S    
C17   C25   A    
C7    C29   A    
C45   Br1   S    
C8    C30   A    
C43   C45   S    
C32   C49   S    
O6    V2    S    
H25   C37   S    
C24   C26   A    
C2    O7    A    
O20   V3    S    
C48   H34   S    
C39   C41   S    
C35   C43   S    
C34   H20   S    
C44   C46   S    
C38   C42   S    
O4    C2    A    
C44   C48   S    
C43   C47   S    
O5    V1    S    
C3    C8    S    
C15   C19   A    
C36   H24   S    
C35   H21   S    
C14   C16   A    
C46   Br2   S    
O14   V4    S    
C40   H30   S    
C33   C35   S    
C48   H32   S    
C39   H27   S    
O6    C4    A    
H1    C29   S    
O19   V3    S    
O1    V2    S    
O14   C50   A    
O2    V1    S    
H2    C30   S    
H3    C23   S    
C1    C44   S    
C37   C45   S    
O12   V3    S    
C11   H13   S    
C18   C26   A    
O4    V2    S    
C19   C27   A    
C7    C27   A    
C18   C32   A    
O16   C52   A    
O15   V3    S    
C38   C46   S    
C10   H10   S    
C41   C52   S    
C16   C20   A    
C23   C25   A    
C5    C29   A    
O3    C1    A    
C6    C30   A    
C9    H9    S    
C25   H15   S    
O13   C49   A    
C34   C36   S    
C4    C7    S    
C31   C50   S    
C10   C12   A    
O7    V1    S    
C1    O8    A    
C11   C13   A    
O8    V2    S    
C38   H36   S    
C20   C22   A    
H4    C24   S    
O15   C51   A    
C33   C41   S    
C12   H14   S    
C22   C24   A    
C15   C17   A    
C16   C18   A    
O19   V4    S    
C35   H23   S    
C47   H33   S    
C20   C28   A    
C8    C28   A    
C33   H19   S    
C19   C21   A    
O9    V2    S    
C36   H22   S    
C27   H7    S    
O10   V1    S    
O3    V1    S    
C13   H11   S    
C37   C41   S    
C14   H12   S    
C50   O17   A    
C46   H38   S    
C9    C31   A    
C45   H37   S    
