data_str_m9_o18_o22_f0_sra.sym.185
_audit_creation_date              2013-03-05T15:52:17-0500
_audit_creation_method            fapswitch 2.2
_symmetry_space_group_name_H-M    P1
_symmetry_Int_Tables_number       1
_space_group_crystal_system       triclinic
_cell_length_a                    21.491581
_cell_length_b                    7.276238
_cell_length_c                    14.732363
_cell_angle_alpha                 89.925741
_cell_angle_beta                  74.461607
_cell_angle_gamma                 90.03097
_cell_volume                      2219.61079918

loop_
_atom_site_label
_atom_site_type_symbol
_atom_site_description
_atom_site_fract_x
_atom_site_fract_y
_atom_site_fract_z
_atom_type_partial_charge
O1    O     O_R   0.464160 0.506670 0.130070 -0.590314
O2    O     O_R   0.535840 0.006670 0.869930 -0.590653
O3    O     O_R   0.589710 0.179080 0.006710 -0.582375
O4    O     O_R   0.410290 0.679080 0.993290 -0.582433
C1    C     C_R   0.615479 0.344284 0.004864 0.942149
C2    C     C_R   0.384527 0.844219 0.995149 0.941712
O5    O     O_R   0.467940 0.177220 0.138010 -0.576529
O6    O     O_R   0.532060 0.677220 0.861990 -0.575963
O7    O     O_R   0.413200 0.002810 0.002170 -0.598512
O8    O     O_R   0.586800 0.502810 0.997830 -0.598663
C3    C     C_R   0.456241 0.345153 0.174355 0.915267
C4    C     C_R   0.543754 0.845480 0.825676 0.915138
O9    O     O_3   0.482180 0.337850 0.955280 -0.269100
O10   O     O_3   0.517820 0.837850 0.044720 -0.269236
V1    V     V_3+5 0.503310 0.064600 0.008300 1.221192
V2    V     V_3+5 0.496690 0.564600 0.991700 1.221375
C5    C     C_R   0.571790 0.852632 0.723888 -0.089977
C6    C     C_R   0.428311 0.350607 0.276222 -0.091629
C7    C     C_R   0.927905 0.866291 0.276384 -0.120006
C8    C     C_R   0.072069 0.368025 0.723551 -0.119985
C9    C     C_R   0.559590 0.845655 0.565943 -0.169295
C10   C     C_R   0.440038 0.321450 0.433886 -0.169146
C11   C     C_R   0.532173 0.845720 0.662919 -0.140459
C12   C     C_R   0.467575 0.328274 0.337004 -0.141607
C13   C     C_R   0.638911 0.859063 0.688154 -0.234352
C14   C     C_R   0.361363 0.365168 0.312097 -0.234459
C15   C     C_R   0.668247 0.857639 0.589850 0.119464
C16   C     C_R   0.331825 0.355354 0.410255 0.118879
C17   C     C_R   0.626999 0.850752 0.529012 0.150574
C18   C     C_R   0.372762 0.333681 0.470880 0.152440
C19   C     C_R   0.736776 0.861823 0.550160 0.036208
C20   C     C_R   0.263358 0.364474 0.449956 0.034954
C21   C     C_R   0.762801 0.857013 0.449964 0.043022
C22   C     C_R   0.237096 0.351180 0.549937 0.044670
C23   C     C_R   0.719417 0.851214 0.392808 -0.156853
C24   C     C_R   0.280214 0.331248 0.606903 -0.155426
C25   C     C_R   0.653086 0.848356 0.431756 -0.178493
C26   C     C_R   0.346471 0.322846 0.567953 -0.177852
C27   C     C_R   0.780116 0.871559 0.607263 -0.141399
C28   C     C_R   0.220307 0.386621 0.393064 -0.142893
C29   C     C_R   0.846371 0.878392 0.568334 -0.164654
C30   C     C_R   0.154164 0.398266 0.432045 -0.162560
C31   C     C_R   0.872468 0.874254 0.471157 0.146972
C32   C     C_R   0.127874 0.387303 0.529042 0.144517
C33   C     C_R   0.831356 0.860789 0.410338 0.112788
C34   C     C_R   0.168610 0.360749 0.589589 0.113688
C35   C     C_R   0.939745 0.885353 0.434304 -0.170367
C36   C     C_R   0.060816 0.405252 0.566024 -0.172033
C37   C     C_R   0.967192 0.884043 0.337416 -0.125618
C38   C     C_R   0.033261 0.398755 0.662813 -0.119310
C39   C     C_R   0.860857 0.853407 0.312144 -0.239986
C40   C     C_R   0.138860 0.347544 0.687601 -0.240174
H1    H     H_    0.621808 0.843958 0.384970 0.168544
H2    H     H_    0.377543 0.307070 0.614580 0.163921
H3    H     H_    0.019023 0.897475 0.310128 0.163160
H4    H     H_    0.981721 0.418809 0.690295 0.159430
H5    H     H_    0.877583 0.887781 0.615072 0.171806
H6    H     H_    0.123186 0.417255 0.385517 0.176965
H7    H     H_    0.480136 0.839627 0.690465 0.155461
H8    H     H_    0.519424 0.314919 0.309345 0.159426
H9    H     H_    0.666406 0.862348 0.739417 0.105454
H10   H     H_    0.334074 0.379862 0.260964 0.105903
H11   H     H_    0.764655 0.876081 0.682962 0.160657
H12   H     H_    0.235939 0.397171 0.317524 0.161917
H13   H     H_    0.971148 0.897574 0.480598 0.134326
H14   H     H_    0.029748 0.427744 0.519981 0.134005
C41   C     C_3   0.221616 0.679252 0.949169 0.142200
C42   C     C_3   0.778184 0.179799 0.051614 0.139579
H15   H     H_    0.220603 0.694339 0.874244 0.116345
H16   H     H_    0.779130 0.195566 0.126518 0.116047
C43   C     C_3   0.293421 0.668517 0.952071 0.130082
C44   C     C_3   0.706421 0.168935 0.048532 0.132803
H17   H     H_    0.298205 0.553913 0.999998 0.118728
H18   H     H_    0.701669 0.054012 0.000890 0.118884
C45   C     C_3   0.197729 0.875630 0.103446 0.299780
C46   C     C_3   0.802380 0.374397 0.896516 0.301467
C47   C     C_3   0.225447 0.019334 0.943150 -0.457107
C48   C     C_3   0.774714 0.519957 0.056218 -0.453800
C49   C     C_3   0.187588 0.855997 0.001489 -0.247749
C50   C     C_3   0.812391 0.356008 0.998614 -0.250351
C51   C     C_3   0.313767 0.848939 0.994979 -0.145621
C52   C     C_3   0.686242 0.349103 0.005019 -0.145430
C53   C     C_3   0.271361 0.862163 0.098226 -0.520490
C54   C     C_3   0.728664 0.361594 0.901725 -0.523035
C55   C     C_3   0.297886 0.018539 0.941370 -0.286038
C56   C     C_3   0.702276 0.519079 0.058058 -0.286293
H19   H     H_    0.328556 0.022561 0.867699 0.210472
H20   H     H_    0.671638 0.523474 0.131731 0.211694
H21   H     H_    0.285674 0.984827 0.133065 0.172876
H22   H     H_    0.714609 0.484352 0.866584 0.171098
O11   O     O_R   0.913210 0.208550 0.002110 -0.519791
O12   O     O_R   0.086790 0.708550 0.997890 -0.518952
O13   O     O_R   0.032060 0.539960 0.861980 -0.602239
O14   O     O_R   0.967940 0.039960 0.138020 -0.601122
C57   C     C_R   0.044017 0.373022 0.825457 1.015192
C58   C     C_R   0.956054 0.872701 0.174533 1.010999
O15   O     O_R   0.910290 0.538020 0.993280 -0.582679
O16   O     O_R   0.089710 0.038020 0.006720 -0.582845
O17   O     O_R   0.964160 0.712340 0.130090 -0.572555
O18   O     O_R   0.035840 0.212340 0.869910 -0.572472
C59   C     C_R   0.883789 0.369086 0.998840 0.943220
C60   C     C_R   0.116188 0.869139 0.001257 0.940495
O19   O     O_3   0.017820 0.379210 0.044690 -0.252157
O20   O     O_3   0.982180 0.879210 0.955310 -0.253243
V3    V     V_3+5 0.996690 0.652500 0.991710 1.301198
V4    V     V_3+5 0.003310 0.152500 0.008290 1.301570
N1    N     N_R   0.187882 0.507265 0.983235 0.237885
O21   O     O_R   0.160373 0.416518 0.928407 -0.446814
O22   O     O_R   0.186458 0.440717 0.065795 -0.405892
N2    N     N_R   0.811790 0.007600 0.018215 0.236634
O23   O     O_R   0.838808 0.916645 0.073633 -0.449380
O24   O     O_R   0.813995 0.941746 0.935350 -0.405028
N3    N     N_R   0.335946 0.625427 0.858322 0.225142
O25   O     O_R   0.368663 0.472810 0.845553 -0.406759
O26   O     O_R   0.337671 0.729653 0.785843 -0.452965
N4    N     N_R   0.663764 0.126279 0.142327 0.223665
O27   O     O_R   0.630926 0.973708 0.155447 -0.408803
O28   O     O_R   0.662023 0.230895 0.214535 -0.455823
N5    N     N_R   0.159615 0.747578 0.174627 0.254799
O29   O     O_R   0.176415 0.721373 0.252248 -0.425648
O30   O     O_R   0.100643 0.706082 0.175433 -0.418311
N6    N     N_R   0.840730 0.245237 0.826438 0.258799
O31   O     O_R   0.821394 0.203283 0.752469 -0.417424
O32   O     O_R   0.901222 0.217010 0.821743 -0.425836
H23   H     H_    0.281519 0.740148 0.137548 0.199770
H24   H     H_    0.717985 0.239715 0.862966 0.202823
H25   H     H_    0.204617 0.148307 0.976152 0.272012
H26   H     H_    0.795714 0.648531 0.022611 0.272225
H27   H     H_    0.220422 0.018808 0.869881 0.187145
H28   H     H_    0.779758 0.520266 0.129479 0.188569
H29   H     H_    0.833460 0.840125 0.261118 0.140947
H30   H     H_    0.165948 0.325510 0.738447 0.138438
H31   H     H_    0.308928 0.146796 0.975217 0.197313
H32   H     H_    0.691315 0.647112 0.023833 0.196631
H33   H     H_    0.181538 0.016286 0.128970 0.092286
H34   H     H_    0.818871 0.514630 0.870343 0.089110
H35   H     H_    0.528035 0.840254 0.519621 0.133910
H36   H     H_    0.471339 0.304150 0.480017 0.133947
H37   H     H_    0.734903 0.850259 0.317040 0.157794
H38   H     H_    0.264566 0.322470 0.682535 0.154406

loop_
_geom_bond_atom_site_label_1
_geom_bond_atom_site_label_2
_geom_bond_distance
_ccdc_geom_bond_type
C42   C50   1.575703 S    
C3    C6    1.460016 S    
C15   C17   1.420382 A    
C21   C33   1.432276 A    
O1    C3    1.331956 A    
C9    H35   1.084043 S    
C48   H26   1.096665 S    
C46   C54   1.568185 S    
C2    O7    1.325034 A    
C46   H34   1.113923 S    
C27   C29   1.386110 A    
O5    C3    1.331505 A    
C18   C26   1.391914 A    
C5    C11   1.394304 A    
C54   H22   1.113536 S    
C6    C12   1.394612 A    
C10   C12   1.391798 A    
C23   C25   1.386931 A    
C53   H23   1.112697 S    
C48   C50   1.560267 S    
C33   C39   1.416484 A    
C58   O17   1.327254 A    
C34   C40   1.417018 A    
N4    O27   1.301290 A    
C43   N3    1.471831 S    
N2    O23   1.301817 A    
C8    C38   1.394943 A    
O13   V3    2.031631 S    
C56   H32   1.113669 S    
C19   C27   1.414295 A    
C16   C18   1.420365 A    
C6    C14   1.397732 A    
C4    C5    1.459503 S    
N1    O21   1.301843 A    
C19   C21   1.432075 A    
C49   C60   1.538445 S    
C22   C34   1.432487 A    
C41   C43   1.557204 S    
C47   H25   1.096580 S    
O12   C60   1.335348 A    
C25   H1    1.084564 S    
C48   C56   1.549773 S    
C36   C38   1.390539 A    
C14   H10   1.076773 S    
O2    C4    1.331303 A    
O13   C57   1.326255 A    
C2    C51   1.521820 S    
C29   C31   1.391053 A    
O11   V4    2.004855 S    
C30   H6    1.084700 S    
C30   C32   1.390930 A    
O11   C59   1.335494 A    
O17   V3    2.018297 S    
C13   H9    1.076681 S    
O20   V3    1.787133 S    
C51   C53   1.552830 S    
C32   C34   1.420426 A    
C51   C55   1.550963 S    
N2    O24   1.301052 A    
C55   H19   1.109006 S    
C54   H24   1.111976 S    
C53   H21   1.113621 S    
C56   H20   1.108985 S    
C15   C19   1.431936 A    
C40   H30   1.076651 S    
C16   C20   1.432056 A    
C41   C49   1.576202 S    
C44   H18   1.114521 S    
C43   H17   1.114427 S    
C39   H29   1.076294 S    
C57   O18   1.327723 A    
C42   N2    1.464872 S    
C46   N6    1.475076 S    
O16   C60   1.347875 A    
C9    C17   1.404916 A    
C38   H4    1.082682 S    
C42   C44   1.557045 S    
C41   H15   1.115126 S    
C20   C22   1.432375 A    
O4    V2    2.029977 S    
C11   H7    1.083565 S    
C24   H38   1.075980 S    
C7    C37   1.394631 A    
C26   H2    1.084732 S    
O6    C4    1.332002 A    
C47   C49   1.560398 S    
C45   N5    1.474861 S    
O1    V2    2.013922 S    
C47   H27   1.113239 S    
O14   C58   1.326683 A    
O2    V1    2.015189 S    
C31   C33   1.420351 A    
N5    O30   1.299670 A    
C41   N1    1.464923 S    
O4    C2    1.320543 A    
C8    C57   1.460807 S    
C52   C54   1.552888 S    
C9    C11   1.391877 A    
C23   H37   1.076012 S    
C13   C15   1.416287 A    
N6    O32   1.299733 A    
O3    V1    2.029125 S    
N3    O25   1.301330 A    
C44   N4    1.471767 S    
O14   V4    2.029301 S    
C10   C18   1.404833 A    
O18   V4    2.016994 S    
C46   C50   1.580997 S    
C28   C30   1.385842 A    
O3    C1    1.320429 A    
C28   H12   1.075511 S    
N5    O29   1.301973 A    
C43   C51   1.569660 S    
C35   C37   1.390830 A    
C27   H11   1.075540 S    
C10   H36   1.084001 S    
C14   C16   1.416735 A    
O16   V4    2.030047 S    
C50   C59   1.538260 S    
C5    C13   1.397583 A    
C24   C26   1.386767 A    
O7    V1    2.013359 S    
O15   V3    2.029199 S    
C1    O8    1.325067 A    
C8    C40   1.398690 A    
C37   H3    1.082532 S    
C52   C56   1.550900 S    
C1    C52   1.521809 S    
C45   C53   1.566761 S    
N1    O22   1.301262 A    
C45   H33   1.114087 S    
C31   C35   1.403948 A    
C47   C55   1.550022 S    
O5    V1    2.031619 S    
C21   C23   1.414512 A    
N4    O28   1.301269 A    
O19   V4    1.788105 S    
C22   C24   1.414414 A    
C20   C28   1.414160 A    
C48   H28   1.113259 S    
C44   C52   1.570031 S    
C29   H5    1.084562 S    
C7    C39   1.398480 A    
O12   V3    2.004477 S    
O6    V2    2.029289 S    
O9    V2    1.788477 S    
C17   C25   1.391868 A    
C42   H16   1.115180 S    
O10   V1    1.787502 S    
O8    V2    2.013770 S    
C12   H8    1.083583 S    
C36   H14   1.084069 S    
N6    O31   1.302607 A    
C45   C49   1.581142 S    
C35   H13   1.084095 S    
O15   C59   1.347595 A    
C7    C58   1.460522 S    
C32   C36   1.403797 A    
C55   H31   1.113658 S    
N3    O26   1.301280 A    
