data_str_m2_o10_o28_f0_pcu.sym.225
_audit_creation_date              2012-12-10T16:50:15-0500
_audit_creation_method            fapswitch 2.2
_symmetry_space_group_name_H-M    P1
_symmetry_Int_Tables_number       1
_space_group_crystal_system       triclinic
_cell_length_a                    23.498462
_cell_length_b                    8.676062
_cell_length_c                    7.434123
_cell_angle_alpha                 103.006179
_cell_angle_beta                  94.176844
_cell_angle_gamma                 92.348251
_cell_volume                      1470.25234033

loop_
_atom_site_label
_atom_site_type_symbol
_atom_type_description
_atom_site_fract_x
_atom_site_fract_y
_atom_site_fract_z
_atom_type_partial_charge
C1    C     C_R   0.498279 0.199631 0.453175 0.892672
C2    C     C_R   0.501722 0.800369 0.546825 0.892675
C3    C     C_R   0.243976 0.511868 0.678383 -0.087969
C4    C     C_R   0.756033 0.488727 0.321732 -0.087978
C5    C     C_R   0.303297 0.513520 0.675657 -0.211743
C6    C     C_R   0.696712 0.487051 0.324453 -0.211668
C7    C     C_R   0.328449 0.498390 0.507048 -0.038378
C8    C     C_R   0.671549 0.501608 0.492949 -0.038395
C9    C     C_R   0.293265 0.481458 0.341625 -0.202451
C10   C     C_R   0.706723 0.517985 0.658257 -0.202416
C11   C     C_R   0.234103 0.479630 0.344766 -0.087627
C12   C     C_R   0.765885 0.519825 0.655122 -0.087648
C13   C     C_R   0.209300 0.494770 0.512868 0.344794
C14   C     C_R   0.790697 0.505261 0.487137 0.344894
C15   C     C_2   0.497453 0.031716 0.426774 -0.361610
C16   C     C_2   0.502547 0.968283 0.573226 -0.361607
C17   C     C_R   0.390957 0.499521 0.502421 0.800398
C18   C     C_R   0.609043 0.500477 0.497579 0.800408
C19   C     C_R   0.883673 0.644258 0.556859 0.576790
C20   C     C_R   0.116320 0.355773 0.443177 0.576743
C21   C     C_R   0.876123 0.366981 0.417973 0.579247
C22   C     C_R   0.123870 0.633054 0.582032 0.579233
C23   C     C_R   0.935629 0.362491 0.422217 -0.051676
C24   C     C_R   0.064364 0.637543 0.577799 -0.051653
C25   C     C_R   0.969889 0.502486 0.496973 -0.055364
C26   C     C_R   0.030104 0.497549 0.503047 -0.055367
C27   C     C_R   0.944024 0.646875 0.565589 -0.081084
C28   C     C_R   0.055969 0.353159 0.434435 -0.081063
C29   C     C_R   0.961184 0.220334 0.354625 -0.117523
C30   C     C_R   0.038809 0.779701 0.645390 -0.117518
C31   C     C_R   0.020388 0.213645 0.359733 0.307031
C32   C     C_R   0.979606 0.786390 0.640286 0.307024
Cu1   Cu    Cu3+1 0.506340 0.517380 0.684380 0.957533
Cu2   Cu    Cu3+1 0.493660 0.482620 0.315620 0.957533
H1    H     H_    0.935009 0.112257 0.297151 0.226651
H2    H     H_    0.064984 0.887778 0.702859 0.226652
H3    H     H_    0.224910 0.523561 0.808770 0.141790
H4    H     H_    0.775110 0.477483 0.191444 0.141650
H5    H     H_    0.329348 0.526551 0.805134 0.157739
H6    H     H_    0.670670 0.474465 0.195074 0.157677
H7    H     H_    0.311351 0.469653 0.209599 0.158547
H8    H     H_    0.688627 0.529333 0.790181 0.158538
H9    H     H_    0.207416 0.467019 0.216602 0.145032
H10   H     H_    0.792564 0.531987 0.783192 0.144924
H11   H     H_    0.492655 0.959976 0.285691 0.180185
H12   H     H_    0.507345 0.040024 0.714309 0.180189
H13   H     H_    0.454918 0.379270 0.948671 0.225724
H14   H     H_    0.545082 0.620730 0.051329 0.225716
N1    N     N_R   0.851618 0.505878 0.485271 -0.481872
N2    N     N_R   0.148377 0.494156 0.514744 -0.481830
N3    N     N_2   0.484110 0.456420 0.038520 -0.217816
N4    N     N_2   0.515890 0.543580 0.961480 -0.217817
O1    O     O_R   0.504120 0.286130 0.619770 -0.582852
O2    O     O_R   0.495880 0.713870 0.380230 -0.582854
O3    O     O_R   0.493410 0.256770 0.308360 -0.582515
O4    O     O_R   0.506590 0.743230 0.691640 -0.582513
O5    O     O_R   0.423230 0.514630 0.655730 -0.591335
O6    O     O_R   0.576770 0.485370 0.344270 -0.591325
O7    O     O_R   0.412530 0.485280 0.344320 -0.584237
O8    O     O_R   0.587470 0.514720 0.655680 -0.584238
O9    O     O_2   0.856665 0.777550 0.618393 -0.458968
O10   O     O_2   0.143326 0.222470 0.381692 -0.459028
O11   O     O_2   0.842823 0.233104 0.349136 -0.499546
O12   O     O_2   0.157169 0.766938 0.650839 -0.499611
Br1   Br    Br    0.047041 0.007099 0.259873 -0.399446
Br2   Br    Br    0.952952 0.992938 0.740125 -0.399447

loop_
_geom_bond_atom_site_label_1
_geom_bond_atom_site_label_2
_ccdc_geom_bond_type
C17   O5    A    
C20   N2    A    
C13   N2    S    
C20   O10   S    
C11   H9    S    
C1    C15   S    
Cu1   O5    S    
C10   H8    S    
C19   C27   A    
C29   H1    S    
C32   Br2   S    
C9    H7    S    
C3    C13   A    
C30   H2    S    
C22   N2    A    
Cu1   O4    S    
C21   N1    A    
Cu1   Cu2   S    
C1    O3    A    
Cu2   O3    S    
C29   C31   A    
C2    O4    A    
Cu1   N4    S    
Cu1   O1    S    
C9    C11   A    
Cu2   N3    S    
C10   C12   A    
C17   O7    A    
C27   C32   A    
C6    C8    A    
C23   C29   A    
C18   O8    A    
C26   C28   A    
C12   C14   A    
Cu2   O2    S    
Cu1   O8    S    
C6    H6    S    
C5    H5    S    
C21   C23   A    
C4    C14   A    
Cu2   O7    S    
C19   O9    S    
Cu2   O6    S    
C22   C24   A    
C31   Br1   S    
C21   O11   S    
C24   C30   A    
C25   C27   A    
C15   H11   S    
C22   O12   S    
C15   C16   D    
C30   C32   A    
C7    C9    A    
C11   C13   A    
C23   C25   A    
C2    C16   S    
C14   N1    S    
C3    H3    S    
C8    C10   A    
C4    C6    A    
C2    O2    A    
C16   H12   S    
C5    C7    A    
C1    O1    A    
C12   H10   S    
C4    H4    S    
H13   N3    S    
C20   C28   A    
C3    C5    A    
C25   C26   A    
H14   N4    S    
C19   N1    A    
C18   O6    A    
C28   C31   A    
C8    C18   S    
N3    N4    D    
C24   C26   A    
C7    C17   S    
