data_str_m12_o9_o10_f0_bcu.sym.36
_audit_creation_date              2012-12-11T17:37:47-0500
_audit_creation_method            fapswitch 2.2
_symmetry_space_group_name_H-M    P1
_symmetry_Int_Tables_number       1
_space_group_crystal_system       triclinic
_cell_length_a                    13.034574
_cell_length_b                    13.056143
_cell_length_c                    15.45535
_cell_angle_alpha                 117.509319
_cell_angle_beta                  63.526151
_cell_angle_gamma                 97.816072
_cell_volume                      2080.09056121

loop_
_atom_site_label
_atom_site_type_symbol
_atom_type_description
_atom_site_fract_x
_atom_site_fract_y
_atom_site_fract_z
_atom_type_partial_charge
C1    C     C_R   0.997347 0.832344 0.060238 -0.116911
C2    C     C_R   0.303273 0.587133 0.788464 -0.151388
C3    C     C_R   0.259052 0.417247 0.047752 -0.148656
C4    C     C_R   0.679159 0.477107 0.219707 -0.130879
C5    C     C_R   0.048850 0.276176 0.684131 -0.118665
C6    C     C_R   0.361765 0.435308 0.975231 0.151644
C7    C     C_R   0.037250 0.164633 0.676206 0.063536
C8    C     C_R   0.304339 0.548167 0.688496 0.063707
C9    C     C_R   0.004553 0.152152 0.044623 0.033362
C10   C     C_R   0.410661 0.970211 0.119090 -0.115355
C11   C     C_R   0.351429 0.947641 0.208437 -0.167270
C12   C     C_R   0.672934 0.556574 0.320500 0.035514
C13   C     C_R   0.238489 0.997045 0.282996 0.046387
C14   C     C_R   0.184860 0.069481 0.266751 0.069968
C15   C     C_R   0.245081 0.091428 0.176824 -0.175501
C16   C     C_R   0.755901 0.518381 0.893072 -0.171500
C17   C     C_R   0.357683 0.042133 0.103454 -0.096107
C18   C     C_R   0.160416 0.065851 0.478909 -0.213860
C19   C     C_R   0.090223 0.056196 0.574585 0.063139
C20   C     C_R   0.068286 0.943473 0.566412 0.045948
C21   C     C_R   0.100028 0.849618 0.464770 -0.236454
C22   C     C_R   0.133962 0.867991 0.374064 0.050368
C23   C     C_R   0.662751 0.458247 0.925648 0.159112
C24   C     C_R   0.178846 0.974179 0.378358 0.046642
C25   C     C_R   0.037983 0.920210 0.728842 0.060826
C26   C     C_R   0.963924 0.899919 0.817275 -0.209339
C27   C     C_R   0.849518 0.878975 0.835765 -0.141938
C28   C     C_R   0.024652 0.698830 0.298128 -0.148490
C29   C     C_R   0.809505 0.873789 0.764136 -0.117568
C30   C     C_R   0.882629 0.892913 0.675407 -0.185227
C31   C     C_R   0.996240 0.918763 0.658471 0.058173
C32   C     C_R   0.864446 0.361285 0.355925 -0.097840
C33   C     C_R   0.748644 0.396283 0.398939 -0.112420
C34   C     C_R   0.090030 0.791534 0.294506 0.077661
C35   C     C_R   0.706338 0.511269 0.476940 0.120814
C36   C     C_R   0.777058 0.587053 0.519938 -0.199078
C37   C     C_R   0.893737 0.552994 0.473326 -0.136450
C38   C     C_R   0.938002 0.441282 0.389107 -0.100271
C39   C     C_R   0.503002 0.562296 0.590470 -0.250706
C40   C     C_R   0.676508 0.421244 0.990126 -0.125628
C41   C     C_R   0.392283 0.568938 0.601155 0.070346
C42   C     C_R   0.372401 0.582176 0.523604 0.038495
C43   C     C_R   0.466182 0.590617 0.437323 -0.224465
C44   C     C_R   0.577366 0.574497 0.422893 0.069275
C45   C     C_R   0.338351 0.516177 0.950809 -0.113420
C46   C     C_R   0.595357 0.556706 0.499120 0.018413
C47   C     C_R   0.239812 0.460650 0.446693 0.066818
C48   C     C_R   0.127842 0.427151 0.470265 -0.212641
C49   C     C_R   0.035135 0.499536 0.564691 -0.145969
C50   C     C_R   0.052485 0.609535 0.632257 -0.125287
C51   C     C_R   0.163998 0.643887 0.610581 -0.144991
C52   C     C_R   0.103829 0.796284 0.202870 -0.144090
C53   C     C_R   0.258906 0.567137 0.521377 0.041471
C54   C     C_2   0.474837 0.394147 0.947679 -0.196242
C55   C     C_2   0.567906 0.437685 0.896821 -0.199221
C56   C     C_R   0.966880 0.178192 0.780749 -0.131677
C57   C     C_2   0.822333 0.955319 0.111072 -0.201593
C58   C     C_2   0.823625 0.045514 0.199455 -0.160261
C59   C     C_R   0.783452 0.576043 0.309230 -0.089325
C60   C     C_R   0.894381 0.747292 0.966452 -0.159612
C61   C     C_R   0.905314 0.851564 0.045422 0.122172
C62   C     C_1   0.066567 0.116356 0.337987 -0.028717
C63   C     C_1   0.153315 0.949102 0.715291 0.022677
C64   C     C_1   0.333823 0.377939 0.353890 0.013522
C65   C     C_R   0.207593 0.490714 0.689704 -0.128774
C66   C     C_R   0.051383 0.255116 0.086856 -0.121804
C67   C     C_R   0.947866 0.172660 0.995635 -0.112441
H1    H     H_    0.026284 0.893230 0.119389 0.103777
H2    H     H_    0.608638 0.440674 0.199578 0.109575
H3    H     H_    0.193009 0.147196 0.480993 0.126739
H4    H     H_    0.994283 0.903355 0.873148 0.142349
H5    H     H_    0.790943 0.867238 0.905699 0.104908
H6    H     H_    0.721379 0.856249 0.778095 0.107915
H7    H     H_    0.850150 0.890064 0.620927 0.125425
H8    H     H_    0.778576 0.546564 0.831500 0.094644
H9    H     H_    0.898150 0.274023 0.293286 0.116699
H10   H     H_    0.694000 0.336667 0.366360 0.120053
H11   H     H_    0.744956 0.675729 0.580461 0.117842
H12   H     H_    0.930619 0.114623 0.808369 0.123467
H13   H     H_    0.950451 0.614976 0.499664 0.133185
H14   H     H_    0.518577 0.546003 0.646645 0.130188
H15   H     H_    0.453013 0.598675 0.376116 0.130890
H16   H     H_    0.112976 0.342581 0.418052 0.138619
H17   H     H_    0.949504 0.470414 0.585383 0.142687
H18   H     H_    0.980093 0.664325 0.705234 0.140399
H19   H     H_    0.009287 0.659209 0.349659 0.100179
H20   H     H_    0.477516 0.348095 0.989800 0.125398
H21   H     H_    0.566340 0.480122 0.851426 0.125458
H22   H     H_    0.754438 0.957341 0.089404 0.133093
H23   H     H_    0.179820 0.451281 0.627307 0.129027
H24   H     H_    0.887196 0.049539 0.227920 0.138095
H25   H     H_    0.629307 0.359047 0.017496 0.087057
H26   H     H_    0.163255 0.843461 0.163178 0.116586
H27   H     H_    0.809363 0.638113 0.369959 0.116567
H28   H     H_    0.826412 0.729529 0.941231 0.102480
H29   H     H_    0.397563 0.554238 0.900693 0.087753
H30   H     H_    0.248464 0.363630 0.086815 0.094827
H31   H     H_    0.497832 0.932042 0.061982 0.104547
H32   H     H_    0.204687 0.146094 0.163077 0.108459
H33   H     H_    0.079783 0.764904 0.460654 0.125228
H34   H     H_    0.089973 0.274442 0.141081 0.078105
H35   H     H_    0.029293 0.416820 0.348590 0.106984
H36   H     H_    0.177364 0.723377 0.670228 0.130455
H37   H     H_    0.888113 0.117682 0.968344 0.111137
H38   H     H_    0.358999 0.646738 0.819138 0.095275
H39   H     H_    0.089551 0.299818 0.619181 0.096869
H40   H     H_    0.403805 0.059399 0.034151 0.108807
H41   H     H_    0.393638 0.892078 0.219855 0.125823
N1    N     N_R   0.037320 0.720000 0.995830 -0.045976
N2    N     N_R   0.824900 0.517970 0.936430 -0.038427
N3    N     N_R   0.003190 0.648180 0.211390 -0.041180
N4    N     N_R   0.774330 0.457010 0.995830 -0.043805
N5    N     N_R   0.053760 0.709130 0.151980 -0.042647
N6    N     N_R   0.853840 0.498830 0.211390 -0.040620
N7    N     N_R   0.974250 0.667320 0.936430 -0.039381
N8    N     N_R   0.225670 0.542990 0.004170 -0.045992
N9    N     N_1   0.971719 0.153727 0.395208 -0.089186
N10   N     N_1   0.245736 0.972324 0.704461 -0.078232
N11   N     N_1   0.409132 0.311634 0.279619 -0.089727
N12   N     N_R   0.946240 0.290870 0.848020 -0.044090
N13   N     N_R   0.146160 0.501170 0.788610 -0.040156
N14   N     N_R   0.025750 0.332680 0.063570 -0.035809
N15   N     N_R   0.962680 0.280000 0.004170 -0.043678
N16   N     N_R   0.209230 0.553860 0.848010 -0.038154
N17   N     N_R   0.175100 0.482030 0.063570 -0.040939
N18   N     N_R   0.996810 0.351820 0.788610 -0.039792
N19   N     N_R   0.790770 0.446140 0.151990 -0.044410
Ni1   Ni    Ni4+2 0.130310 0.630310 0.000000 0.212150
Ni2   Ni    Ni4+2 0.869690 0.369690 0.000000 0.214156
Ni3   Ni    Ni4+2 0.985660 0.509480 0.863750 0.217503
Ni4   Ni    Ni4+2 0.014340 0.490520 0.136250 0.218861

loop_
_geom_bond_atom_site_label_1
_geom_bond_atom_site_label_2
_ccdc_geom_bond_type
C25   C31   A    
C41   C42   A    
C18   H3    S    
C6    C45   A    
C27   C29   A    
C16   H8    S    
N6    Ni4   S    
C19   C20   A    
N13   Ni3   S    
C3    C6    A    
N19   Ni2   S    
C16   N2    A    
C40   N4    A    
N5    Ni1   S    
C52   N5    A    
C26   C27   A    
C29   C30   A    
C64   N11   T    
C57   H22   S    
C65   N13   A    
C18   C24   A    
C49   H17   S    
C36   C37   A    
C17   H40   S    
C42   C53   S    
C30   C31   A    
C30   H7    S    
N12   N18   A    
C29   H6    S    
N18   Ni3   S    
C10   C17   A    
C51   H36   S    
C23   C40   A    
C14   C62   S    
C1    H1    S    
C18   C19   A    
C25   C63   S    
C55   H21   S    
C10   H31   S    
N17   Ni4   S    
C9    C66   A    
C62   N9    T    
C50   H18   S    
C1    N1    A    
C12   C59   A    
C35   C36   A    
N13   N16   A    
C5    N18   A    
C66   N14   A    
C59   H27   S    
C32   C38   A    
N4    Ni2   S    
C4    C12   A    
C58   H24   S    
C47   C53   A    
C28   C34   A    
C8    C65   A    
C21   C22   A    
N15   Ni2   S    
C26   H4    S    
C56   N12   A    
C66   H34   S    
C7    C56   A    
C6    C54   S    
C4    H2    S    
C44   C46   A    
C67   H37   S    
C5    H39   S    
C28   N3    A    
C65   H23   S    
C22   C34   S    
C37   H13   S    
N12   Ni2   S    
C8    C41   S    
C39   H14   S    
C39   C41   A    
C45   H29   S    
C47   C64   S    
C5    C7    A    
C21   H33   S    
C25   C26   A    
C13   C24   S    
C1    C61   A    
C60   C61   A    
C51   C53   A    
C43   C44   A    
C9    C67   A    
C37   C38   A    
C3    H30   S    
N1    Ni1   S    
C47   C48   A    
C50   C51   A    
C52   H26   S    
N3    N5    A    
C40   H25   S    
C57   C61   S    
C56   H12   S    
C39   C46   A    
N3    Ni4   S    
C48   C49   A    
C16   C23   A    
C7    C19   S    
N8    N17   A    
C28   H19   S    
C22   C24   A    
C42   C43   A    
N14   Ni4   S    
C15   C17   A    
C54   C55   D    
C4    N19   A    
C2    C8    A    
C15   H32   S    
C67   N15   A    
C32   H9    S    
C3    N17   A    
C23   C55   S    
C2    N16   A    
C2    H38   S    
C34   C52   A    
C48   H16   S    
N16   Ni1   S    
C32   C33   A    
C38   H35   S    
C36   H11   S    
N6    N19   A    
C11   C13   A    
C45   N8    A    
C33   H10   S    
C57   C58   D    
C54   H20   S    
C59   N6    A    
C33   C35   A    
N2    Ni3   S    
N2    N4    A    
C10   C11   A    
N1    N7    A    
C60   H28   S    
C20   C21   A    
C12   C44   S    
C49   C50   A    
N8    Ni1   S    
C11   H41   S    
C43   H15   S    
C14   C15   A    
C60   N7    A    
N14   N15   A    
C13   C14   A    
C35   C46   S    
N7    Ni3   S    
C27   H5    S    
C63   N10   T    
C20   C31   S    
