data_str_m9_o7_o18_f0_sra.sym.61
_audit_creation_date              2012-12-11T17:36:20-0500
_audit_creation_method            fapswitch 2.2
_symmetry_space_group_name_H-M    P1
_symmetry_Int_Tables_number       1
_space_group_crystal_system       triclinic
_cell_length_a                    25.784457
_cell_length_b                    6.902459
_cell_length_c                    21.707454
_cell_angle_alpha                 89.995377
_cell_angle_beta                  96.183899
_cell_angle_gamma                 89.98475
_cell_volume                      3840.92896892

loop_
_atom_site_label
_atom_site_type_symbol
_atom_type_description
_atom_site_fract_x
_atom_site_fract_y
_atom_site_fract_z
_atom_type_partial_charge
O1    O     O_R   0.208650 0.594520 0.175450 -0.527802
O2    O     O_R   0.791350 0.405480 0.824550 -0.527796
O3    O     O_R   0.291350 0.094520 0.324550 -0.528143
O4    O     O_R   0.708650 0.905480 0.675450 -0.528148
O5    O     O_R   0.192980 0.260780 0.300160 -0.534426
O6    O     O_R   0.807020 0.739220 0.699840 -0.534430
O7    O     O_R   0.307020 0.760780 0.199840 -0.534114
O8    O     O_R   0.692980 0.239220 0.800160 -0.534109
C1    C     C_R   0.178934 0.432642 0.318543 0.706202
C2    C     C_R   0.821066 0.567358 0.681458 0.706201
C3    C     C_R   0.321057 0.932617 0.181444 0.706337
C4    C     C_R   0.678943 0.067382 0.818556 0.706339
O9    O     O_R   0.202550 0.264660 0.174420 -0.537925
O10   O     O_R   0.797450 0.735340 0.825580 -0.537928
O11   O     O_R   0.297450 0.764660 0.325580 -0.537662
O12   O     O_R   0.702550 0.235340 0.674420 -0.537659
O13   O     O_R   0.300990 0.096480 0.197920 -0.539447
O14   O     O_R   0.699010 0.903520 0.802080 -0.539450
O15   O     O_R   0.199010 0.596480 0.302080 -0.539188
O16   O     O_R   0.800990 0.403520 0.697920 -0.539187
C5    C     C_R   0.190995 0.433884 0.151099 0.787715
C6    C     C_R   0.809004 0.566116 0.848901 0.787714
C7    C     C_R   0.309006 0.933818 0.348901 0.787828
C8    C     C_R   0.690994 0.066182 0.651099 0.787831
O17   O     O_3   0.282290 0.427760 0.257860 -0.370069
O18   O     O_3   0.717710 0.572240 0.742140 -0.370068
O19   O     O_3   0.217710 0.927760 0.242140 -0.370091
O20   O     O_3   0.782290 0.072240 0.757860 -0.370092
V1    V     V_3+5 0.244010 0.152080 0.248540 1.481637
V2    V     V_3+5 0.755990 0.847920 0.751460 1.481625
V3    V     V_3+5 0.255990 0.652080 0.251460 1.482516
V4    V     V_3+5 0.744010 0.347920 0.748540 1.482525
C9    C     C_R   0.658593 0.055529 0.590674 -0.139233
C10   C     C_R   0.341405 0.944468 0.409327 -0.139229
C11   C     C_R   0.841378 0.555036 0.909340 -0.139308
C12   C     C_R   0.158621 0.444964 0.090661 -0.139310
C13   C     C_R   0.651473 0.028656 0.477967 0.078706
C14   C     C_R   0.348524 0.971319 0.522035 0.078708
C15   C     C_R   0.848422 0.522156 0.021885 0.078498
C16   C     C_R   0.151575 0.477808 0.978115 0.078505
C17   C     C_R   0.682297 0.045962 0.535659 0.339169
C18   C     C_R   0.317700 0.954041 0.464341 0.339160
C19   C     C_R   0.817625 0.541605 0.964246 0.339047
C20   C     C_R   0.182372 0.458361 0.035753 0.339060
C21   C     C_R   0.604186 0.047540 0.588739 -0.297315
C22   C     C_R   0.395812 0.952436 0.411264 -0.297316
C23   C     C_R   0.895811 0.549119 0.911348 -0.297354
C24   C     C_R   0.104187 0.450904 0.088655 -0.297357
C25   C     C_R   0.571561 0.026335 0.532036 0.068981
C26   C     C_R   0.428437 0.973611 0.467970 0.068979
C27   C     C_R   0.928416 0.525925 0.967988 0.068932
C28   C     C_R   0.071582 0.474096 0.032014 0.068935
C29   C     C_R   0.596048 0.012399 0.476423 0.058367
C30   C     C_R   0.403949 0.987542 0.523582 0.058375
C31   C     C_R   0.903885 0.507732 0.023448 0.058337
C32   C     C_R   0.096113 0.492270 0.976554 0.058326
C33   C     C_R   0.515448 0.015434 0.529027 0.085810
C34   C     C_R   0.484550 0.984489 0.470981 0.085810
C35   C     C_R   0.984556 0.516827 0.971053 0.085780
C36   C     C_R   0.015443 0.483202 0.028950 0.085780
C37   C     C_R   0.510855 0.963806 0.417805 -0.192496
C38   C     C_R   0.489143 0.036080 0.582204 -0.192497
C39   C     C_R   0.989108 0.458126 0.081915 -0.192547
C40   C     C_R   0.010891 0.541909 0.918089 -0.192544
C41   C     C_R   0.564666 0.978638 0.420433 -0.187825
C42   C     C_R   0.435332 0.021253 0.579575 -0.187823
C43   C     C_R   0.935265 0.471432 0.079274 -0.187842
C44   C     C_R   0.064734 0.528589 0.920728 -0.187849
H1    H     H_    0.581053 0.958461 0.377187 0.135688
H2    H     H_    0.418945 0.041391 0.622823 0.135690
H3    H     H_    0.918858 0.447869 0.122339 0.135697
H4    H     H_    0.081141 0.552157 0.877665 0.135703
H5    H     H_    0.411118 0.947072 0.367082 0.111720
H6    H     H_    0.588881 0.052919 0.632922 0.111719
H7    H     H_    0.088832 0.442857 0.132768 0.111812
H8    H     H_    0.911168 0.557186 0.867235 0.111812
H9    H     H_    0.491080 0.933714 0.372628 0.120979
H10   H     H_    0.508919 0.066125 0.627384 0.120977
H11   H     H_    0.008895 0.425551 0.126904 0.121054
H12   H     H_    0.991104 0.574495 0.873099 0.121054
C45   C     C_R   0.437179 0.798707 0.093526 0.175807
C46   C     C_R   0.562822 0.201292 0.906475 0.175807
C47   C     C_R   0.062818 0.298764 0.406447 0.175861
C48   C     C_R   0.937182 0.701236 0.593553 0.175861
C49   C     C_R   0.396850 0.786604 0.132628 -0.172734
C50   C     C_R   0.603151 0.213395 0.867372 -0.172722
C51   C     C_R   0.103151 0.286659 0.367349 -0.173491
C52   C     C_R   0.896849 0.713341 0.632652 -0.173499
H13   H     H_    0.392372 0.655062 0.158777 0.122681
H14   H     H_    0.607627 0.344937 0.841223 0.122680
H15   H     H_    0.107650 0.155108 0.341213 0.122707
H16   H     H_    0.892350 0.844892 0.658787 0.122707
C53   C     C_R   0.363145 0.943971 0.139309 -0.080602
C54   C     C_R   0.636855 0.056029 0.860692 -0.080596
C55   C     C_R   0.136829 0.444033 0.360656 -0.080991
C56   C     C_R   0.863171 0.555967 0.639345 -0.080995
C57   C     C_R   0.369885 0.113662 0.105148 -0.139410
C58   C     C_R   0.630116 0.886339 0.894854 -0.139420
C59   C     C_R   0.130048 0.613752 0.394784 -0.138575
C60   C     C_R   0.869952 0.386248 0.605217 -0.138569
H17   H     H_    0.344578 0.237370 0.108775 0.182199
H18   H     H_    0.655423 0.762631 0.891226 0.182194
H19   H     H_    0.155315 0.737500 0.391119 0.182623
H20   H     H_    0.844686 0.262500 0.608881 0.182625
C61   C     C_R   0.408820 0.125521 0.065089 -0.177141
C62   C     C_R   0.591181 0.874479 0.934912 -0.177141
C63   C     C_R   0.091124 0.625588 0.434857 -0.177058
C64   C     C_R   0.908876 0.374412 0.565143 -0.177058
H21   H     H_    0.412292 0.256853 0.038513 0.134457
H22   H     H_    0.587710 0.743147 0.961489 0.134458
H23   H     H_    0.087635 0.756918 0.461427 0.134440
H24   H     H_    0.912366 0.243082 0.538573 0.134440
C65   C     C_R   0.442957 0.970415 0.059121 0.102177
C66   C     C_R   0.557044 0.029585 0.940880 0.102178
C67   C     C_R   0.057021 0.470460 0.440849 0.102124
C68   C     C_R   0.942979 0.529540 0.559152 0.102123
C69   C     C_1   0.483211 0.990982 0.017359 -0.048968
C70   C     C_1   0.516790 0.009017 0.982642 -0.048968
C71   C     C_1   0.016783 0.490995 0.482632 -0.048945
C72   C     C_1   0.983218 0.509005 0.517368 -0.048946
Cl1   Cl    Cl    0.248575 0.950856 0.459664 -0.715417
Cl2   Cl    Cl    0.751422 0.049192 0.540332 -0.715422
Cl3   Cl    Cl    0.251513 0.457230 0.040526 -0.715232
Cl4   Cl    Cl    0.748485 0.542692 0.959470 -0.715227
C73   C     C_3   0.678387 0.027217 0.418827 -0.320881
C74   C     C_3   0.689784 0.820462 0.399152 -0.704187
H25   H     H_    0.716486 0.747915 0.435621 0.263240
H26   H     H_    0.653253 0.734875 0.391004 0.213510
H27   H     H_    0.708773 0.823675 0.355623 0.210902
H28   H     H_    0.655064 0.105555 0.380752 0.153997
H29   H     H_    0.715526 0.109500 0.424749 0.231994
C75   C     C_3   0.321608 0.972769 0.581174 -0.320869
C76   C     C_3   0.310233 0.179532 0.600863 -0.704207
H30   H     H_    0.346774 0.265067 0.609020 0.213509
H31   H     H_    0.283542 0.252140 0.564397 0.263220
H32   H     H_    0.291241 0.176322 0.644390 0.210906
H33   H     H_    0.284459 0.890549 0.575246 0.232002
H34   H     H_    0.344921 0.894374 0.619244 0.153995
C77   C     C_3   0.821433 0.516205 0.080937 -0.321318
C78   C     C_3   0.810381 0.307914 0.099325 -0.703544
H35   H     H_    0.783873 0.236814 0.062364 0.263433
H36   H     H_    0.847068 0.222994 0.107045 0.213514
H37   H     H_    0.791309 0.307824 0.142804 0.210879
H38   H     H_    0.844570 0.592841 0.119518 0.154025
H39   H     H_    0.784149 0.597707 0.075427 0.231921
C79   C     C_3   0.178561 0.483692 0.919061 -0.321328
C80   C     C_3   0.189633 0.691956 0.900665 -0.703536
H40   H     H_    0.152956 0.776949 0.892966 0.213518
H41   H     H_    0.216165 0.763011 0.937612 0.263446
H42   H     H_    0.208686 0.691997 0.857171 0.210871
H43   H     H_    0.215836 0.402136 0.924572 0.231914
H44   H     H_    0.155414 0.407074 0.880484 0.154029
C81   C     C_3   0.473031 0.626895 0.089049 -0.378538
C82   C     C_3   0.526550 0.662544 0.124571 -0.744218
H45   H     H_    0.546422 0.786864 0.104792 0.234145
H46   H     H_    0.522486 0.692126 0.174129 0.223650
H47   H     H_    0.551251 0.531765 0.121617 0.222556
H48   H     H_    0.456245 0.495544 0.108822 0.179934
H49   H     H_    0.477238 0.594807 0.039683 0.181434
C83   C     C_3   0.526970 0.373104 0.910952 -0.378539
C84   C     C_3   0.473450 0.337455 0.875431 -0.744219
H50   H     H_    0.477514 0.307872 0.825873 0.223650
H51   H     H_    0.453578 0.213135 0.895210 0.234146
H52   H     H_    0.448749 0.468235 0.878385 0.222556
H53   H     H_    0.522763 0.405193 0.960319 0.181435
H54   H     H_    0.543755 0.504455 0.891179 0.179935
C85   C     C_3   0.026983 0.126970 0.410923 -0.378585
C86   C     C_3   0.973452 0.162702 0.375426 -0.744024
H55   H     H_    0.953573 0.286993 0.395228 0.234154
H56   H     H_    0.977499 0.192369 0.325868 0.223625
H57   H     H_    0.948766 0.031927 0.378373 0.222536
H58   H     H_    0.043772 0.995642 0.391125 0.179893
H59   H     H_    0.022794 0.094808 0.460291 0.181422
C87   C     C_3   0.973017 0.873030 0.589077 -0.378585
C88   C     C_3   0.026548 0.837298 0.624575 -0.744023
H60   H     H_    0.022501 0.807635 0.674133 0.223625
H61   H     H_    0.046427 0.713004 0.604774 0.234153
H62   H     H_    0.051234 0.968071 0.621627 0.222536
H63   H     H_    0.977207 0.905191 0.539710 0.181421
H64   H     H_    0.956229 0.004358 0.608875 0.179892

loop_
_geom_bond_atom_site_label_1
_geom_bond_atom_site_label_2
_ccdc_geom_bond_type
O17   V3    S    
C59   H19   S    
C52   C56   A    
O1    C5    A    
C74   H25   S    
C51   H15   S    
O19   V1    S    
C9    C21   A    
O12   C8    A    
O3    C7    A    
C80   H40   S    
C10   C18   A    
C78   H37   S    
C60   H20   S    
O15   V3    S    
C84   H50   S    
C25   C33   A    
C33   C38   A    
C88   H61   S    
C5    C12   S    
C39   H11   S    
O7    C3    A    
C6    C11   S    
C35   C40   A    
C26   C30   A    
C62   C66   A    
C36   C39   A    
C40   C44   A    
C61   C65   A    
C80   H41   S    
C78   H36   S    
C23   H8    S    
C14   C18   A    
C62   H22   S    
O4    C8    A    
C55   C59   A    
C54   C58   A    
C75   H34   S    
O1    V3    S    
C45   C81   S    
O2    V4    S    
C27   C31   A    
C81   H48   S    
O3    V1    S    
C87   C88   S    
C50   C54   A    
C49   C53   A    
C73   H28   S    
C1    O15   A    
C86   H57   S    
C15   C31   A    
C52   H16   S    
C37   H9    S    
C75   C76   S    
C16   C32   A    
C51   C55   A    
O2    C6    A    
C76   H32   S    
C10   C22   A    
C83   H54   S    
C11   C19   A    
C1    C55   S    
C16   C20   A    
C82   H46   S    
C44   H4    S    
C85   H59   S    
C13   C29   A    
C3    C53   S    
C34   C37   A    
O11   C7    A    
C11   C23   A    
C35   C36   A    
C48   C68   A    
C40   H12   S    
C24   H7    S    
C4    C54   S    
O10   V2    S    
C48   C87   S    
C84   H51   S    
C45   C49   A    
C88   H62   S    
O5    V1    S    
O17   V1    S    
C77   C78   S    
C39   C43   A    
C60   C64   A    
O7    V3    S    
C38   C42   A    
O19   V3    S    
C26   C34   A    
C47   C67   A    
O20   V4    S    
C80   H42   S    
C78   H35   S    
C46   C66   A    
C82   H47   S    
C50   H14   S    
C2    O16   A    
C85   C86   S    
C49   H13   S    
O18   V4    S    
C15   C19   A    
C74   H27   S    
C75   H33   S    
C32   C44   A    
C47   C85   S    
C64   H24   S    
C21   H6    S    
O8    V4    S    
C17   Cl2   S    
C81   H49   S    
O5    C1    A    
C58   H18   S    
C46   C83   S    
C77   H38   S    
C73   H29   S    
C31   C43   A    
C88   H60   S    
C14   C30   A    
C2    C56   S    
O8    C4    A    
C7    C10   S    
C21   C25   A    
O9    C5    A    
C83   H53   S    
C63   C67   A    
C82   H45   S    
C66   C70   S    
C79   H44   S    
C86   H55   S    
O6    V2    S    
O18   V2    S    
C67   C71   S    
C73   C74   S    
C65   C69   S    
C12   C20   A    
C27   C35   A    
C45   C65   A    
C53   C57   A    
C13   C73   S    
C84   H52   S    
C29   C41   A    
C79   C80   S    
O16   V4    S    
O9    V1    S    
C61   H21   S    
C77   H39   S    
C74   H26   S    
C20   Cl3   S    
C63   H23   S    
C38   H10   S    
C48   C52   A    
C3    O13   A    
C47   C51   A    
O6    C2    A    
C23   C27   A    
C71   C72   T    
O11   V3    S    
C85   H58   S    
C30   C42   A    
O12   V4    S    
C59   C63   A    
C22   C26   A    
C87   H64   S    
C8    C9    S    
C58   C62   A    
C16   C79   S    
C9    C17   A    
C83   C84   S    
C64   C68   A    
O20   V2    S    
C57   C61   A    
C46   C50   A    
O13   V1    S    
O10   C6    A    
C33   C34   A    
C76   H30   S    
C41   H1    S    
C56   C60   A    
C86   H56   S    
C12   C24   A    
C43   H3    S    
C37   C41   A    
C13   C17   A    
O4    V2    S    
C25   C29   A    
O14   V2    S    
C79   H43   S    
C68   C72   S    
C24   C28   A    
C42   H2    S    
C19   Cl4   S    
C28   C36   A    
C4    O14   A    
C76   H31   S    
C81   C82   S    
C69   C70   T    
C87   H63   S    
C22   H5    S    
C57   H17   S    
C28   C32   A    
C18   Cl1   S    
C14   C75   S    
C15   C77   S    
