data_str_m9_o16_o17_f0_sra.sym.49
_audit_creation_date              2012-12-11T15:07:35-0500
_audit_creation_method            fapswitch 2.2
_symmetry_space_group_name_H-M    P1
_symmetry_Int_Tables_number       1
_space_group_crystal_system       triclinic
_cell_length_a                    21.620242
_cell_length_b                    7.210458
_cell_length_c                    18.617068
_cell_angle_alpha                 90.037839
_cell_angle_beta                  95.943387
_cell_angle_gamma                 90.054948
_cell_volume                      2886.64646381

loop_
_atom_site_label
_atom_site_type_symbol
_atom_type_description
_atom_site_fract_x
_atom_site_fract_y
_atom_site_fract_z
_atom_type_partial_charge
O1    O     O_R   0.449650 0.506500 0.414480 -0.532387
O2    O     O_R   0.550350 0.006500 0.585520 -0.532550
O3    O     O_R   0.432010 0.173150 0.560250 -0.540193
O4    O     O_R   0.567990 0.673150 0.439750 -0.535836
C1    C     C_R   0.415646 0.344617 0.580393 0.682857
C2    C     C_R   0.583800 0.844699 0.418862 0.684486
O5    O     O_R   0.442320 0.176650 0.413480 -0.534995
O6    O     O_R   0.557680 0.676650 0.586520 -0.534127
O7    O     O_R   0.560730 0.008380 0.437700 -0.539540
O8    O     O_R   0.439270 0.508380 0.562300 -0.535753
C3    C     C_R   0.428589 0.344956 0.387548 0.676604
C4    C     C_R   0.571404 0.845210 0.612438 0.676948
O9    O     O_3   0.538840 0.339860 0.508120 -0.371678
O10   O     O_3   0.461160 0.839860 0.491880 -0.373471
V1    V     V_3+5 0.492800 0.064220 0.498490 1.419766
V2    V     V_3+5 0.507200 0.564220 0.501510 1.427455
C5    C     C_R   0.872068 0.969631 0.689585 -0.160456
C6    C     C_R   0.128788 0.484108 0.309893 -0.160521
H1    H     H_    0.960166 0.996759 0.753041 0.104670
H2    H     H_    0.040726 0.511420 0.246444 0.102959
H3    H     H_    0.790526 0.961209 0.573190 0.124530
H4    H     H_    0.210711 0.482816 0.425989 0.123667
H5    H     H_    0.892364 0.992916 0.639504 0.112541
H6    H     H_    0.108887 0.514248 0.359703 0.112607
C7    C     C_R   0.886491 0.941286 0.819728 -0.033933
C8    C     C_R   0.113606 0.442833 0.180264 -0.033554
C9    C     C_R   0.585195 0.823613 0.744975 -0.163214
C10   C     C_R   0.414283 0.313626 0.255313 -0.163248
C11   C     C_R   0.621118 0.824293 0.811366 -0.125623
C12   C     C_R   0.378153 0.310367 0.189070 -0.127178
C13   C     C_R   0.685187 0.852399 0.815511 -0.156373
C14   C     C_R   0.314297 0.342302 0.184810 -0.155824
C15   C     C_R   0.715400 0.881260 0.752569 0.077489
C16   C     C_R   0.284529 0.379325 0.247470 0.077430
C17   C     C_R   0.677969 0.881810 0.684306 0.068901
C18   C     C_R   0.322223 0.384597 0.315538 0.068875
C19   C     C_R   0.781374 0.909523 0.755109 0.072791
C20   C     C_R   0.218738 0.411066 0.244840 0.072527
C21   C     C_R   0.807881 0.939218 0.689293 0.139221
C22   C     C_R   0.192724 0.449455 0.310328 0.139417
C23   C     C_R   0.770333 0.938995 0.623418 -0.201409
C24   C     C_R   0.230530 0.453930 0.376007 -0.201802
C25   C     C_R   0.706559 0.910437 0.620831 -0.193185
C26   C     C_R   0.294089 0.421607 0.378715 -0.193884
C27   C     C_R   0.822252 0.910028 0.820351 -0.214738
C28   C     C_R   0.177587 0.406991 0.179811 -0.215152
C29   C     C_R   0.910858 0.971580 0.754175 -0.166778
C30   C     C_R   0.089780 0.482072 0.245468 -0.165736
C31   C     C_R   0.612583 0.852363 0.681105 -0.077282
C32   C     C_R   0.387372 0.350870 0.318884 -0.076203
H7    H     H_    0.805799 0.888329 0.872392 0.093271
H8    H     H_    0.193680 0.378896 0.128018 0.092971
H9    H     H_    0.535527 0.800391 0.743372 0.106931
H10   H     H_    0.463728 0.286542 0.257054 0.104558
H11   H     H_    0.709700 0.850751 0.868887 0.106939
H12   H     H_    0.289580 0.336959 0.131575 0.106451
H13   H     H_    0.599067 0.802225 0.860294 0.113372
H14   H     H_    0.399854 0.281836 0.140373 0.112408
H15   H     H_    0.679709 0.911318 0.568394 0.110223
H16   H     H_    0.321137 0.426336 0.431001 0.109384
C33   C     C_R   0.637189 0.018800 0.326232 -0.186609
C34   C     C_R   0.355566 0.211045 0.677148 -0.190947
C35   C     C_R   0.632720 0.857710 0.368333 -0.108593
C36   C     C_R   0.365333 0.356239 0.629102 -0.099637
C37   C     C_R   0.675177 0.712453 0.361956 -0.165740
C38   C     C_R   0.328123 0.516458 0.629390 -0.196016
C39   C     C_R   0.721941 0.728396 0.315119 0.143821
C40   C     C_R   0.282048 0.532761 0.676922 0.135406
C41   C     C_R   0.725844 0.890406 0.273034 -0.020383
C42   C     C_R   0.273300 0.388050 0.725894 -0.014590
C43   C     C_R   0.683074 0.036309 0.278338 -0.013299
C44   C     C_R   0.310285 0.226195 0.726244 -0.009826
C45   C     C_R   0.765123 0.585147 0.309815 -0.133771
C46   C     C_R   0.244762 0.692183 0.676593 -0.117887
C47   C     C_R   0.811301 0.600786 0.262794 -0.214055
C48   C     C_R   0.199771 0.709884 0.725073 -0.175715
C49   C     C_R   0.815441 0.760553 0.220514 0.107282
C50   C     C_R   0.190865 0.567954 0.774500 0.111829
C51   C     C_R   0.772783 0.906507 0.225803 0.052848
C52   C     C_R   0.227507 0.405685 0.774590 0.053316
C53   C     C_R   0.777240 0.068643 0.184181 0.027511
C54   C     C_R   0.218076 0.260667 0.822966 0.025091
C55   C     C_R   0.734319 0.212355 0.189490 -0.277050
C56   C     C_R   0.255032 0.100781 0.823254 -0.286801
C57   C     C_R   0.686810 0.196444 0.235325 0.448140
C58   C     C_R   0.301881 0.084193 0.776508 0.455937
C59   C     C_R   0.861641 0.776760 0.173211 -0.212158
C60   C     C_R   0.145498 0.584594 0.823182 -0.221232
C61   C     C_R   0.866715 0.938237 0.131468 -0.081607
C62   C     C_R   0.134982 0.438896 0.870756 -0.080291
C63   C     C_R   0.824486 0.084376 0.137872 -0.199030
C64   C     C_R   0.171623 0.277336 0.870084 -0.191954
H17   H     H_    0.604205 0.130416 0.330190 0.170016
H18   H     H_    0.384477 0.088329 0.677459 0.166045
H19   H     H_    0.672462 0.588058 0.394158 0.132155
H20   H     H_    0.334841 0.628775 0.592278 0.126773
H21   H     H_    0.762987 0.460239 0.341804 0.126011
H22   H     H_    0.250877 0.804474 0.639306 0.118355
H23   H     H_    0.843755 0.487442 0.259399 0.128123
H24   H     H_    0.171966 0.835007 0.723946 0.120486
H25   H     H_    0.894160 0.663605 0.169566 0.125707
H26   H     H_    0.117288 0.708913 0.822693 0.123232
H27   H     H_    0.827695 0.209117 0.105990 0.128294
H28   H     H_    0.164302 0.164509 0.906745 0.128365
H29   H     H_    0.737671 0.338164 0.158292 0.149622
H30   H     H_    0.247586 0.987704 0.859731 0.145934
O11   O     O_R   0.060820 0.290050 0.937800 -0.539048
O12   O     O_R   0.939180 0.790050 0.062200 -0.538982
O13   O     O_R   0.057690 0.616620 0.086540 -0.535999
O14   O     O_R   0.942310 0.116620 0.913460 -0.535069
C65   C     C_R   0.071613 0.448868 0.112451 0.682384
C66   C     C_R   0.928414 0.948610 0.887552 0.685615
O15   O     O_R   0.068010 0.619890 0.939770 -0.539763
O16   O     O_R   0.931990 0.119890 0.060230 -0.541059
O17   O     O_R   0.949640 0.787940 0.914460 -0.532710
O18   O     O_R   0.050360 0.287940 0.085540 -0.533084
C67   C     C_R   0.084606 0.451039 0.919395 0.693222
C68   C     C_R   0.915890 0.951013 0.081258 0.693767
O19   O     O_3   0.961210 0.453080 0.991940 -0.373258
O20   O     O_3   0.038790 0.953080 0.008060 -0.374403
V3    V     V_3+5 0.007200 0.728820 0.001500 1.408888
V4    V     V_3+5 0.992800 0.228820 0.998500 1.408446
O21   O     O_3   0.646899 0.343789 0.242037 -0.553214
C69   C     C_3   0.600834 0.341952 0.182668 -0.277064
H31   H     H_    0.574490 0.208849 0.179519 0.127387
H32   H     H_    0.621215 0.368589 0.131169 0.139482
H33   H     H_    0.567197 0.454798 0.189955 0.165776
O22   O     O_3   0.336678 0.923301 0.776669 -0.550218
C70   C     C_3   0.382233 0.927228 0.836538 -0.270123
H34   H     H_    0.360757 0.920735 0.888255 0.137832
H35   H     H_    0.412548 0.051983 0.835410 0.129258
H36   H     H_    0.412337 0.803363 0.834056 0.163201

loop_
_geom_bond_atom_site_label_1
_geom_bond_atom_site_label_2
_ccdc_geom_bond_type
C38   C40   A    
C35   C37   A    
O17   V3    S    
C9    C11   A    
C23   C25   A    
O1    C3    A    
O12   V3    S    
O2    C4    A    
O22   C70   S    
C2    O7    A    
C4    C31   S    
O3    V1    S    
O21   C69   S    
C46   H22   S    
C45   H21   S    
C5    H5    S    
O18   V4    S    
C6    H6    S    
C38   H20   S    
C48   C50   A    
O13   C65   A    
C50   C52   A    
C27   H7    S    
C40   C46   A    
C28   H8    S    
C54   C64   A    
C41   C43   A    
C5    C21   A    
C33   C35   A    
C6    C22   A    
C34   C36   A    
C7    C66   S    
C43   C57   A    
C10   C32   A    
C37   C39   A    
C17   C31   A    
C56   H30   S    
C13   C15   A    
C65   O18   A    
C39   C45   A    
C61   C63   A    
C17   C25   A    
C7    C29   A    
C16   C18   A    
C25   H15   S    
C70   H36   S    
C33   C43   A    
O5    V1    S    
O6    V2    S    
C59   H25   S    
C45   C47   A    
C24   C26   A    
C53   C55   A    
C49   C51   A    
C19   C21   A    
C58   O22   S    
C12   C14   A    
C62   C67   S    
O12   C68   A    
C52   C54   A    
C63   H27   S    
C33   H17   S    
C51   C53   A    
C10   H10   S    
C42   C52   A    
C15   C19   A    
C55   H29   S    
C1    C36   S    
C39   C41   A    
C36   C38   A    
C2    C35   S    
O4    V2    S    
O5    C3    A    
C62   C64   A    
O6    C4    A    
C47   H23   S    
C34   C44   A    
O1    V2    S    
H2    C30   S    
C53   C63   A    
O2    V1    S    
C47   C49   A    
C49   C59   A    
O16   C68   A    
C46   C48   A    
C69   H33   S    
H3    C23   S    
O4    C2    A    
C55   C57   A    
C60   C62   A    
C54   C56   A    
C34   H18   S    
O15   C67   A    
C41   C51   A    
C19   C27   A    
C7    C27   A    
C18   C32   A    
O20   V3    S    
C69   H32   S    
C70   H34   S    
O19   V4    S    
C50   C60   A    
C16   C20   A    
C5    C29   A    
C11   H13   S    
O3    C1    A    
C6    C30   A    
C60   H26   S    
C9    H9    S    
C8    C30   A    
C44   C58   A    
C48   H24   S    
C10   C12   A    
O7    V1    S    
C1    O8    A    
C11   C13   A    
C3    C32   S    
O8    V2    S    
O14   V4    S    
C20   C22   A    
O13   V3    S    
H4    C24   S    
C26   H16   S    
C12   H14   S    
C22   C24   A    
C15   C17   A    
C14   H12   S    
C57   O21   S    
H1    C29   S    
O14   C66   A    
C20   C28   A    
C18   C26   A    
C64   H28   S    
O16   V4    S    
C37   H19   S    
O15   V3    S    
C61   C68   S    
C21   C23   A    
C40   C42   A    
O9    V2    S    
C59   C61   A    
O10   V1    S    
C56   C58   A    
C42   C44   A    
O11   V4    S    
C13   H11   S    
C8    C28   A    
C8    C65   S    
O11   C67   A    
C66   O17   A    
C9    C31   A    
C14   C16   A    
C69   H31   S    
C70   H35   S    
