data_str_m12_o4_o22_f0_bcu.sym.167
_audit_creation_date              2013-03-05T15:54:20-0500
_audit_creation_method            fapswitch 2.2
_symmetry_space_group_name_H-M    P1
_symmetry_Int_Tables_number       1
_space_group_crystal_system       triclinic
_cell_length_a                    15.02678
_cell_length_b                    14.928951
_cell_length_c                    15.078198
_cell_angle_alpha                 110.095574
_cell_angle_beta                  108.969532
_cell_angle_gamma                 109.438929
_cell_volume                      2600.79241337

loop_
_atom_site_label
_atom_site_type_symbol
_atom_site_description
_atom_site_fract_x
_atom_site_fract_y
_atom_site_fract_z
_atom_type_partial_charge
C1    C     C_R   0.930238 0.744652 0.025173 -0.125022
H1    H     H_    0.870703 0.744492 0.049947 0.114895
N1    N     N_R   0.995640 0.706130 0.053910 -0.044903
C2    C     C_R   0.778604 0.244905 0.686332 -0.143913
H2    H     H_    0.799707 0.232355 0.623973 0.121118
N2    N     N_R   0.848310 0.293860 0.791110 -0.047081
C3    C     C_R   0.063100 0.593594 0.781690 -0.117930
H3    H     H_    0.110826 0.678353 0.806678 0.102148
N3    N     N_R   0.054010 0.556790 0.847890 -0.045894
C4    C     C_R   0.700562 0.406739 0.003172 -0.119763
H4    H     H_    0.647908 0.320858 0.970521 0.167986
N4    N     N_R   0.789940 0.443190 0.997130 -0.054717
C5    C     C_R   0.972673 0.409999 0.687959 -0.089403
H5    H     H_    0.940031 0.326929 0.625341 0.149093
N5    N     N_R   0.997630 0.443170 0.791110 -0.047150
C6    C     C_R   0.790670 0.589261 0.097466 -0.154845
H6    H     H_    0.820415 0.673852 0.155114 0.102358
N6    N     N_R   0.846320 0.556810 0.053910 -0.045594
C7    C     C_R   0.685406 0.244680 0.775903 -0.105621
H7    H     H_    0.620940 0.232147 0.795511 0.120443
N7    N     N_R   0.791080 0.293860 0.847890 -0.050890
C8    C     C_R   0.028902 0.756201 0.941738 -0.105208
H8    H     H_    0.067184 0.779296 0.898122 0.094852
N8    N     N_R   0.052880 0.706130 0.997130 -0.045005
C9    C     C_R   0.949370 0.777530 0.955126 0.068847
C10   C     C_R   0.676250 0.214654 0.673688 0.059272
C11   C     C_R   0.004160 0.503255 0.679266 0.097177
C12   C     C_R   0.698676 0.496371 0.067463 0.129094
C13   C     C_R   0.000239 0.593655 0.300383 -0.136649
H9    H     H_    0.021452 0.677794 0.349127 0.107992
N9    N     N_R   0.002370 0.556830 0.208890 -0.044659
C14   C     C_R   0.222377 0.408244 0.975106 -0.011387
H10   H     H_    0.200746 0.322743 0.939942 0.121798
N10   N     N_R   0.153680 0.443190 0.946090 -0.041489
C15   C     C_R   0.298894 0.802541 0.208257 -0.135580
H11   H     H_    0.346525 0.831782 0.173669 0.121289
N11   N     N_R   0.208920 0.706140 0.152110 -0.046286
C16   C     C_R   0.907510 0.198370 0.998723 -0.054491
H12   H     H_    0.845324 0.171596 0.019445 0.117357
N12   N     N_R   0.947120 0.293870 0.002870 -0.052546
C17   C     C_R   0.998574 0.195515 0.907934 -0.128711
H13   H     H_    0.022098 0.165257 0.848445 0.110869
N13   N     N_R   0.004360 0.293870 0.946090 -0.054261
C18   C     C_R   0.211008 0.802422 0.302469 -0.111539
H14   H     H_    0.181972 0.830570 0.357317 0.096275
N14   N     N_R   0.151690 0.706140 0.208890 -0.043234
C19   C     C_R   0.911462 0.409752 0.211845 -0.044056
H15   H     H_    0.855074 0.325379 0.182852 0.150535
N15   N     N_R   0.945990 0.443210 0.152110 -0.052132
C20   C     C_R   0.314339 0.592994 0.063265 -0.116445
H16   H     H_    0.376811 0.678475 0.109040 0.100320
N16   N     N_R   0.210060 0.556810 0.002870 -0.040297
Ni1   Ni    Ni4+2 0.999010 0.630300 0.130220 0.216811
Ni2   Ni    Ni4+2 0.000990 0.369700 0.869780 0.258788
Ni3   Ni    Ni4+2 0.130280 0.630280 0.000000 0.237981
Ni4   Ni    Ni4+2 0.869720 0.369720 0.000000 0.246018
C21   C     C_R   0.944636 0.503538 0.305343 0.082335
C22   C     C_R   0.325077 0.500935 0.047398 0.024549
C23   C     C_R   0.303658 0.864341 0.303369 0.075006
C24   C     C_R   0.938158 0.134364 0.940129 0.094239
C25   C     C_3   0.530262 0.479905 0.958898 -0.515412
H17   H     H_    0.503097 0.399317 0.890230 0.241948
H18   H     H_    0.579853 0.542621 0.945151 0.166919
C26   C     C_3   0.434577 0.495472 0.957287 0.257268
H19   H     H_    0.453318 0.577859 0.965770 0.093087
H20   H     H_    0.356270 0.321386 0.994644 0.218696
C27   C     C_3   0.534319 0.401222 0.089598 0.569811
C28   C     C_3   0.630539 0.607664 0.160784 -0.410100
C29   C     C_3   0.600345 0.494072 0.069841 0.056544
H21   H     H_    0.691667 0.630297 0.242065 0.210245
H22   H     H_    0.666901 0.674206 0.144494 0.177494
C30   C     C_3   0.425314 0.499089 0.058946 0.114913
C31   C     C_3   0.424467 0.398896 0.069439 -0.516019
C32   C     C_3   0.527956 0.604450 0.162775 -0.431459
H23   H     H_    0.530490 0.681320 0.168198 0.167573
H24   H     H_    0.529065 0.605005 0.237102 0.224313
H25   H     H_    0.404342 0.396391 0.133430 0.212710
C33   C     C_R   0.579657 0.105841 0.472408 0.064168
C34   C     C_R   0.577896 0.155903 0.569134 -0.011131
C35   C     C_R   0.476860 0.133691 0.563378 -0.123620
H26   H     H_    0.471996 0.176417 0.634378 0.150749
C36   C     C_R   0.381366 0.043851 0.469544 -0.157047
H27   H     H_    0.305536 0.019801 0.470565 0.143119
C37   C     C_R   0.388107 0.977601 0.382508 0.032838
C38   C     C_R   0.485629 0.016200 0.381252 0.168851
C39   C     C_3   0.541284 0.954667 0.349637 -0.613097
C40   C     C_3   0.645330 0.053267 0.447481 0.163790
H28   H     H_    0.518325 0.880146 0.357788 0.181962
H29   H     H_    0.536409 0.940359 0.270382 0.242039
H30   H     H_    0.685176 0.034207 0.509242 0.087138
C41   C     C_R   0.979909 0.609223 0.490177 0.157668
C42   C     C_R   0.921359 0.509376 0.391566 0.045613
C43   C     C_R   0.858757 0.412120 0.386587 0.000393
H31   H     H_    0.805118 0.334537 0.310628 0.195916
C44   C     C_R   0.879509 0.411343 0.482766 -0.157365
H32   H     H_    0.839524 0.334183 0.478861 0.195099
C45   C     C_R   0.962080 0.507369 0.581700 -0.006803
C46   C     C_R   0.999792 0.607913 0.584824 0.134983
C47   C     C_3   0.112015 0.705058 0.647868 -0.464655
C48   C     C_3   0.091354 0.706499 0.543969 -0.497847
H33   H     H_    0.119907 0.778332 0.710702 0.197113
H34   H     H_    0.176460 0.684404 0.676526 0.219620
H35   H     H_    0.088536 0.781101 0.547574 0.203988
H36   H     H_    0.144780 0.687034 0.513826 0.212097
C49   C     C_R   0.850132 0.880938 0.959045 0.106638
C50   C     C_R   0.901776 0.834203 0.912546 0.085857
C51   C     C_R   0.925109 0.861890 0.839323 -0.167752
H37   H     H_    0.956423 0.821231 0.793989 0.123929
C52   C     C_R   0.924850 0.954900 0.837612 -0.139999
H38   H     H_    0.955175 0.982171 0.790321 0.128811
C53   C     C_R   0.901049 0.019442 0.908949 0.055105
C54   C     C_R   0.852077 0.973823 0.959360 -0.030378
C55   C     C_3   0.859465 0.018798 0.069689 0.516749
C56   C     C_3   0.857164 0.916057 0.068281 -0.631060
H39   H     H_    0.934437 0.934033 0.132267 0.217152
H40   H     H_    0.782608 0.859804 0.063016 0.213112
N17   N     N_R   0.334785 0.412316 0.852187 0.239754
O1    O     O_R   0.299061 0.307456 0.814617 -0.369659
O2    O     O_R   0.283861 0.443773 0.792683 -0.380045
N18   N     N_R   0.507977 0.289225 0.015357 0.198508
O3    O     O_R   0.445860 0.241212 0.910709 -0.412740
O4    O     O_R   0.536313 0.231424 0.054137 -0.324936
N19   N     N_R   0.600579 0.430301 0.202953 0.240112
O5    O     O_R   0.695508 0.437949 0.233723 -0.426146
O6    O     O_R   0.568115 0.450130 0.274119 -0.391612
N20   N     N_R   0.718075 0.110434 0.415953 0.244357
O7    O     O_R   0.683370 0.139640 0.345607 -0.355928
O8    O     O_R   0.814330 0.120975 0.448800 -0.391310
N21   N     N_R   0.962826 0.118851 0.159446 0.222561
O9    O     O_R   0.050242 0.144681 0.151018 -0.397866
O10   O     O_R   0.974347 0.163613 0.256196 -0.311936
N22   N     N_R   0.762027 0.024271 0.064925 0.226446
O11   O     O_R   0.770117 0.109956 0.137327 -0.340464
O12   O     O_R   0.665651 0.943314 0.986517 -0.384117

loop_
_geom_bond_atom_site_label_1
_geom_bond_atom_site_label_2
_geom_bond_distance
_ccdc_geom_bond_type
C33   C40   1.511676 S    
C6    C12   1.387467 A    
C43   H31   1.081582 S    
C55   N22   1.473421 S    
C51   C52   1.398886 A    
C17   H13   1.080542 S    
C44   H32   1.077562 S    
C14   C22   1.390356 A    
C56   H39   1.112430 S    
N19   O5    1.299262 A    
C19   N15   1.330569 A    
C38   C39   1.496717 S    
N18   O3    1.301829 A    
N8    Ni3   1.874678 S    
N20   O7    1.302567 A    
C32   H24   1.112540 S    
C15   N11   1.318856 A    
N2    Ni2   1.879237 S    
N21   O9    1.302065 A    
N17   O2    1.301344 A    
C16   H12   1.075931 S    
C35   H26   1.082106 S    
C39   H28   1.112597 S    
N19   O6    1.302002 A    
C50   C51   1.407665 A    
C18   C23   1.384008 A    
C25   C29   1.554165 S    
C48   H36   1.112326 S    
C3    C11   1.368506 A    
C15   C23   1.375906 A    
C1    H1    1.075344 S    
C25   H18   1.115481 S    
C7    C10   1.393406 A    
N6    Ni1   1.879552 S    
N12   N13   1.396983 A    
C53   C54   1.403186 A    
C18   N14   1.336930 A    
N22   O11   1.301330 A    
N12   Ni4   1.874676 S    
C8    C9    1.391544 A    
C20   N16   1.321867 A    
C51   H37   1.082226 S    
C27   C31   1.564240 S    
C41   C48   1.503357 S    
C27   N18   1.480070 S    
N16   Ni3   1.875159 S    
C43   C44   1.385800 A    
C5    H5    1.076768 S    
N1    Ni1   1.871743 S    
C1    C9    1.377964 A    
C17   N13   1.340360 A    
N1    N8    1.396981 A    
N9    N15   1.379107 A    
C4    N4    1.317346 A    
C54   C55   1.514371 S    
N18   O4    1.302780 A    
C9    C50   1.455011 S    
C45   C46   1.394388 A    
C32   H23   1.108841 S    
C20   C22   1.385233 A    
N5    Ni2   1.872068 S    
C49   C56   1.501829 S    
C3    H3    1.072441 S    
C23   C37   1.447100 S    
C30   C32   1.557936 S    
C41   C42   1.400132 A    
C39   C40   1.504670 S    
C28   C29   1.564415 S    
N2    N7    1.396860 A    
C36   H27   1.081887 S    
C48   H35   1.111950 S    
N9    Ni1   1.872068 S    
C26   N17   1.471471 S    
C1    N1    1.324720 A    
C15   H11   1.079809 S    
C14   N10   1.323221 A    
C25   C26   1.524988 S    
C13   H9    1.079983 S    
C19   C21   1.385099 A    
N13   Ni2   1.871742 S    
C2    C10   1.376150 A    
C19   H15   1.079843 S    
C12   C29   1.478950 S    
C20   H16   1.078101 S    
C6    N6    1.331682 A    
C37   C38   1.394054 A    
N4    Ni4   1.875159 S    
C55   N21   1.474848 S    
N3    Ni3   1.871507 S    
C33   C38   1.375270 A    
C2    N2    1.322287 A    
C47   H33   1.112086 S    
C49   C54   1.375556 A    
C13   C21   1.369405 A    
N10   Ni2   1.879549 S    
C36   C37   1.404251 A    
C5    N5    1.331472 A    
C16   C24   1.372235 A    
C18   H14   1.081076 S    
C55   C56   1.515280 S    
C4    C12   1.372145 A    
C3    N3    1.316235 A    
C11   C45   1.432109 S    
N20   O8    1.300519 A    
C7    N7    1.339616 A    
C33   C34   1.405554 A    
C17   C24   1.390218 A    
C30   C31   1.553647 S    
C39   H29   1.111915 S    
C27   N19   1.482290 S    
N7    Ni4   1.871263 S    
C56   H40   1.112146 S    
C44   C45   1.401113 A    
N15   Ni4   1.871506 S    
C49   C50   1.399495 A    
N10   N16   1.379105 A    
C10   C34   1.452979 S    
C47   C48   1.504152 S    
C14   H10   1.078340 S    
C7    H7    1.079065 S    
C52   C53   1.407346 A    
N3    N5    1.379105 A    
C13   N9    1.313652 A    
C24   C53   1.453943 S    
C52   H38   1.081253 S    
C26   H19   1.116409 S    
C16   N12   1.319299 A    
H20   C31   1.106170 S    
C22   C30   1.469774 S    
C6    H6    1.080513 S    
C28   H22   1.113260 S    
N14   Ni1   1.879237 S    
C42   C43   1.403116 A    
C35   C36   1.398150 A    
C21   C42   1.434653 S    
C8    N8    1.341200 A    
C26   C30   1.568018 S    
C41   C46   1.368264 A    
C25   H17   1.108350 S    
C4    H4    1.072383 S    
C34   C35   1.407833 A    
N11   Ni3   1.871262 S    
C2    H2    1.063983 S    
C47   H34   1.112581 S    
N22   O12   1.302211 A    
C46   C47   1.494435 S    
C40   H30   1.113398 S    
N4    N6    1.379105 A    
C28   H21   1.112170 S    
C31   H25   1.109414 S    
C8    H8    1.073344 S    
C5    C11   1.380802 A    
C27   C29   1.598455 S    
N11   N14   1.396859 A    
N17   O1    1.301247 A    
C28   C32   1.536648 S    
C40   N20   1.464571 S    
N21   O10   1.301373 A    
