data_str_m2_o41_o41_f0_fof.sym.68
_audit_creation_date              2012-10-26T17:13:08-0400
_audit_creation_method            fapswitch 2.2
_symmetry_space_group_name_H-M    P1
_symmetry_Int_Tables_number       1
_space_group_crystal_system       triclinic
_cell_length_a                    16.853107
_cell_length_b                    16.856049
_cell_length_c                    16.851453
_cell_angle_alpha                 67.521423
_cell_angle_beta                  67.520113
_cell_angle_gamma                 67.516362
_cell_volume                      3927.7229901

loop_
_atom_site_label
_atom_site_type_symbol
_atom_type_description
_atom_site_fract_x
_atom_site_fract_y
_atom_site_fract_z
_atom_type_partial_charge
C1    C     C_R   0.311488 0.000907 0.436776 0.037208
C2    C     C_R   0.679708 0.037780 0.548407 -0.044353
C3    C     C_R   0.000805 0.436673 0.311645 -0.051856
C4    C     C_R   0.036427 0.548799 0.679926 -0.044267
C5    C     C_R   0.436781 0.311490 0.000899 0.036359
C6    C     C_R   0.548440 0.679751 0.037602 -0.044905
C7    C     C_R   0.563377 0.998757 0.688613 0.037717
C8    C     C_R   0.451649 0.961951 0.320363 -0.044681
C9    C     C_R   0.688629 0.563352 0.998732 0.037968
C10   C     C_R   0.320395 0.451629 0.961871 -0.055142
C11   C     C_R   0.997666 0.689077 0.563570 0.036511
C12   C     C_R   0.961359 0.320385 0.451737 -0.041800
C13   C     C_R   0.454096 0.992279 0.449966 -0.057280
C14   C     C_R   0.550199 0.007235 0.546045 -0.057085
C15   C     C_R   0.989983 0.450669 0.454662 -0.057114
C16   C     C_R   0.004837 0.546788 0.550813 -0.051268
C17   C     C_R   0.450009 0.454105 0.992162 -0.055743
C18   C     C_R   0.546088 0.550218 0.007097 -0.056079
C19   C     C_R   0.015428 0.830960 0.569087 0.842342
C20   C     C_R   0.973248 0.171343 0.434964 0.791216
C21   C     C_R   0.830903 0.569052 0.015574 0.845418
C22   C     C_R   0.171369 0.434975 0.973244 0.768956
C23   C     C_R   0.569058 0.015573 0.830901 0.842573
C24   C     C_R   0.434984 0.973229 0.171374 0.795276
C25   C     C_R   0.430952 0.169109 0.984399 0.842202
C26   C     C_R   0.565039 0.828632 0.026707 0.795875
C27   C     C_R   0.984106 0.431039 0.169187 0.792661
C28   C     C_R   0.026553 0.565090 0.828635 0.797898
C29   C     C_R   0.169115 0.984383 0.430956 0.842043
C30   C     C_R   0.828627 0.026746 0.565025 0.796394
C31   C     C_R   0.405679 0.984265 0.402464 -0.039020
C32   C     C_R   0.597672 0.015356 0.594419 -0.038770
C33   C     C_R   0.983383 0.402600 0.405919 -0.008246
C34   C     C_R   0.013666 0.594961 0.598051 -0.039938
C35   C     C_R   0.402492 0.405676 0.984199 -0.040783
C36   C     C_R   0.594452 0.597688 0.015240 -0.038417
C37   C     C_R   0.264032 0.985986 0.391623 -0.094561
C38   C     C_R   0.731003 0.036486 0.600138 -0.113358
C39   C     C_R   0.985995 0.391569 0.264036 -0.117494
C40   C     C_R   0.035830 0.600316 0.731063 -0.114244
C41   C     C_R   0.391618 0.264022 0.986012 -0.095120
C42   C     C_R   0.600153 0.731019 0.036387 -0.113165
C43   C     C_R   0.608440 0.013866 0.736013 -0.093659
C44   C     C_R   0.399887 0.963399 0.269021 -0.113289
C45   C     C_R   0.736019 0.608426 0.013842 -0.095501
C46   C     C_R   0.269018 0.399864 0.963414 -0.118485
C47   C     C_R   0.013319 0.736221 0.608521 -0.093794
C48   C     C_R   0.963389 0.268929 0.399825 -0.115879
C49   C     C_R   0.485499 0.967176 0.730767 0.362189
C50   C     C_R   0.547332 0.943869 0.291583 0.377443
C51   C     C_R   0.966406 0.731366 0.485460 0.368258
C52   C     C_R   0.942777 0.291739 0.547470 0.373081
C53   C     C_R   0.730778 0.485428 0.967227 0.361959
C54   C     C_R   0.291672 0.547308 0.943643 0.381261
C55   C     C_R   0.269392 0.032365 0.514742 0.361452
C56   C     C_R   0.708461 0.055835 0.452718 0.377543
C57   C     C_R   0.514726 0.269410 0.032392 0.361221
C58   C     C_R   0.452768 0.708543 0.055535 0.379140
C59   C     C_R   0.030306 0.516188 0.270060 0.354150
C60   C     C_R   0.054279 0.453163 0.708643 0.377726
C61   C     C_R   0.308762 0.969800 0.307944 -0.270337
C62   C     C_R   0.692068 0.030144 0.691256 -0.269127
C63   C     C_R   0.970110 0.307773 0.308626 -0.242322
C64   C     C_R   0.029740 0.691352 0.692089 -0.269209
C65   C     C_R   0.307923 0.308740 0.969867 -0.269626
C66   C     C_R   0.691256 0.692062 0.030091 -0.268388
C67   C     C_R   0.672080 0.025547 0.410908 0.084695
C68   C     C_R   0.320343 0.013855 0.572586 -0.016117
C69   C     C_R   0.023492 0.411558 0.672531 0.083069
C70   C     C_R   0.011061 0.573506 0.321024 0.072044
C71   C     C_R   0.411023 0.672177 0.025160 0.081733
C72   C     C_R   0.572564 0.320344 0.013904 -0.015834
C73   C     C_R   0.589170 0.974086 0.327998 0.084532
C74   C     C_R   0.427663 0.985546 0.679861 -0.016427
C75   C     C_R   0.328138 0.589216 0.973731 0.086732
C76   C     C_R   0.679852 0.427619 0.985614 -0.016347
C77   C     C_R   0.972335 0.328489 0.589559 0.082685
C78   C     C_R   0.984387 0.680398 0.427850 -0.013890
C79   C     C_R   0.714690 0.015491 0.323971 -0.191489
C80   C     C_R   0.281947 0.009421 0.663974 -0.192691
C81   C     C_R   0.013673 0.324552 0.715068 -0.191648
C82   C     C_R   0.009899 0.663949 0.281943 -0.124959
C83   C     C_R   0.324162 0.714837 0.014929 -0.187442
C84   C     C_R   0.663924 0.281928 0.009564 -0.192536
C85   C     C_R   0.676073 0.984196 0.285351 -0.191303
C86   C     C_R   0.336303 0.989899 0.718305 -0.193139
C87   C     C_R   0.285569 0.676190 0.983641 -0.163185
C88   C     C_R   0.718263 0.336253 0.990054 -0.192549
C89   C     C_R   0.982520 0.285833 0.676431 -0.189805
C90   C     C_R   0.990448 0.718486 0.336086 -0.239094
C91   C     C_R   0.544037 0.991703 0.411000 -0.008060
C92   C     C_R   0.463325 0.998433 0.587654 0.035658
C93   C     C_R   0.989380 0.411737 0.544616 -0.007452
C94   C     C_R   0.995938 0.588426 0.463950 0.034134
C95   C     C_R   0.411092 0.544073 0.991453 -0.010903
C96   C     C_R   0.587668 0.463317 0.998400 0.035487
C97   C     C_R   0.589129 0.007846 0.456084 -0.007882
C98   C     C_R   0.412534 0.000990 0.536883 0.035624
C99   C     C_R   0.456171 0.589181 0.007579 -0.008554
C100  C     C_R   0.536893 0.412535 0.000955 0.036047
C101  C     C_R   0.005376 0.456867 0.589763 -0.006221
C102  C     C_R   0.997994 0.537818 0.413257 -0.001414
Cu1   Cu    Cu3+1 0.995180 0.995180 0.424630 1.011416
Cu2   Cu    Cu3+1 0.004820 0.004820 0.575370 1.011708
Cu3   Cu    Cu3+1 0.995180 0.424630 0.995180 1.009742
Cu4   Cu    Cu3+1 0.004820 0.575370 0.004820 1.017241
Cu5   Cu    Cu3+1 0.424630 0.995180 0.995180 1.010915
Cu6   Cu    Cu3+1 0.575370 0.004820 0.004820 1.011854
H1    H     H_    0.271150 0.965187 0.270938 0.192355
H2    H     H_    0.729023 0.034889 0.728837 0.192245
H3    H     H_    0.965785 0.270706 0.270904 0.189704
H4    H     H_    0.034930 0.728768 0.728925 0.192084
H5    H     H_    0.270901 0.271122 0.965308 0.193080
H6    H     H_    0.728825 0.729002 0.034863 0.192188
O1    O     O_R   0.124540 0.978640 0.385460 -0.600861
O2    O     O_R   0.875460 0.021360 0.614540 -0.584676
O3    O     O_R   0.978640 0.385460 0.124540 -0.590657
O4    O     O_R   0.021360 0.614540 0.875460 -0.582087
O5    O     O_R   0.385460 0.124540 0.978640 -0.601377
O6    O     O_R   0.614540 0.875460 0.021360 -0.584604
O7    O     O_R   0.614540 0.021360 0.875460 -0.600837
O8    O     O_R   0.385460 0.978640 0.124540 -0.585097
O9    O     O_R   0.875460 0.614540 0.021360 -0.596507
O10   O     O_R   0.124540 0.385460 0.978640 -0.581591
O11   O     O_R   0.021360 0.875460 0.614540 -0.600813
O12   O     O_R   0.978640 0.124540 0.385460 -0.585722
O13   O     O_R   0.013780 0.867370 0.487190 -0.534686
O14   O     O_R   0.986220 0.132630 0.512810 -0.525943
O15   O     O_R   0.867370 0.487190 0.013780 -0.533701
O16   O     O_R   0.132630 0.512810 0.986220 -0.536512
O17   O     O_R   0.487190 0.013780 0.867370 -0.534898
O18   O     O_R   0.512810 0.986220 0.132630 -0.526724
O19   O     O_R   0.512810 0.132630 0.986220 -0.534281
O20   O     O_R   0.487190 0.867370 0.013780 -0.526933
O21   O     O_R   0.986220 0.512810 0.132630 -0.546247
O22   O     O_R   0.013780 0.487190 0.867370 -0.526154
O23   O     O_R   0.132630 0.986220 0.512810 -0.534555
O24   O     O_R   0.867370 0.013780 0.487190 -0.526373
H7    H     H_    0.305917 0.983211 0.789119 0.145700
H8    H     H_    0.712188 0.972373 0.220383 0.180671
H9    H     H_    0.985614 0.788933 0.305320 0.151614
H10   H     H_    0.971058 0.220721 0.712411 0.180508
H11   H     H_    0.789058 0.305843 0.983440 0.145748
H12   H     H_    0.220665 0.712342 0.971688 0.182909
H13   H     H_    0.211145 0.016086 0.694389 0.145870
H14   H     H_    0.779617 0.027380 0.287819 0.180609
H15   H     H_    0.694320 0.211126 0.016292 0.145895
H16   H     H_    0.288049 0.779814 0.026694 0.179949
H17   H     H_    0.019549 0.693279 0.210605 0.172942
H18   H     H_    0.025835 0.288327 0.779880 0.180539
O25   O     O_3   0.477040 0.905374 0.814049 -0.706276
H19   H     H_    0.430850 0.876306 0.826134 0.319320
O26   O     O_3   0.602124 0.887117 0.238747 -0.718263
H20   H     H_    0.568152 0.847833 0.243715 0.311797
O27   O     O_3   0.905122 0.814932 0.476525 -0.706117
H21   H     H_    0.876599 0.827358 0.429778 0.320534
O28   O     O_3   0.886238 0.238637 0.602008 -0.717634
H22   H     H_    0.847249 0.243394 0.567813 0.311800
O29   O     O_3   0.814065 0.476907 0.905426 -0.706602
H23   H     H_    0.826169 0.430655 0.876428 0.319861
O30   O     O_3   0.238799 0.602015 0.886900 -0.716387
H24   H     H_    0.243724 0.567977 0.847691 0.313727
O31   O     O_3   0.186169 0.094267 0.523245 -0.707242
H25   H     H_    0.174124 0.123210 0.569529 0.319781
O32   O     O_3   0.761204 0.112657 0.397890 -0.718370
H26   H     H_    0.756174 0.151992 0.431843 0.311735
O33   O     O_3   0.523237 0.186193 0.094282 -0.707271
H27   H     H_    0.569400 0.174207 0.123352 0.319853
O34   O     O_3   0.397872 0.761243 0.112393 -0.716611
H28   H     H_    0.431754 0.756161 0.151827 0.311852
O35   O     O_3   0.091716 0.530867 0.187242 -0.706107
H29   H     H_    0.124738 0.472308 0.174199 0.323199
O36   O     O_3   0.111598 0.398152 0.760839 -0.717984
H30   H     H_    0.151209 0.431976 0.755460 0.312523

loop_
_geom_bond_atom_site_label_1
_geom_bond_atom_site_label_2
_ccdc_geom_bond_type
C68   C80   A    
C83   C87   A    
O35   H29   S    
C9    C45   A    
O28   H22   S    
C30   O24   A    
C18   C96   A    
O34   H28   S    
Cu6   O6    S    
C11   C47   A    
O31   H25   S    
C79   C85   A    
Cu6   O7    S    
C12   C48   A    
C61   H1    S    
O30   H24   S    
C75   C95   A    
C23   O7    A    
C30   O2    A    
O36   H30   S    
C78   C90   A    
C77   C89   A    
O32   H26   S    
C17   C35   A    
C26   O6    A    
C20   O14   A    
Cu5   O20   S    
C12   C33   A    
C19   C47   S    
C58   C71   A    
C64   H4    S    
C28   C40   S    
C50   O26   S    
C81   H18   S    
C96   C100  A    
C1    C31   A    
C22   O16   A    
C23   C43   S    
Cu2   O23   S    
C30   C38   S    
C2    C32   A    
C74   C92   A    
C13   C98   A    
Cu1   O12   S    
C24   O18   A    
C80   C86   A    
Cu1   Cu2   S    
C16   C34   A    
Cu2   O2    S    
Cu2   O11   S    
C4    C40   A    
C27   C39   S    
C21   O15   A    
C62   H2    S    
C56   O32   S    
C10   C46   A    
C9    C36   A    
Cu5   Cu6   S    
C10   C35   A    
C17   C95   A    
C7    C43   A    
C87   H12   S    
C25   O19   A    
C10   C54   A    
C76   C88   A    
C88   H11   S    
C71   C83   A    
C1    C37   A    
C81   C89   A    
C29   O1    A    
C73   C91   A    
C3    C39   A    
C57   C72   A    
C13   C91   A    
C60   O36   S    
Cu3   O3    S    
C59   O35   S    
C25   O5    A    
Cu5   O5    S    
C12   C52   A    
C55   C68   A    
C79   H14   S    
C21   C45   S    
C27   O3    A    
C4    C34   A    
C53   O29   S    
C49   O25   S    
C92   C98   A    
C90   H9    S    
C69   C81   A    
C8    C44   A    
C58   O34   S    
C67   C79   A    
C7    C49   A    
C46   C65   A    
Cu5   O17   S    
Cu1   O24   S    
C93   C101  A    
O33   H27   S    
C48   C63   A    
C41   C65   A    
C71   C99   A    
C29   O23   A    
C19   O11   A    
C91   C97   A    
C83   H16   S    
Cu3   O10   S    
Cu4   O9    S    
Cu1   O1    S    
C20   O12   A    
C26   O20   A    
C2    C38   A    
O29   H23   S    
Cu2   O14   S    
O25   H19   S    
C51   O27   S    
C4    C60   A    
C24   O8    A    
C23   O17   A    
C20   C48   S    
C74   C86   A    
C85   H8    S    
C73   C85   A    
C72   C84   A    
C86   H7    S    
Cu3   O22   S    
C75   C87   A    
Cu4   O21   S    
C22   C46   S    
C14   C92   A    
Cu3   O15   S    
C24   C44   S    
C50   C73   A    
C53   C76   A    
C9    C53   A    
C18   C99   A    
C25   C41   S    
C52   C77   A    
C8    C50   A    
C47   C64   A    
Cu1   O13   S    
C26   C42   S    
C14   C97   A    
C72   C100  A    
C84   H15   S    
C52   O28   S    
Cu4   O16   S    
C5    C41   A    
C80   H13   S    
C7    C32   A    
C66   H6    S    
C28   O22   A    
C8    C31   A    
C65   H5    S    
C13   C31   A    
C11   C34   A    
C15   C102  A    
C84   C88   A    
C14   C32   A    
C82   C90   A    
C15   C93   A    
C37   C61   A    
C70   C102  A    
C22   O10   A    
C57   O33   S    
C69   C101  A    
C44   C61   A    
C56   C67   A    
C39   C63   A    
Cu3   Cu4   S    
C16   C94   A    
C40   C64   A    
C5    C57   A    
C27   O21   A    
C1    C55   A    
C51   C78   A    
C55   O31   S    
Cu6   O19   S    
C2    C56   A    
C76   C96   A    
C60   C69   A    
C78   C94   A    
C5    C35   A    
C77   C93   A    
C6    C36   A    
C95   C99   A    
C6    C58   A    
C54   O30   S    
C63   H3    S    
C70   C82   A    
C17   C100  A    
C68   C98   A    
Cu6   O18   S    
C82   H17   S    
C11   C51   A    
C67   C97   A    
C59   C70   A    
C54   C75   A    
C16   C101  A    
C94   C102  A    
C6    C42   A    
C29   C37   S    
C45   C66   A    
C42   C66   A    
C3    C33   A    
C49   C74   A    
C28   O4    A    
C21   O9    A    
C19   O13   A    
Cu5   O8    S    
O26   H20   S    
O27   H21   S    
C18   C36   A    
C15   C33   A    
Cu4   O4    S    
C89   H10   S    
C43   C62   A    
C38   C62   A    
C3    C59   A    
