data_str_m2_o10_o29_f0_pcu.sym.194
_audit_creation_date              2012-12-10T16:51:16-0500
_audit_creation_method            fapswitch 2.2
_symmetry_space_group_name_H-M    P1
_symmetry_Int_Tables_number       1
_space_group_crystal_system       triclinic
_cell_length_a                    27.754054
_cell_length_b                    8.663301
_cell_length_c                    7.469051
_cell_angle_alpha                 103.135372
_cell_angle_beta                  94.342619
_cell_angle_gamma                 92.840583
_cell_volume                      1739.73631291

loop_
_atom_site_label
_atom_site_type_symbol
_atom_type_description
_atom_site_fract_x
_atom_site_fract_y
_atom_site_fract_z
_atom_type_partial_charge
C1    C     C_R   0.498585 0.199697 0.453071 0.881464
C2    C     C_R   0.501458 0.800308 0.546920 0.872366
C3    C     C_R   0.102167 0.503489 0.498747 -0.052890
C4    C     C_R   0.898321 0.498600 0.491394 -0.052989
C5    C     C_R   0.124226 0.371565 0.400055 -0.124656
C6    C     C_R   0.875704 0.640860 0.550127 -0.121394
C7    C     C_R   0.095354 0.240701 0.295129 -0.181723
C8    C     C_R   0.903826 0.784765 0.603840 -0.192225
C9    C     C_R   0.131362 0.636278 0.602055 -0.015882
C10   C     C_R   0.869756 0.354255 0.433068 -0.021178
C11   C     C_R   0.354911 0.493931 0.505187 -0.123565
C12   C     C_R   0.645342 0.506623 0.495277 -0.125773
C13   C     C_R   0.971491 0.357816 0.419238 0.088517
C14   C     C_R   0.029172 0.641158 0.582842 0.087057
C15   C     C_R   0.978010 0.645286 0.562341 -0.075914
C16   C     C_R   0.022104 0.363341 0.401790 -0.072881
C17   C     C_R   0.949441 0.500638 0.490943 0.002389
C18   C     C_R   0.050978 0.502638 0.494304 0.006099
C19   C     C_R   0.942209 0.213822 0.373076 -0.060900
C20   C     C_R   0.059380 0.768668 0.693821 -0.103142
C21   C     C_R   0.892239 0.212358 0.378383 -0.153426
C22   C     C_R   0.109532 0.766573 0.702146 -0.154487
C23   C     C_R   0.407667 0.496678 0.501592 0.854702
C24   C     C_R   0.592419 0.503636 0.498508 0.847330
C25   C     C_R   0.045159 0.236294 0.293750 0.593867
C26   C     C_R   0.954054 0.788221 0.608093 0.584248
C27   C     C_2   0.497903 0.031519 0.426885 -0.285781
C28   C     C_2   0.502152 0.968486 0.573099 -0.289016
C29   C     C_R   0.174909 0.375197 0.405329 0.606310
C30   C     C_R   0.825118 0.636288 0.550152 0.596174
C31   C     C_R   0.181948 0.634213 0.605287 0.632294
C32   C     C_R   0.819190 0.355203 0.432823 0.644769
C33   C     C_R   0.279763 0.599802 0.416091 0.688428
C34   C     C_R   0.721427 0.417946 0.604754 0.687149
C35   C     C_R   0.329750 0.594304 0.413637 -0.312456
C36   C     C_R   0.671388 0.422956 0.606460 -0.312718
C37   C     C_R   0.329125 0.395239 0.598352 -0.065205
C38   C     C_R   0.670458 0.589149 0.383103 -0.073636
C39   C     C_R   0.279010 0.404891 0.603083 -0.254137
C40   C     C_R   0.720416 0.577277 0.376702 -0.244237
C41   C     C_R   0.254290 0.505271 0.511126 0.227938
C42   C     C_R   0.746117 0.494228 0.488764 0.222338
Cu1   Cu    Cu3+1 0.505380 0.517380 0.684380 1.142940
Cu2   Cu    Cu3+1 0.494620 0.482620 0.315620 1.144434
H1    H     H_    0.258588 0.330071 0.672916 0.177554
H2    H     H_    0.740045 0.638994 0.290690 0.180914
H3    H     H_    0.111504 0.140956 0.211361 0.211700
H4    H     H_    0.886997 0.896507 0.640735 0.217402
H5    H     H_    0.652838 0.360780 0.694670 0.189260
H6    H     H_    0.349014 0.669461 0.340942 0.187737
H7    H     H_    0.871312 0.099005 0.340177 0.195654
H8    H     H_    0.131141 0.867681 0.788245 0.201323
H9    H     H_    0.957237 0.099478 0.340178 0.233133
H10   H     H_    0.045153 0.868733 0.782893 0.238168
H11   H     H_    0.493900 0.959334 0.286297 0.207292
H12   H     H_    0.506150 0.040674 0.713687 0.206866
N1    N     N_R   0.202581 0.505086 0.507265 -0.448140
N2    N     N_R   0.797924 0.494942 0.491152 -0.449119
N3    N     N_2   0.486510 0.456430 0.038510 0.225835
N4    N     N_2   0.513490 0.543570 0.961490 0.223902
O1    O     O_R   0.503500 0.286120 0.619780 -0.535668
O2    O     O_R   0.496500 0.713880 0.380220 -0.535514
O3    O     O_R   0.494410 0.256780 0.308360 -0.574070
O4    O     O_R   0.505590 0.743220 0.691640 -0.573075
O5    O     O_R   0.434810 0.514700 0.655690 -0.541246
O6    O     O_R   0.565190 0.485300 0.344310 -0.546126
O7    O     O_R   0.425720 0.485350 0.344280 -0.581953
O8    O     O_R   0.574280 0.514650 0.655720 -0.587359
O9    O     O_2   0.196425 0.250323 0.308707 -0.504837
O10   O     O_2   0.803264 0.771955 0.610132 -0.500457
O11   O     O_2   0.791462 0.217959 0.372811 -0.482718
O12   O     O_2   0.210317 0.759730 0.705957 -0.489981
C43   C     C_2   0.351840 0.273878 0.682054 0.498883
H13   H     H_    0.334436 0.231027 0.788570 0.086144
O13   O     O_2   0.388491 0.214219 0.627097 -0.509118
C44   C     C_2   0.647299 0.698974 0.282864 0.509624
H14   H     H_    0.661857 0.719600 0.158797 0.080129
O14   O     O_2   0.613904 0.775145 0.343817 -0.496903
F1    F     F_    0.459236 0.338281 0.924152 -0.533185
F2    F     F_    0.540047 0.663480 0.075619 -0.534232
F3    F     F_    0.745980 0.340557 0.717761 -0.625764
F4    F     F_    0.255970 0.695642 0.324186 -0.623877
F5    F     F_    0.019947 0.112787 0.172996 -0.667516
F6    F     F_    0.977982 0.933672 0.641942 -0.671266

loop_
_geom_bond_atom_site_label_1
_geom_bond_atom_site_label_2
_ccdc_geom_bond_type
C8    C26   A    
C43   H13   S    
C14   C18   A    
Cu2   O6    S    
C34   C42   A    
C32   N2    A    
C42   N2    S    
C28   H12   S    
C39   C41   A    
C38   C44   S    
C40   H2    S    
C19   C21   A    
C44   O14   D    
C27   H11   S    
C9    C22   A    
Cu2   N3    S    
C3    C18   A    
C23   O7    A    
C11   C37   A    
Cu1   O8    S    
C34   F3    S    
C12   C36   A    
C33   F4    S    
C29   O9    S    
C24   O6    A    
C39   H1    S    
C1    C27   S    
C19   H9    S    
C40   C42   A    
N3    N4    D    
Cu2   O3    S    
C43   O13   D    
C1    O3    A    
C30   O10   S    
C2    O4    A    
Cu1   O4    S    
C32   O11   S    
C5    C29   A    
C10   C21   A    
C13   C19   A    
C14   C20   A    
C44   H14   S    
C20   H10   S    
N3    F1    S    
C5    C7    A    
C9    C31   A    
C15   C26   A    
C6    C8    A    
Cu2   O2    S    
C7    H3    S    
Cu1   Cu2   S    
C8    H4    S    
C3    C9    A    
Cu1   O5    S    
C35   H6    S    
Cu1   N4    S    
C4    C17   A    
C4    C6    A    
C31   O12   S    
C6    C30   A    
C29   N1    A    
C4    C10   A    
C21   H7    S    
Cu1   O1    S    
C22   H8    S    
C16   C25   A    
C15   C17   A    
C37   C43   S    
N4    F2    S    
C26   F6    S    
C20   C22   A    
C3    C5    A    
C1    O1    A    
C12   C24   S    
C7    C25   A    
C13   C17   A    
C33   C41   A    
C23   O5    A    
C11   C35   A    
C41   N1    S    
C37   C39   A    
C38   C40   A    
C31   N1    A    
C30   N2    A    
C11   C23   S    
C33   C35   A    
C34   C36   A    
C12   C38   A    
C24   O8    A    
C10   C32   A    
C16   C18   A    
C13   C16   A    
C27   C28   D    
C25   F5    S    
C14   C15   A    
Cu2   O7    S    
C2    C28   S    
C36   H5    S    
C2    O2    A    
