data_str_m2_o4_o9_f0_pcu.sym.19
_audit_creation_date              2012-10-26T19:00:09-0400
_audit_creation_method            fapswitch 2.2
_symmetry_space_group_name_H-M    P1
_symmetry_Int_Tables_number       1
_space_group_crystal_system       triclinic
_cell_length_a                    10.870956
_cell_length_b                    10.853861
_cell_length_c                    9.539894
_cell_angle_alpha                 89.783979
_cell_angle_beta                  90.393746
_cell_angle_gamma                 90.007557
_cell_volume                      1125.59511133

loop_
_atom_site_label
_atom_site_type_symbol
_atom_type_description
_atom_site_fract_x
_atom_site_fract_y
_atom_site_fract_z
_atom_type_partial_charge
C1    C     C_R   0.494912 0.262067 0.499479 0.564276
C2    C     C_R   0.899848 0.417588 0.013301 -0.134134
C3    C     C_R   0.807246 0.329678 0.022545 -0.101619
C4    C     C_R   0.262593 0.502301 0.499087 0.549292
C5    C     C_R   0.758301 0.278262 0.900885 -0.099822
C6    C     C_R   0.801591 0.314420 0.768629 -0.049895
C7    C     C_R   0.891610 0.406848 0.757908 0.039608
C8    C     C_R   0.463778 0.062711 0.621071 0.000590
C9    C     C_R   0.476975 0.128757 0.496326 0.011575
C10   C     C_R   0.469669 0.063504 0.368407 0.331547
C11   C     C_R   0.469483 0.934834 0.369249 -0.129389
C12   C     C_R   0.234227 0.774711 0.069571 -0.100857
C13   C     C_R   0.476525 0.870121 0.496876 -0.054531
C14   C     C_R   0.463644 0.935370 0.621307 -0.001344
C15   C     C_3   0.541655 0.928433 0.749741 -0.266428
C16   C     C_R   0.494757 0.737568 0.499366 0.546674
C17   C     C_3   0.542305 0.067307 0.749234 -0.245475
C18   C     C_R   0.544806 0.598721 0.073789 0.137688
C19   C     C_R   0.441286 0.410493 0.074584 0.032633
C20   C     C_R   0.440522 0.410764 0.925764 0.453866
C21   C     C_R   0.544737 0.598931 0.926430 0.096717
C22   C     C_3   0.672147 0.649266 0.922985 -0.274029
C23   C     C_R   0.933326 0.550558 0.391552 -0.156521
C24   C     C_3   0.671641 0.649181 0.081870 -0.264507
C25   C     C_R   0.738039 0.497108 0.501476 0.529565
C26   C     C_R   0.194612 0.829587 0.193661 -0.108054
C27   C     C_R   0.137204 0.758445 0.296797 -0.094802
C28   C     C_R   0.119425 0.631663 0.276405 0.045038
C29   C     C_R   0.160080 0.576946 0.151839 -0.072979
C30   C     C_R   0.216572 0.648591 0.048504 -0.117041
C31   C     C_R   0.872504 0.495560 0.505112 -0.001065
C32   C     C_R   0.942261 0.448009 0.620397 -0.031422
C33   C     C_R   0.069773 0.447520 0.610324 -0.148729
C34   C     C_R   0.129249 0.501943 0.497143 -0.001115
C35   C     C_R   0.060959 0.556788 0.387651 -0.034946
C36   C     C_R   0.941754 0.456446 0.882388 -0.116365
Cu1   Cu    Cu3+1 0.499990 0.499980 0.640670 1.004339
Cu2   Cu    Cu3+1 0.500010 0.500020 0.359330 0.970058
F1    F     F_    0.471742 0.122224 0.242587 -0.650940
F2    F     F_    0.378585 0.320921 0.857051 -0.640727
H1    H     H_    0.278887 0.829800 0.989951 0.119458
H2    H     H_    0.737659 0.582978 0.128607 0.152471
H3    H     H_    0.673686 0.743127 0.127831 0.130082
H4    H     H_    0.107364 0.801808 0.392818 0.106046
H5    H     H_    0.247508 0.606185 0.952510 0.117436
H6    H     H_    0.881189 0.594869 0.308543 0.117051
H7    H     H_    0.123788 0.406298 0.694347 0.167146
H8    H     H_    0.011900 0.527165 0.877977 0.114255
H9    H     H_    0.936723 0.457594 0.107882 0.112031
H10   H     H_    0.764651 0.271856 0.675018 0.105323
H11   H     H_    0.471573 0.886711 0.270003 0.157931
H12   H     H_    0.773189 0.301490 0.124120 0.145271
H13   H     H_    0.492070 0.887661 0.840302 0.145458
H14   H     H_    0.208660 0.927215 0.210090 0.136617
H15   H     H_    0.150326 0.478722 0.136018 0.114147
H16   H     H_    0.686886 0.210413 0.911559 0.123312
H17   H     H_    0.633881 0.889562 0.727217 0.133138
H18   H     H_    0.494039 0.108010 0.840278 0.214981
H19   H     H_    0.634542 0.104715 0.725059 0.112350
H20   H     H_    0.394650 0.337565 0.130435 0.191406
H21   H     H_    0.737807 0.584006 0.876525 0.176347
H22   H     H_    0.677080 0.743230 0.879196 0.118426
N1    N     N_R   0.500790 0.500930 0.147930 -0.274325
N2    N     N_R   0.500790 0.500890 0.852020 -0.227280
O1    O     O_R   0.500000 0.319640 0.618810 -0.453825
O2    O     O_R   0.500010 0.319680 0.381230 -0.453569
O3    O     O_R   0.319640 0.499990 0.618790 -0.479936
O4    O     O_R   0.319650 0.500030 0.381210 -0.502208
O5    O     O_R   0.499990 0.680320 0.618770 -0.503615
O6    O     O_R   0.500000 0.680360 0.381190 -0.506971
O7    O     O_R   0.680350 0.499970 0.618790 -0.510703
O8    O     O_R   0.680360 0.500010 0.381210 -0.514979

loop_
_geom_bond_atom_site_label_1
_geom_bond_atom_site_label_2
_ccdc_geom_bond_type
C20   N2    A    
C4    O3    A    
C1    O1    A    
C3    H12   S    
Cu2   O6    S    
C25   C31   S    
C29   C30   A    
C25   O7    A    
C2    H9    S    
Cu1   O5    S    
C19   H20   S    
C22   H22   S    
C18   C21   A    
C24   H2    S    
C9    C10   A    
C5    H16   S    
C29   H15   S    
C8    C17   S    
C17   H18   S    
C32   C33   A    
C19   C20   A    
C2    C3    A    
C1    C9    S    
C23   H6    S    
C21   C22   S    
C6    H10   S    
C22   H21   S    
C15   H17   S    
C26   C27   A    
Cu1   Cu2   S    
C17   H19   S    
C34   C35   A    
C33   H7    S    
Cu1   O3    S    
C22   C24   S    
Cu1   O1    S    
C28   C29   A    
C33   C34   A    
Cu2   O4    S    
C36   H8    S    
C6    C7    A    
C23   C35   A    
Cu1   O7    S    
C4    C34   S    
C5    C6    A    
C20   F2    S    
Cu2   O8    S    
C18   N1    A    
C11   H11   S    
C10   C11   A    
C16   O5    A    
C2    C36   A    
C23   C31   A    
C15   H13   S    
C26   H14   S    
C11   C13   A    
Cu1   N2    S    
C16   O6    A    
C18   C24   S    
C15   C17   S    
Cu2   N1    S    
C7    C36   A    
C13   C16   S    
C12   C26   A    
C27   C28   A    
C25   O8    A    
C24   H3    S    
C14   C15   S    
C8    C9    A    
C21   N2    A    
C8    C14   A    
C7    C32   S    
C30   H5    S    
C12   C30   A    
C13   C14   A    
C4    O4    A    
C27   H4    S    
C31   C32   A    
C12   H1    S    
Cu2   O2    S    
C28   C35   S    
C19   N1    A    
C10   F1    S    
C3    C5    A    
C1    O2    A    
