data_str_m3_o10_o18_f0_pcu.sym.75
_audit_creation_date              2012-12-10T16:52:40-0500
_audit_creation_method            fapswitch 2.2
_symmetry_space_group_name_H-M    P1
_symmetry_Int_Tables_number       1
_space_group_crystal_system       triclinic
_cell_length_a                    7.933935
_cell_length_b                    8.553946
_cell_length_c                    14.017222
_cell_angle_alpha                 94.040292
_cell_angle_beta                  93.971992
_cell_angle_gamma                 94.168658
_cell_volume                      943.774897161

loop_
_atom_site_label
_atom_site_type_symbol
_atom_type_description
_atom_site_fract_x
_atom_site_fract_y
_atom_site_fract_z
_atom_type_partial_charge
C1    C     C_R   0.044684 0.794126 0.497630 0.933366
C2    C     C_R   0.932002 0.473496 0.319042 0.899859
C3    C     C_R   0.113410 0.566104 0.784304 -0.248196
C4    C     C_R   0.886529 0.433472 0.215740 -0.248264
C5    C     C_R   0.057788 0.663249 0.945245 -0.240160
C6    C     C_R   0.941947 0.335859 0.054852 -0.240036
C7    C     C_R   0.005744 0.636685 0.847708 0.367656
C8    C     C_R   0.994149 0.362774 0.152357 0.367503
C9    C     C_R   0.280680 0.549611 0.818783 0.267673
C10   C     C_R   0.719155 0.449548 0.181327 0.267534
C11   C     C_R   0.320699 0.544051 0.916469 -0.001115
C12   C     C_R   0.955315 0.205874 0.502369 0.933383
C13   C     C_R   0.678928 0.454833 0.083650 -0.000921
C14   C     C_R   0.213492 0.614540 0.980350 0.035017
C15   C     C_R   0.786120 0.384341 0.019764 0.035079
C16   C     C_R   0.472947 0.484549 0.951184 0.099828
C17   C     C_R   0.526556 0.514140 0.048969 0.099903
C18   C     C_R   0.429073 0.605959 0.108930 -0.081871
C19   C     C_R   0.570354 0.392606 0.891246 -0.082092
C20   C     C_R   0.270550 0.648068 0.076266 -0.139151
C21   C     C_R   0.728938 0.350598 0.923882 -0.138993
C22   C     C_2   0.067666 0.958149 0.496386 -0.314510
C23   C     C_2   0.932331 0.041850 0.503612 -0.314504
C24   C     C_R   0.067992 0.526414 0.680968 0.899892
Cl1   Cl    Cl    0.553568 0.378648 0.248556 -0.472229
Cl2   Cl    Cl    0.446661 0.619931 0.751614 -0.472330
Cl3   Cl    Cl    0.172665 0.272214 0.193845 -0.499841
Cl4   Cl    Cl    0.827382 0.727530 0.806259 -0.499671
Cl5   Cl    Cl    0.481176 0.261618 0.457586 -0.397703
Cl6   Cl    Cl    0.518724 0.738320 0.542666 -0.397823
H1    H     H_    0.195240 0.711482 0.125290 0.159322
H2    H     H_    0.804217 0.287135 0.874864 0.159457
H3    H     H_    0.978149 0.723931 0.993087 0.184717
H4    H     H_    0.021566 0.275119 0.007026 0.184722
H5    H     H_    0.473854 0.645336 0.181882 0.187612
H6    H     H_    0.525476 0.353099 0.818326 0.187602
H7    H     H_    0.195340 0.009352 0.489587 0.235435
H8    H     H_    0.804657 0.990647 0.510410 0.235390
N1    N     N_2   0.440860 0.456490 0.474790 0.168627
N2    N     N_2   0.559140 0.543510 0.525210 0.168718
O1    O     O_R   0.891570 0.738930 0.506190 -0.586423
O2    O     O_R   0.108430 0.261070 0.493810 -0.586342
O3    O     O_R   0.174650 0.711050 0.490030 -0.576433
O4    O     O_R   0.825350 0.288950 0.509970 -0.576340
O5    O     O_R   0.909850 0.521900 0.644940 -0.564967
O6    O     O_R   0.090150 0.478100 0.355060 -0.565149
O7    O     O_R   0.192930 0.494020 0.628780 -0.569864
O8    O     O_R   0.807070 0.505980 0.371220 -0.570121
Zn1   Zn    Zn3+2 0.810990 0.518620 0.510790 1.153400
Zn2   Zn    Zn3+2 0.189010 0.481380 0.489210 1.153353

loop_
_geom_bond_atom_site_label_1
_geom_bond_atom_site_label_2
_ccdc_geom_bond_type
O4    Zn1   S    
C2    C4    S    
C10   C13   A    
O3    Zn2   S    
C3    C9    A    
O5    Zn1   S    
C23   H8    S    
C11   C16   A    
O6    Zn2   S    
C18   C20   A    
C13   C17   A    
C4    C8    A    
Cl5   N1    S    
C22   H7    S    
C17   C18   A    
C5    C14   A    
Cl6   N2    S    
C1    C22   S    
C12   O4    A    
C2    O6    A    
C9    C11   A    
C12   C23   S    
C3    C24   S    
O2    Zn2   S    
C16   C19   A    
C6    C8    A    
C24   O5    A    
C10   Cl1   S    
O1    Zn1   S    
O8    Zn1   S    
C21   H2    S    
C9    Cl2   S    
O7    Zn2   S    
C3    C7    A    
C19   H6    S    
C13   C15   A    
C11   C14   A    
C4    C10   A    
N2    Zn1   S    
C14   C20   A    
C15   C21   A    
N1    Zn2   S    
C18   H5    S    
C1    O1    A    
N1    N2    D    
C5    C7    A    
C8    Cl3   S    
C22   C23   D    
C12   O2    A    
C2    O8    A    
C6    C15   A    
C24   O7    A    
C1    O3    A    
C7    Cl4   S    
C6    H4    S    
C16   C17   A    
C19   C21   A    
C20   H1    S    
C5    H3    S    
