data_str_m9_o18_o27_f0_sra.sym.67
_audit_creation_date              2012-12-11T15:33:47-0500
_audit_creation_method            fapswitch 2.2
_symmetry_space_group_name_H-M    P1
_symmetry_Int_Tables_number       1
_space_group_crystal_system       triclinic
_cell_length_a                    27.015502
_cell_length_b                    7.200351
_cell_length_c                    22.801086
_cell_angle_alpha                 89.999522
_cell_angle_beta                  101.398438
_cell_angle_gamma                 89.999979
_cell_volume                      4347.81304942

loop_
_atom_site_label
_atom_site_type_symbol
_atom_type_description
_atom_site_fract_x
_atom_site_fract_y
_atom_site_fract_z
_atom_type_partial_charge
O1    O     O_R   0.207310 0.594030 0.676830 -0.534411
O2    O     O_R   0.792690 0.405970 0.323170 -0.529544
O3    O     O_R   0.292690 0.094030 0.823170 -0.534411
O4    O     O_R   0.707310 0.905970 0.176830 -0.529543
O5    O     O_R   0.197320 0.262370 0.795700 -0.541845
O6    O     O_R   0.802680 0.737630 0.204300 -0.543495
O7    O     O_R   0.302680 0.762370 0.704300 -0.541844
O8    O     O_R   0.697320 0.237630 0.295700 -0.543494
C1    C     C_R   0.185227 0.431602 0.812712 0.678968
C2    C     C_R   0.814754 0.568392 0.187272 0.678994
C3    C     C_R   0.314773 0.931603 0.687288 0.678967
C4    C     C_R   0.685246 0.068391 0.312728 0.678993
O9    O     O_R   0.201410 0.264250 0.675590 -0.531701
O10   O     O_R   0.798590 0.735750 0.324410 -0.533951
O11   O     O_R   0.298590 0.764250 0.824410 -0.531702
O12   O     O_R   0.701410 0.235750 0.175590 -0.533950
O13   O     O_R   0.296810 0.094940 0.702210 -0.534380
O14   O     O_R   0.703190 0.905060 0.297790 -0.533458
O15   O     O_R   0.203190 0.594940 0.797790 -0.534380
O16   O     O_R   0.796810 0.405060 0.202210 -0.533458
C5    C     C_R   0.189767 0.432379 0.653337 0.701842
C6    C     C_R   0.810313 0.567178 0.346562 0.703404
C7    C     C_R   0.310233 0.932378 0.846663 0.701842
C8    C     C_R   0.689687 0.067180 0.153438 0.703402
O17   O     O_3   0.281300 0.427390 0.758870 -0.373013
O18   O     O_3   0.718700 0.572610 0.241130 -0.372242
O19   O     O_3   0.218700 0.927390 0.741130 -0.373014
O20   O     O_3   0.781300 0.072610 0.258870 -0.372243
V1    V     V_3+5 0.244190 0.152150 0.748350 1.401062
V2    V     V_3+5 0.755810 0.847850 0.251650 1.413552
V3    V     V_3+5 0.255810 0.652150 0.751650 1.401063
V4    V     V_3+5 0.744190 0.347850 0.248350 1.413554
C9    C     C_R   0.655328 0.057137 0.094556 -0.097022
C10   C     C_R   0.344882 0.934290 0.905502 -0.079568
C11   C     C_R   0.844671 0.557131 0.405444 -0.097020
C12   C     C_R   0.155118 0.434296 0.594498 -0.079567
C13   C     C_R   0.644120 0.052524 0.986333 0.227099
C14   C     C_R   0.360273 0.845461 0.010223 0.224386
C15   C     C_R   0.855878 0.552490 0.513667 0.227099
C16   C     C_R   0.139728 0.345492 0.489776 0.224388
C17   C     C_R   0.675329 0.069707 0.042953 -0.193652
C18   C     C_R   0.327291 0.869065 0.955107 -0.191796
C19   C     C_R   0.824669 0.569681 0.457046 -0.193655
C20   C     C_R   0.172710 0.369089 0.544892 -0.191799
C21   C     C_R   0.603391 0.026686 0.089813 -0.162318
C22   C     C_R   0.396383 0.975297 0.910816 -0.227401
C23   C     C_R   0.896609 0.526692 0.410187 -0.162317
C24   C     C_R   0.103617 0.475293 0.589185 -0.227400
C25   C     C_R   0.571027 0.992307 0.033514 0.059413
C26   C     C_R   0.432097 0.932457 0.963860 0.045155
C27   C     C_R   0.928973 0.492304 0.466485 0.059414
C28   C     C_R   0.067903 0.432461 0.536140 0.045156
C29   C     C_R   0.591990 0.013247 0.981500 0.039614
C30   C     C_R   0.412759 0.875556 0.014614 0.094079
C31   C     C_R   0.908009 0.513225 0.518500 0.039614
C32   C     C_R   0.087243 0.375578 0.485385 0.094079
C33   C     C_R   0.518513 0.942039 0.026998 0.038197
C34   C     C_R   0.486071 0.947122 0.968674 -0.028371
C35   C     C_R   0.981488 0.442044 0.473002 0.038197
C36   C     C_R   0.013929 0.447118 0.531325 -0.028372
C37   C     C_R   0.509750 0.952008 0.917891 0.182747
C38   C     C_R   0.497899 0.871825 0.075383 0.179286
C39   C     C_R   0.990250 0.451987 0.582108 0.182747
C40   C     C_R   0.002103 0.371846 0.424615 0.179286
C41   C     C_R   0.561250 0.987213 0.925199 -0.148749
C42   C     C_R   0.446106 0.841870 0.068651 -0.232823
C43   C     C_R   0.938749 0.487183 0.574801 -0.148747
C44   C     C_R   0.053895 0.341900 0.431347 -0.232824
H1    H     H_    0.577484 0.988517 0.885377 0.182550
H2    H     H_    0.432319 0.787420 0.106722 0.166041
H3    H     H_    0.922515 0.488474 0.614623 0.182550
H4    H     H_    0.067683 0.287462 0.393275 0.166041
H5    H     H_    0.407448 0.039823 0.872927 0.120489
H6    H     H_    0.589234 0.037052 0.130648 0.147191
H7    H     H_    0.092551 0.539806 0.627075 0.120487
H8    H     H_    0.910767 0.537073 0.369352 0.147190
H9    H     H_    0.287526 0.836821 0.950745 0.113590
H10   H     H_    0.715440 0.094425 0.046915 0.114620
H11   H     H_    0.212475 0.336854 0.549253 0.113592
H12   H     H_    0.784559 0.594388 0.453085 0.114623
C45   C     C_R   0.616969 0.899285 0.351028 -0.185237
C46   C     C_R   0.382899 0.101094 0.648798 -0.184792
C47   C     C_R   0.883026 0.399277 0.148967 -0.185230
C48   C     C_R   0.117104 0.601101 0.851206 -0.184787
H13   H     H_    0.621152 0.784478 0.321702 0.135340
H14   H     H_    0.378553 0.216229 0.677926 0.133310
H15   H     H_    0.878841 0.284463 0.178289 0.135342
H16   H     H_    0.121453 0.716243 0.822081 0.133312
C49   C     C_R   0.580948 0.884076 0.387328 -0.128580
C50   C     C_R   0.418939 0.116330 0.612522 -0.122611
C51   C     C_R   0.919047 0.384067 0.112667 -0.128578
C52   C     C_R   0.081064 0.616337 0.887481 -0.122611
H17   H     H_    0.558797 0.758002 0.384999 0.149522
H18   H     H_    0.440929 0.242752 0.614665 0.151162
H19   H     H_    0.941195 0.257985 0.114991 0.149525
H20   H     H_    0.059077 0.742766 0.885342 0.151164
C53   C     C_R   0.573588 0.029161 0.425933 -0.046951
C54   C     C_R   0.426510 0.970858 0.574161 -0.047054
C55   C     C_R   0.926412 0.529162 0.074067 -0.046952
C56   C     C_R   0.073489 0.470856 0.925838 -0.047053
C57   C     C_R   0.603446 0.189533 0.427437 -0.100567
C58   C     C_R   0.396860 0.810038 0.572897 -0.100795
C59   C     C_R   0.896558 0.689544 0.072568 -0.100568
C60   C     C_R   0.103135 0.310027 0.927099 -0.100797
H21   H     H_    0.598928 0.303058 0.457117 0.160983
H22   H     H_    0.401562 0.696155 0.543429 0.159781
H23   H     H_    0.901080 0.803076 0.042891 0.160984
H24   H     H_    0.098431 0.196137 0.956563 0.159783
C61   C     C_R   0.639693 0.206845 0.391325 0.194082
C62   C     C_R   0.360606 0.792668 0.608995 0.194807
C63   C     C_R   0.860311 0.706856 0.108680 0.194082
C64   C     C_R   0.139390 0.292657 0.891000 0.194806
C65   C     C_R   0.646809 0.060117 0.351874 -0.097575
C66   C     C_R   0.353248 0.939851 0.648177 -0.097509
C67   C     C_R   0.853191 0.560119 0.148126 -0.097580
C68   C     C_R   0.146751 0.439849 0.851823 -0.097513
N1    N     N_R   0.527711 0.155520 0.501362 -0.281751
N2    N     N_R   0.472393 0.844525 0.498739 -0.283445
N3    N     N_R   0.972298 0.655541 0.998648 -0.281747
N4    N     N_R   0.027597 0.344502 0.001249 -0.283439
N5    N     N_R   0.493399 0.142124 0.535960 -0.278793
N6    N     N_R   0.506702 0.857925 0.464140 -0.281049
N7    N     N_R   0.006610 0.642146 0.964051 -0.278789
N8    N     N_R   0.993288 0.357902 0.035848 -0.281045
C69   C     C_R   0.464921 0.986270 0.535462 0.532320
C70   C     C_R   0.535182 0.013774 0.464639 0.531636
C71   C     C_R   0.035079 0.486268 0.964538 0.532310
C72   C     C_R   0.964818 0.513774 0.035361 0.531627
N9    N     N_3   0.665394 0.072107 0.933573 -0.667016
H25   H     H_    0.652171 0.197527 0.913207 0.230528
H26   H     H_    0.704719 0.083449 0.944937 0.240429
N10   N     N_3   0.340795 0.785426 0.061449 -0.674190
H27   H     H_    0.343479 0.897996 0.090875 0.228280
H28   H     H_    0.302407 0.752883 0.049299 0.236120
N11   N     N_3   0.834603 0.572054 0.566427 -0.667015
H29   H     H_    0.847824 0.697472 0.586795 0.230528
H30   H     H_    0.795278 0.583389 0.555063 0.240430
N12   N     N_3   0.159207 0.285475 0.438548 -0.674189
H31   H     H_    0.156522 0.398051 0.409125 0.228280
H32   H     H_    0.197596 0.252937 0.450698 0.236121
N13   N     N_3   0.485938 0.886892 0.859621 -0.674325
H33   H     H_    0.458935 0.784684 0.861925 0.244338
H34   H     H_    0.471548 0.998829 0.832376 0.226974
N14   N     N_3   0.529479 0.806168 0.129439 -0.687965
H35   H     H_    0.523228 0.663736 0.133313 0.240459
H36   H     H_    0.518610 0.872871 0.165648 0.223446
N15   N     N_3   0.014062 0.386864 0.640378 -0.674325
H37   H     H_    0.041066 0.284659 0.638073 0.244338
H38   H     H_    0.028451 0.498797 0.667624 0.226975
N16   N     N_3   0.970524 0.306197 0.370558 -0.687964
H39   H     H_    0.976776 0.163768 0.366681 0.240458
H40   H     H_    0.981391 0.372913 0.334351 0.223446
N17   N     N_3   0.669542 0.372884 0.397623 -0.672304
H41   H     H_    0.660807 0.449420 0.358004 0.242484
H42   H     H_    0.707796 0.336962 0.406341 0.232030
N18   N     N_3   0.331032 0.625977 0.602983 -0.673193
H43   H     H_    0.339846 0.550261 0.642761 0.243419
H44   H     H_    0.292715 0.660988 0.594100 0.231702
N19   N     N_3   0.830467 0.872906 0.102386 -0.672305
H45   H     H_    0.839203 0.949427 0.142008 0.242481
H46   H     H_    0.792212 0.836999 0.093666 0.232034
N20   N     N_3   0.168960 0.125957 0.897009 -0.673193
H47   H     H_    0.160146 0.050254 0.857229 0.243417
H48   H     H_    0.207278 0.160956 0.905895 0.231705

loop_
_geom_bond_atom_site_label_1
_geom_bond_atom_site_label_2
_ccdc_geom_bond_type
O17   V3    S    
C55   C59   A    
O1    C5    A    
O19   V1    S    
C56   C71   S    
C9    C21   A    
O3    C7    A    
N15   H37   S    
C10   C18   A    
C52   H20   S    
C11   C23   A    
N4    C71   A    
C25   C33   A    
N11   H29   S    
C5    C12   S    
C15   N11   S    
O7    C3    A    
C6    C11   S    
C35   C40   A    
C26   C30   A    
C36   C39   A    
C40   C44   A    
O2    V4    S    
O9    V1    S    
N18   H43   S    
N15   H38   S    
C23   H8    S    
C14   C18   A    
N13   H34   S    
O4    C8    A    
C25   C29   A    
C44   H4    S    
C64   C68   A    
C57   C61   A    
O1    V3    S    
O13   V1    S    
C31   C43   A    
C59   C63   A    
N2    N6    A    
O3    V1    S    
C3    C66   S    
N1    N5    A    
C63   N19   S    
C28   C36   A    
N5    C69   A    
N4    N8    A    
C1    O15   A    
C54   C69   S    
C15   C31   A    
C2    O16   A    
N10   H27   S    
C16   C32   A    
C16   N12   S    
O2    C6    A    
C43   H3    S    
N19   H46   S    
C58   H22   S    
C10   C22   A    
N2    C69   A    
N17   H42   S    
C11   C19   A    
N1    C70   A    
C62   C66   A    
C16   C20   A    
O5    V1    S    
C61   C65   A    
N8    C72   A    
C13   C29   A    
N3    C72   A    
C34   C37   A    
O11   C7    A    
O15   V3    S    
C35   C36   A    
C48   C68   A    
C13   C17   A    
C24   H7    S    
O10   V2    S    
C4    C65   S    
C39   N15   S    
C50   H18   S    
N20   H48   S    
C57   H21   S    
C39   C43   A    
O7    V3    S    
C38   C42   A    
O8    V4    S    
C47   C67   A    
C33   C38   A    
C46   C66   A    
N14   H36   S    
C17   H10   S    
C60   C64   A    
O18   V4    S    
N14   H35   S    
C15   C19   A    
C61   N17   S    
C56   C60   A    
C19   H12   S    
C32   C44   A    
O4    V2    S    
C49   C53   A    
C21   H6    S    
C26   C34   A    
N6    C70   A    
O5    C1    A    
N7    C71   A    
N19   H45   S    
C14   C30   A    
C21   C25   A    
O8    C4    A    
C7    C10   S    
C4    O14   A    
O9    C5    A    
N12   H32   S    
N10   H28   S    
O14   V2    S    
C37   N13   S    
O6    V2    S    
C64   N20   S    
N16   H40   S    
C12   C20   A    
C27   C35   A    
C45   C65   A    
C60   H24   S    
C29   C41   A    
C52   C56   A    
C59   H23   S    
N20   H47   S    
O16   V4    S    
N11   H30   S    
C3    O13   A    
C1    C68   S    
C20   H11   S    
C48   H16   S    
C38   N14   S    
C53   C70   S    
C47   H15   S    
O6    C2    A    
C23   C27   A    
O11   V3    S    
C55   C72   S    
C30   C42   A    
N3    N7    A    
O12   V4    S    
C47   C51   A    
C22   C26   A    
C8    C9    S    
C46   C50   A    
C9    C17   A    
O10   C6    A    
N18   H44   S    
N9    H25   S    
C45   C49   A    
C54   C58   A    
N13   H33   S    
C46   H14   S    
C33   C34   A    
C42   H2    S    
C58   C62   A    
C41   H1    S    
O20   V2    S    
C13   N9    S    
C12   C24   A    
C27   C31   A    
C49   H17   S    
C45   H13   S    
C62   N18   S    
N12   H31   S    
C51   H19   S    
C37   C41   A    
C24   C28   A    
C18   H9    S    
O12   C8    A    
C40   N16   S    
N16   H39   S    
C63   C67   A    
C48   C52   A    
C51   C55   A    
N17   H41   S    
C50   C54   A    
C22   H5    S    
C53   C57   A    
C2    C67   S    
C28   C32   A    
C14   N10   S    
N9    H26   S    
