data_str_m2_o22_o22_f0_pcu.sym.191
_audit_creation_date              2013-03-05T16:10:35-0500
_audit_creation_method            fapswitch 2.2
_symmetry_space_group_name_H-M    P1
_symmetry_Int_Tables_number       1
_space_group_crystal_system       triclinic
_cell_length_a                    14.982735
_cell_length_b                    15.702735
_cell_length_c                    9.392876
_cell_angle_alpha                 90.183591
_cell_angle_beta                  89.919835
_cell_angle_gamma                 90.064523
_cell_volume                      2209.84626173

loop_
_atom_site_label
_atom_site_type_symbol
_atom_site_description
_atom_site_fract_x
_atom_site_fract_y
_atom_site_fract_z
_atom_type_partial_charge
O1    O     O_R   0.091250 0.408820 0.620260 -0.601123
O2    O     O_R   0.091250 0.408820 0.379740 -0.592258
O3    O     O_R   0.091250 0.591180 0.620260 -0.589932
O4    O     O_R   0.091250 0.591180 0.379740 -0.600068
O5    O     O_R   0.591250 0.908820 0.620260 -0.601129
O6    O     O_R   0.591250 0.908820 0.379740 -0.592229
O7    O     O_R   0.591250 0.091180 0.620260 -0.589954
O8    O     O_R   0.591250 0.091180 0.379740 -0.600131
C1    C     C_R   0.126329 0.386924 0.499787 0.831266
C2    C     C_R   0.126884 0.612423 0.499911 0.830609
C3    C     C_R   0.626329 0.886926 0.499785 0.831287
C4    C     C_R   0.626867 0.112444 0.499915 0.830659
O9    O     O_R   0.908940 0.408800 0.620260 -0.571673
O10   O     O_R   0.908940 0.408800 0.379740 -0.550610
O11   O     O_R   0.908940 0.591200 0.620260 -0.551527
O12   O     O_R   0.908940 0.591200 0.379740 -0.566293
O13   O     O_R   0.408940 0.908800 0.620260 -0.571757
O14   O     O_R   0.408940 0.908800 0.379740 -0.550475
O15   O     O_R   0.408940 0.091200 0.620260 -0.551470
O16   O     O_R   0.408940 0.091200 0.379740 -0.566311
C5    C     C_R   0.880832 0.378173 0.499865 0.951138
C6    C     C_R   0.880159 0.621294 0.500339 0.951435
C7    C     C_R   0.380818 0.878183 0.499870 0.951372
C8    C     C_R   0.380169 0.121302 0.500336 0.951258
Cu1   Cu    Cu3+1 0.000100 0.500000 0.642410 0.982104
Cu2   Cu    Cu3+1 0.000100 0.500000 0.357590 0.982273
Cu3   Cu    Cu3+1 0.500100 0.000000 0.642410 0.982097
Cu4   Cu    Cu3+1 0.500100 0.000000 0.357590 0.982297
C9    C     C_3   0.826363 0.247127 0.634743 0.224029
C10   C     C_3   0.822792 0.247343 0.361973 0.244125
C11   C     C_3   0.824340 0.754935 0.634378 0.241875
C12   C     C_3   0.822843 0.749925 0.362367 0.219922
C13   C     C_3   0.326433 0.747063 0.634635 0.224101
C14   C     C_3   0.322687 0.747456 0.361859 0.244075
C15   C     C_3   0.324336 0.254923 0.634418 0.241874
C16   C     C_3   0.322904 0.249997 0.362428 0.219876
H1    H     H_    0.822795 0.285756 0.733816 0.157498
H2    H     H_    0.797426 0.281452 0.267735 0.166513
H3    H     H_    0.801359 0.724019 0.732788 0.171109
H4    H     H_    0.819301 0.710954 0.264265 0.167686
H5    H     H_    0.322897 0.785643 0.733767 0.157444
H6    H     H_    0.297236 0.781664 0.267762 0.166310
H7    H     H_    0.301332 0.224006 0.732809 0.171158
H8    H     H_    0.319486 0.211104 0.264248 0.167978
C17   C     C_3   0.250708 0.679753 0.641141 -0.395286
C18   C     C_3   0.265282 0.665963 0.376902 -0.405025
C19   C     C_3   0.266510 0.335702 0.617587 -0.400071
C20   C     C_3   0.246331 0.315887 0.355043 -0.406503
C21   C     C_3   0.750602 0.179853 0.641255 -0.395388
C22   C     C_3   0.765362 0.165872 0.377074 -0.405039
C23   C     C_3   0.766514 0.835710 0.617544 -0.400092
C24   C     C_3   0.746310 0.815865 0.355017 -0.406449
H9    H     H_    0.278282 0.615225 0.662116 0.210804
H10   H     H_    0.307747 0.609559 0.399987 0.249470
H11   H     H_    0.308383 0.391697 0.588870 0.248289
H12   H     H_    0.272446 0.379996 0.326555 0.214103
H13   H     H_    0.778134 0.115332 0.662423 0.210800
H14   H     H_    0.807802 0.109481 0.400358 0.249473
H15   H     H_    0.808381 0.891704 0.588798 0.248258
H16   H     H_    0.772465 0.879961 0.326541 0.214139
H17   H     H_    0.205436 0.694901 0.731676 0.200040
H18   H     H_    0.231097 0.653183 0.273925 0.164952
H19   H     H_    0.234190 0.350638 0.721425 0.162467
H20   H     H_    0.198971 0.296844 0.269342 0.190258
H21   H     H_    0.705268 0.195094 0.731669 0.200069
H22   H     H_    0.731249 0.153016 0.274061 0.164928
H23   H     H_    0.734208 0.850655 0.721389 0.162469
H24   H     H_    0.698931 0.796858 0.269321 0.190236
H25   H     H_    0.087086 0.768243 0.536165 0.278817
H26   H     H_    0.128272 0.767193 0.362337 0.214493
H27   H     H_    0.125935 0.235314 0.641768 0.223228
H28   H     H_    0.087508 0.230994 0.464539 0.272562
H29   H     H_    0.587059 0.268305 0.535807 0.278785
H30   H     H_    0.628391 0.267156 0.362060 0.214472
H31   H     H_    0.625968 0.735331 0.641826 0.223143
H32   H     H_    0.587462 0.731013 0.464647 0.272649
C25   C     C_3   0.713311 0.340554 0.508827 0.388131
C26   C     C_3   0.711698 0.657714 0.501627 0.383735
C27   C     C_3   0.213288 0.840538 0.509042 0.388154
C28   C     C_3   0.211715 0.157711 0.501619 0.383591
C29   C     C_3   0.813683 0.305660 0.499793 -0.221514
C30   C     C_3   0.812509 0.693384 0.500719 -0.211295
C31   C     C_3   0.313664 0.805671 0.499800 -0.221591
C32   C     C_3   0.312528 0.193395 0.500718 -0.211087
C33   C     C_3   0.197189 0.678919 0.499383 -0.099886
C34   C     C_3   0.196229 0.320116 0.499679 -0.097819
C35   C     C_3   0.697180 0.178933 0.499397 -0.099836
C36   C     C_3   0.696221 0.820114 0.499667 -0.097913
C37   C     C_3   0.150007 0.764642 0.475773 -0.368981
C38   C     C_3   0.149031 0.234985 0.528881 -0.389210
C39   C     C_3   0.650032 0.264658 0.475544 -0.369019
C40   C     C_3   0.649019 0.734993 0.528916 -0.389014
C41   C     C_3   0.958592 0.577643 0.084161 -0.184135
C42   C     C_3   0.959117 0.577898 0.916760 -0.171317
C43   C     C_3   0.952695 0.425531 0.083399 -0.173137
C44   C     C_3   0.952236 0.425793 0.916061 -0.187028
C45   C     C_3   0.458663 0.077678 0.084160 -0.184185
C46   C     C_3   0.459189 0.077934 0.916760 -0.171260
C47   C     C_3   0.452630 0.925570 0.083398 -0.173098
C48   C     C_3   0.452170 0.925833 0.916063 -0.187072
H33   H     H_    0.993056 0.635554 0.125025 0.183075
H34   H     H_    0.994683 0.635482 0.877600 0.196190
H35   H     H_    0.983527 0.365546 0.122077 0.196478
H36   H     H_    0.981906 0.365518 0.875270 0.180759
H37   H     H_    0.493175 0.135562 0.125028 0.182963
H38   H     H_    0.494809 0.135487 0.877601 0.196160
H39   H     H_    0.483417 0.865564 0.122066 0.196592
H40   H     H_    0.481786 0.865533 0.875271 0.180712
H41   H     H_    0.888226 0.581653 0.120543 0.206473
H42   H     H_    0.889089 0.582896 0.879391 0.212592
H43   H     H_    0.882477 0.425702 0.121419 0.213304
H44   H     H_    0.881820 0.426926 0.879667 0.210118
H45   H     H_    0.388301 0.081744 0.120535 0.206590
H46   H     H_    0.389166 0.082992 0.879392 0.212598
H47   H     H_    0.382413 0.925792 0.121427 0.213257
H48   H     H_    0.381756 0.927025 0.879671 0.210229
H49   H     H_    0.132638 0.552421 0.122359 0.152044
H50   H     H_    0.133287 0.551230 0.876487 0.153669
H51   H     H_    0.128579 0.439189 0.122447 0.155509
H52   H     H_    0.127834 0.438039 0.877614 0.153839
H53   H     H_    0.632685 0.052317 0.122362 0.152024
H54   H     H_    0.633334 0.051120 0.876478 0.153632
H55   H     H_    0.628526 0.939088 0.122444 0.155535
H56   H     H_    0.627778 0.937934 0.877622 0.153873
C49   C     C_3   0.093368 0.496903 0.083812 -0.192924
C50   C     C_3   0.093348 0.496405 0.915781 -0.192377
C51   C     C_3   0.593366 0.996831 0.083812 -0.192931
C52   C     C_3   0.593345 0.996330 0.915781 -0.192387
N1    N     N_3   0.001260 0.500000 0.143650 -0.152633
N2    N     N_3   0.001260 0.500000 0.856350 -0.152501
N3    N     N_3   0.501260 0.000000 0.143650 -0.152631
N4    N     N_3   0.501260 0.000000 0.856350 -0.152501
Cl1   Cl    Cl    0.933280 0.196866 0.646011 -0.534656
Cl2   Cl    Cl    0.934104 0.220113 0.310698 -0.536584
Cl3   Cl    Cl    0.936046 0.783473 0.679495 -0.520044
Cl4   Cl    Cl    0.929199 0.801360 0.345434 -0.534223
Cl5   Cl    Cl    0.433370 0.696832 0.645696 -0.534681
Cl6   Cl    Cl    0.433980 0.720252 0.310392 -0.536511
Cl7   Cl    Cl    0.436039 0.283431 0.679621 -0.520037
Cl8   Cl    Cl    0.429227 0.301517 0.345689 -0.534221
N5    N     N_R   0.694748 0.374738 0.653390 0.139201
O17   O     O_R   0.629630 0.346554 0.732145 -0.268513
O18   O     O_R   0.746769 0.431987 0.708095 -0.316008
N6    N     N_R   0.692271 0.407458 0.404905 0.141563
O19   O     O_R   0.612339 0.439694 0.407601 -0.156930
O20   O     O_R   0.738255 0.415848 0.288465 -0.356413
N7    N     N_R   0.693246 0.595331 0.615188 0.148248
O21   O     O_R   0.740093 0.593788 0.731373 -0.366391
O22   O     O_R   0.615101 0.559083 0.618607 -0.153377
N8    N     N_R   0.687124 0.618151 0.363223 0.132189
O23   O     O_R   0.746240 0.580566 0.283990 -0.345014
O24   O     O_R   0.603623 0.607334 0.329448 -0.184968
N9    N     N_R   0.194803 0.874659 0.653666 0.139312
O25   O     O_R   0.129872 0.846283 0.732635 -0.269125
O26   O     O_R   0.246777 0.931985 0.708259 -0.315855
N10   N     N_R   0.192150 0.907469 0.405222 0.141338
O27   O     O_R   0.112111 0.939462 0.407683 -0.157197
O28   O     O_R   0.238416 0.916339 0.289199 -0.356173
N11   N     N_R   0.193273 0.095339 0.615217 0.148104
O29   O     O_R   0.240156 0.093772 0.731363 -0.366351
O30   O     O_R   0.115140 0.059070 0.618670 -0.153445
N12   N     N_R   0.187081 0.118127 0.363253 0.132634
O31   O     O_R   0.246217 0.081058 0.283409 -0.345488
O32   O     O_R   0.103576 0.106971 0.329881 -0.184405

loop_
_geom_bond_atom_site_label_1
_geom_bond_atom_site_label_2
_geom_bond_distance
_ccdc_geom_bond_type
C9    Cl1   1.789991 S    
C2    C33   1.482367 S    
C41   C42   1.572400 S    
C35   C39   1.538096 S    
C13   C17   1.551020 S    
C21   C35   1.555351 S    
C43   C44   1.571823 S    
C48   H48   1.109638 S    
C28   C38   1.555612 S    
C28   C32   1.610461 S    
C15   C19   1.545559 S    
C45   C46   1.572398 S    
C21   H13   1.112938 S    
C9    C21   1.551024 S    
C44   H44   1.109662 S    
C42   N2    1.487683 S    
C11   C30   1.591908 S    
C21   H21   1.112336 S    
C18   H18   1.112694 S    
C6    C30   1.520319 S    
O10   C5    1.297480 A    
C19   H11   1.113227 S    
N10   O27   1.300840 A    
N7    O22   1.301674 A    
C46   N4    1.487686 S    
H53   C51   1.111184 S    
N5    O18   1.294697 A    
C47   H47   1.110572 S    
H52   C50   1.110814 S    
C46   H46   1.109768 S    
C50   N2    1.490306 S    
C51   N3    1.490163 S    
O7    Cu3   1.988729 S    
C10   H2    1.104192 S    
C12   C24   1.547613 S    
C24   H16   1.112957 S    
N7    O21   1.298675 A    
C15   Cl7   1.783468 S    
C27   N10   1.471061 S    
O5    Cu3   1.989984 S    
O11   C6    1.297413 A    
O6    Cu4   1.991343 S    
C36   C40   1.536847 S    
C13   Cl5   1.789916 S    
C10   Cl2   1.787245 S    
C14   H6    1.104338 S    
N11   O30   1.301680 A    
C14   C18   1.547759 S    
N9    O26   1.294690 A    
C15   H7    1.100082 S    
C14   Cl6   1.787358 S    
C24   H24   1.113767 S    
H56   C52   1.110815 S    
C18   C33   1.549670 S    
C45   H37   1.112723 S    
C10   C22   1.547741 S    
C17   H9    1.112945 S    
O1    Cu1   1.989984 S    
Cu3   N4    2.009611 S    
O9    Cu1   1.988500 S    
C47   H39   1.111840 S    
C41   N1    1.488121 S    
Cu1   N2    2.009611 S    
C52   N4    1.490311 S    
C43   H35   1.111858 S    
O14   Cu4   1.989060 S    
N12   O32   1.301754 A    
O12   Cu2   1.990313 S    
O7    C4    1.293976 A    
C48   H40   1.112836 S    
O14   C7    1.297525 A    
C22   H14   1.113174 S    
C19   C34   1.547966 S    
O16   C8    1.299238 A    
C24   C36   1.552524 S    
O1    C1    1.292743 A    
H29   C39   1.101051 S    
C11   Cl3   1.783422 S    
C34   C38   1.536868 S    
C41   H33   1.112719 S    
O6    C3    1.292434 A    
C12   Cl4   1.792795 S    
C33   C37   1.537974 S    
C28   N11   1.476258 S    
C23   H23   1.112758 S    
O16   Cu4   1.990313 S    
C26   C40   1.555654 S    
Cu1   Cu2   2.675278 S    
C42   H42   1.109769 S    
O13   Cu3   1.988500 S    
H30   C39   1.115426 S    
C17   C33   1.555301 S    
C9    C29   1.579924 S    
C1    C34   1.483185 S    
C27   N9    1.484503 S    
C16   Cl8   1.792775 S    
C26   C30   1.610359 S    
H55   C51   1.111319 S    
N11   O29   1.298659 A    
C25   C29   1.603172 S    
C3    C36   1.483145 S    
O8    C4    1.292015 A    
C28   N12   1.485709 S    
C18   H10   1.113172 S    
C48   N4    1.487616 S    
O9    C5    1.298025 A    
O2    Cu2   1.991343 S    
O13   C7    1.297991 A    
O10   Cu2   1.989060 S    
C13   C31   1.579906 S    
C45   N3    1.488122 S    
Cu2   N1    2.009563 S    
C7    C31   1.518642 S    
H31   C40   1.114913 S    
H32   C40   1.104602 S    
C26   N7    1.476162 S    
N6    O20   1.298786 A    
C5    C29   1.518596 S    
C44   H36   1.112832 S    
C49   C50   1.578283 S    
O8    Cu4   1.988169 S    
N8    O24   1.301900 A    
C16   H8    1.105667 S    
H26   C37   1.115431 S    
C23   H15   1.113228 S    
C14   C31   1.588982 S    
C45   H45   1.109580 S    
C51   C52   1.578286 S    
H51   C49   1.111320 S    
O15   Cu3   1.991672 S    
C26   N8    1.485665 S    
C44   N2    1.487623 S    
N12   O31   1.297223 A    
C20   H12   1.112953 S    
C25   C39   1.553337 S    
O12   C6    1.299269 A    
C4    C35   1.482376 S    
C22   C35   1.549662 S    
O4    C2    1.292001 A    
C11   C23   1.545511 S    
N6    O19   1.300896 A    
C23   C36   1.547903 S    
O4    Cu2   1.988169 S    
C15   C32   1.591952 S    
C22   H22   1.112701 S    
O5    C3    1.292758 A    
H25   C37   1.100973 S    
C12   C30   1.583518 S    
C46   H38   1.112370 S    
C47   C48   1.571806 S    
C47   N3    1.487322 S    
Cu4   N3    2.009563 S    
C13   H5    1.110466 S    
C10   C29   1.589083 S    
N10   O28   1.298542 A    
O15   C8    1.297431 A    
C8    C32   1.520265 S    
C25   N6    1.471083 S    
O3    C2    1.294024 A    
C43   H43   1.110557 S    
N5    O17   1.301563 A    
C19   H19   1.112762 S    
H27   C38   1.114907 S    
C16   C32   1.583644 S    
C17   H17   1.112330 S    
C11   H3    1.100122 S    
C16   C20   1.547563 S    
C20   C34   1.552495 S    
C12   H4    1.105828 S    
H54   C52   1.111627 S    
C25   N5    1.484550 S    
C27   C37   1.553325 S    
C20   H20   1.113766 S    
C27   C31   1.603192 S    
C49   N1    1.490158 S    
O3    Cu1   1.988729 S    
C42   H34   1.112369 S    
O11   Cu1   1.991672 S    
C9    H1    1.110453 S    
Cu3   Cu4   2.675278 S    
C43   N1    1.487329 S    
N8    O23   1.297399 A    
H50   C50   1.111620 S    
H28   C38   1.104558 S    
N9    O25   1.301650 A    
O2    C1    1.292465 A    
H49   C49   1.111175 S    
C41   H41   1.109613 S    
