data_str_m9_o2_o2_f0_sra.sym.82
_audit_creation_date              2012-12-11T16:35:24-0500
_audit_creation_method            fapswitch 2.2
_symmetry_space_group_name_H-M    P1
_symmetry_Int_Tables_number       1
_space_group_crystal_system       triclinic
_cell_length_a                    6.933282
_cell_length_b                    17.740124
_cell_length_c                    19.451613
_cell_angle_alpha                 109.034434
_cell_angle_beta                  90.473027
_cell_angle_gamma                 90.955231
_cell_volume                      2261.12882228

loop_
_atom_site_label
_atom_site_type_symbol
_atom_type_description
_atom_site_fract_x
_atom_site_fract_y
_atom_site_fract_z
_atom_type_partial_charge
O1    O     O_R   0.505700 0.440210 0.561730 -0.552273
O2    O     O_R   0.169350 0.406300 0.412660 -0.516014
O3    O     O_R   0.005650 0.559790 0.438270 -0.537048
C1    C     C_R   0.337384 0.381892 0.385327 0.890243
O4    O     O_R   0.175560 0.430650 0.559600 -0.543617
O5    O     O_R   0.011900 0.584320 0.586250 -0.538363
C2    C     C_R   0.344952 0.414940 0.580658 0.759057
O6    O     O_R   0.499450 0.415680 0.413750 -0.544040
O7    O     O_3   0.341370 0.550390 0.508570 -0.358789
V1    V     V_3+5 0.063940 0.490650 0.498410 1.490682
O8    O     O_R   0.682570 0.593700 0.587340 -0.542570
C3    C     C_R   0.852913 0.617384 0.614434 0.788280
O9    O     O_R   0.676370 0.569350 0.440400 -0.506491
C4    C     C_R   0.845524 0.586472 0.420346 0.828029
V2    V     V_3+5 0.564750 0.509350 0.501590 1.510244
O10   O     O_3   0.837190 0.449610 0.491430 -0.383546
C5    C     C_R   0.043264 0.690155 0.291832 0.393921
C6    C     C_R   0.029454 0.647133 0.340328 -0.285539
H1    H     H_    0.155206 0.616367 0.348948 0.188539
C7    C     C_R   0.857286 0.641330 0.375773 -0.227574
C8    C     C_R   0.701393 0.689455 0.369831 0.370203
C9    C     C_R   0.719149 0.739326 0.325765 0.100458
C10   C     C_R   0.886816 0.737262 0.283923 -0.047844
C11   C     C_R   0.775270 0.762794 0.170957 -0.190552
H2    H     H_    0.674951 0.712786 0.161376 0.150873
C12   C     C_R   0.777135 0.806147 0.122279 0.176947
C13   C     C_R   0.914231 0.869145 0.131904 -0.118352
C14   C     C_R   0.036610 0.890273 0.193430 -0.263431
H3    H     H_    0.137440 0.940103 0.203024 0.141962
C15   C     C_R   0.024840 0.849981 0.244762 0.221166
C16   C     C_R   0.896667 0.784304 0.232671 0.030373
H4    H     H_    0.922996 0.621291 0.930370 0.117190
C17   C     C_R   0.834767 0.908056 0.750813 -0.232437
C18   C     C_R   0.812528 0.926482 0.687116 0.425509
C19   C     C_R   0.833224 0.866292 0.619599 0.063706
C20   C     C_R   0.866111 0.786482 0.617162 0.273586
C21   C     C_R   0.867969 0.766710 0.682751 0.022346
C22   C     C_R   0.868472 0.829745 0.750394 -0.095797
C23   C     C_R   0.865996 0.686286 0.683080 -0.110841
C24   C     C_R   0.868580 0.670981 0.750322 -0.067036
C25   C     C_R   0.907353 0.733912 0.816584 0.056587
C26   C     C_R   0.902772 0.814172 0.816630 -0.110167
C27   C     C_R   0.830166 0.593336 0.752638 -0.186538
C28   C     C_R   0.840598 0.576358 0.817632 0.257568
C29   C     C_R   0.904147 0.635731 0.880775 -0.228579
C30   C     C_R   0.942178 0.713909 0.880906 0.286645
H5    H     H_    0.821376 0.956688 0.801225 0.143534
H6    H     H_    0.787187 0.545068 0.704163 0.111770
H7    H     H_    0.366047 0.474567 0.169792 0.136401
C31   C     C_R   0.319783 0.214313 0.383680 0.374612
C32   C     C_R   0.352126 0.137080 0.386577 0.161360
C33   C     C_R   0.413601 0.077342 0.325375 -0.311693
C34   C     C_R   0.440159 0.090957 0.259194 0.308386
C35   C     C_R   0.408211 0.168327 0.254008 -0.009401
C36   C     C_R   0.358277 0.232363 0.318368 -0.091746
C37   C     C_R   0.427179 0.182969 0.186403 -0.124761
C38   C     C_R   0.414350 0.261628 0.184095 -0.046924
C39   C     C_R   0.371702 0.326487 0.247985 0.061511
C40   C     C_R   0.346972 0.312322 0.315934 -0.139187
C41   C     C_R   0.444012 0.276394 0.117565 -0.141935
C42   C     C_R   0.430321 0.352445 0.112446 0.233407
C43   C     C_R   0.382322 0.415461 0.173772 -0.192469
C44   C     C_R   0.351196 0.403612 0.240593 0.137373
H8    H     H_    0.440294 0.019001 0.329603 0.128939
H9    H     H_    0.479818 0.229045 0.068310 0.129994
C45   C     C_R   0.519522 0.260445 0.664557 0.204244
C46   C     C_R   0.504208 0.306750 0.618290 0.350504
C47   C     C_R   0.357582 0.364241 0.628597 -0.245688
C48   C     C_R   0.227239 0.373635 0.686425 0.144153
C49   C     C_R   0.244805 0.327551 0.732324 -0.128879
H10   H     H_    0.144471 0.336016 0.776552 0.163834
C50   C     C_R   0.390442 0.271572 0.722560 -0.077598
C51   C     C_R   0.265812 0.163191 0.766615 -0.090987
H11   H     H_    0.153219 0.150837 0.725181 0.158706
C52   C     C_R   0.273089 0.117571 0.813262 0.162270
C53   C     C_R   0.420167 0.132355 0.867877 -0.163410
C54   C     C_R   0.559584 0.193719 0.872512 0.334406
C55   C     C_R   0.547042 0.239332 0.825826 -0.132399
H12   H     H_    0.652276 0.286810 0.831030 0.140542
C56   C     C_R   0.401987 0.223869 0.772355 -0.025642
O11   O     O_R   0.273230 0.084330 0.086440 -0.540822
O12   O     O_R   0.596660 0.069390 0.940470 -0.548770
O13   O     O_R   0.760270 0.915710 0.913690 -0.550652
C57   C     C_R   0.428175 0.084332 0.918583 0.696278
O14   O     O_R   0.603330 0.093680 0.087390 -0.527157
O15   O     O_R   0.766990 0.940160 0.061660 -0.531605
C58   C     C_R   0.435995 0.115458 0.116201 0.809737
O16   O     O_R   0.266510 0.059870 0.938470 -0.550620
O17   O     O_3   0.431050 0.949630 0.991510 -0.363509
V3    V     V_3+5 0.708490 0.009340 0.001580 1.460700
O18   O     O_R   0.096270 0.930570 0.059390 -0.525834
C59   C     C_R   0.926719 0.915843 0.081078 0.771544
O19   O     O_R   0.089600 0.906290 0.912460 -0.522313
C60   C     C_R   0.918647 0.882400 0.885659 0.778151
V4    V     V_3+5 0.207670 0.990600 0.998190 1.476843
O20   O     O_3   0.935250 0.050360 0.008480 -0.380845
O21   O     O_3   0.211605 0.682943 0.252903 -0.646215
H13   H     H_    0.195284 0.705445 0.213004 0.291821
O22   O     O_3   0.774634 0.004858 0.693883 -0.637724
H14   H     H_    0.761445 0.010865 0.645286 0.326515
N1    N     N_3   0.814527 0.886432 0.554105 -0.692099
H15   H     H_    0.710155 0.848823 0.520136 0.263517
H16   H     H_    0.947128 0.878994 0.527784 0.239275
O23   O     O_3   0.897740 0.727458 0.551855 -0.651969
H17   H     H_    0.936809 0.751107 0.514549 0.289468
N2    N     N_3   0.792138 0.497438 0.817908 -0.634920
H18   H     H_    0.810324 0.493656 0.870093 0.227922
H19   H     H_    0.645349 0.487161 0.804753 0.223268
O24   O     O_3   0.018436 0.770006 0.942664 -0.658670
H20   H     H_    0.045641 0.744666 0.980157 0.279819
O25   O     O_3   0.244387 0.271964 0.443084 -0.649926
H21   H     H_    0.206497 0.249281 0.481293 0.328083
N3    N     N_3   0.324910 0.119268 0.452703 -0.656468
H22   H     H_    0.455723 0.099618 0.467177 0.261440
H23   H     H_    0.223589 0.072454 0.442568 0.233043
O26   O     O_3   0.505390 0.029642 0.200224 -0.652426
H24   H     H_    0.520505 0.980522 0.213404 0.277603
N4    N     N_3   0.461270 0.364154 0.043721 -0.641357
H25   H     H_    0.437125 0.423485 0.047822 0.222200
H26   H     H_    0.606906 0.353921 0.031267 0.259707
N5    N     N_3   0.286657 0.470157 0.299015 -0.682025
H27   H     H_    0.387113 0.517036 0.307273 0.241515
H28   H     H_    0.154585 0.486831 0.282736 0.226767
N6    N     N_3   0.666667 0.201721 0.651090 -0.610212
H29   H     H_    0.758286 0.215833 0.696651 0.229283
H30   H     H_    0.600787 0.146216 0.644056 0.243293
O27   O     O_3   0.628167 0.291859 0.560809 -0.608142
H31   H     H_    0.719202 0.338111 0.573080 0.295565
N7    N     N_3   0.079476 0.431771 0.701775 -0.620943
H32   H     H_    0.142399 0.487178 0.706284 0.224217
H33   H     H_    0.978933 0.415758 0.658942 0.235150
O28   O     O_3   0.537279 0.688799 0.409690 -0.631831
H34   H     H_    0.437407 0.722635 0.398893 0.336733
N8    N     N_3   0.131763 0.054942 0.801974 -0.633252
H35   H     H_    0.040453 0.069199 0.846614 0.232770
H36   H     H_    0.201617 0.001653 0.796922 0.227568
O29   O     O_3   0.704788 0.212944 0.924127 -0.647475
H37   H     H_    0.790586 0.166490 0.911693 0.297285
N9    N     N_3   0.568960 0.794033 0.326107 -0.658314
H38   H     H_    0.628956 0.851710 0.341534 0.235951
H39   H     H_    0.511859 0.779958 0.273571 0.256469
N10   N     N_3   0.637085 0.784937 0.064182 -0.667482
H40   H     H_    0.542911 0.832310 0.072117 0.255212
H41   H     H_    0.706912 0.775312 0.014862 0.242530
N11   N     N_3   0.139665 0.877101 0.309993 -0.646803
H42   H     H_    0.097215 0.934876 0.339205 0.225708
H43   H     H_    0.282831 0.881167 0.295173 0.227526

loop_
_geom_bond_atom_site_label_1
_geom_bond_atom_site_label_2
_ccdc_geom_bond_type
C25   C26   A    
N1    H15   S    
C36   C40   A    
H4    C29   S    
V4    O20   S    
C1    O6    A    
C53   C57   S    
N11   H42   S    
C52   N8    S    
V1    O10   S    
C34   C35   A    
C37   C38   A    
C12   C13   A    
C32   N3    S    
C20   C21   A    
C21   C22   A    
C11   C12   A    
C22   C26   A    
O5    C3    A    
C15   C16   A    
O11   V4    S    
C55   C56   A    
N2    H18   S    
V2    O10   S    
O26   H24   S    
C5    C6    A    
C18   C19   A    
C51   H11   S    
N4    H25   S    
N11   H43   S    
C2    C47   S    
C47   C48   A    
O8    V2    S    
C24   C27   A    
C45   C50   A    
C19   C20   A    
O28   H34   S    
C25   C30   A    
C49   H10   S    
O1    V2    S    
C27   H6    S    
C6    C7    A    
C34   O26   S    
C45   C46   A    
O16   V4    S    
O19   V4    S    
O1    C2    A    
O9    C4    A    
C51   C52   A    
C42   C43   A    
O23   H17   S    
C44   N5    S    
O21   H13   S    
C12   N10   S    
O14   C58   A    
C21   C23   A    
C35   C37   A    
C32   C33   A    
C4    C7    S    
C53   C54   A    
N3    H22   S    
C33   H8    S    
C23   C24   A    
O4    C2    A    
C55   H12   S    
C6    H1    S    
C37   C58   S    
N8    H36   S    
C31   C32   A    
C39   C40   A    
C54   C55   A    
O13   C60   A    
C9    N9    S    
C46   C47   A    
C41   C42   A    
C10   C16   S    
O17   V4    S    
O2    C1    A    
C52   C53   A    
C8    O28   S    
C43   C44   A    
C46   O27   S    
O22   H14   S    
O14   V3    S    
C31   C36   A    
C18   O22   S    
C13   C59   S    
O19   C60   A    
C5    C10   A    
C11   H2    S    
N5    H27   S    
O11   C58   A    
O3    C4    A    
C48   N7    S    
C24   C25   A    
C41   H9    S    
O6    V2    S    
O12   C57   A    
O9    V2    S    
C27   C28   A    
O15   V3    S    
C17   H5    S    
C45   N6    S    
O27   H31   S    
O2    V1    S    
O18   C59   A    
C33   C34   A    
C15   N11   S    
N6    H30   S    
N7    H32   S    
O7    V1    S    
C39   C44   A    
O13   V3    S    
C35   C36   A    
C14   H3    S    
H7    C43   S    
O25   H21   S    
C42   N4    S    
C26   C60   S    
C28   C29   A    
C57   O16   A    
C54   O29   S    
C19   N1    S    
O5    V1    S    
N9    H38   S    
V3    O20   S    
N8    H35   S    
C28   N2    S    
O29   H37   S    
C17   C22   A    
O12   V3    S    
C20   O23   S    
C3    C23   S    
C14   C15   A    
O7    V2    S    
C11   C16   A    
O4    V1    S    
C50   C56   S    
O3    V1    S    
O15   C59   A    
O24   H20   S    
N9    H39   S    
C38   C39   A    
N2    H19   S    
C1    C40   S    
C31   O25   S    
C51   C56   A    
C17   C18   A    
N10   H41   S    
C48   C49   A    
N4    H26   S    
N5    H28   S    
O18   V4    S    
C29   C30   A    
C38   C41   A    
C7    C8    A    
N1    H16   S    
C30   O24   S    
C13   C14   A    
N10   H40   S    
C9    C10   A    
C49   C50   A    
N3    H23   S    
O17   V3    S    
C8    C9    A    
C5    O21   S    
O8    C3    A    
N6    H29   S    
N7    H33   S    
