data_str_m2_o10_o17_f0_pcu.sym.217
_audit_creation_date              2012-12-10T16:44:44-0500
_audit_creation_method            fapswitch 2.2
_symmetry_space_group_name_H-M    P1
_symmetry_Int_Tables_number       1
_space_group_crystal_system       triclinic
_cell_length_a                    14.966938
_cell_length_b                    8.667559
_cell_length_c                    7.451074
_cell_angle_alpha                 102.764158
_cell_angle_beta                  94.104235
_cell_angle_gamma                 92.2761
_cell_volume                      938.766441295

loop_
_atom_site_label
_atom_site_type_symbol
_atom_type_description
_atom_site_fract_x
_atom_site_fract_y
_atom_site_fract_z
_atom_type_partial_charge
C1    C     C_R   0.497320 0.199830 0.453421 0.878522
C2    C     C_R   0.502679 0.800169 0.546579 0.878512
C3    C     C_R   0.034840 0.234957 0.302269 -0.291850
C4    C     C_R   0.965155 0.765117 0.697569 -0.291825
C5    C     C_2   0.496036 0.031982 0.427105 -0.372588
C6    C     C_2   0.503963 0.968018 0.572895 -0.372593
C7    C     C_R   0.329090 0.499615 0.502517 0.799505
C8    C     C_R   0.670910 0.500384 0.497482 0.799514
C9    C     C_R   0.819510 0.631457 0.596899 -0.222928
C10   C     C_R   0.180488 0.368578 0.403032 -0.222941
C11   C     C_R   0.767102 0.501423 0.492845 -0.068449
C12   C     C_R   0.232897 0.498584 0.507144 -0.068439
C13   C     C_R   0.806298 0.370276 0.391041 -0.227528
C14   C     C_R   0.193702 0.629733 0.608948 -0.227607
C15   C     C_R   0.899805 0.365996 0.395658 0.088838
C16   C     C_R   0.100194 0.634054 0.604255 0.088906
C17   C     C_R   0.953106 0.499679 0.498269 0.002657
C18   C     C_R   0.046893 0.500375 0.501631 0.002678
C19   C     C_R   0.912518 0.632660 0.598235 0.093969
C20   C     C_R   0.087479 0.367392 0.401659 0.093956
C21   C     C_R   0.941280 0.231942 0.300355 0.248826
C22   C     C_R   0.058717 0.768140 0.699489 0.248853
Cu1   Cu    Cu3+1 0.510010 0.517380 0.684380 0.953717
Cu2   Cu    Cu3+1 0.489990 0.482620 0.315620 0.953720
H1    H     H_    0.787519 0.732143 0.674964 0.135770
H2    H     H_    0.212478 0.267897 0.324957 0.135803
H3    H     H_    0.763435 0.270998 0.312392 0.173872
H4    H     H_    0.236567 0.728983 0.687654 0.173835
H5    H     H_    0.066499 0.132134 0.228587 0.141861
H6    H     H_    0.933490 0.867951 0.771205 0.141799
H7    H     H_    0.488558 0.960704 0.286502 0.181260
H8    H     H_    0.511441 0.039296 0.713498 0.181262
H9    H     H_    0.430141 0.377741 0.948737 0.226633
H10   H     H_    0.569859 0.622259 0.051263 0.226628
N1    N     N_2   0.474890 0.456420 0.038520 -0.215022
N2    N     N_2   0.525110 0.543580 0.961480 -0.215024
O1    O     O_R   0.506510 0.286130 0.619770 -0.583376
O2    O     O_R   0.493490 0.713870 0.380230 -0.583377
O3    O     O_R   0.489600 0.256770 0.308360 -0.588028
O4    O     O_R   0.510400 0.743230 0.691640 -0.588029
O5    O     O_R   0.378710 0.514640 0.655720 -0.587542
O6    O     O_R   0.621290 0.485360 0.344280 -0.587541
O7    O     O_R   0.361800 0.485290 0.344300 -0.575546
O8    O     O_R   0.638200 0.514710 0.655700 -0.575546
N3    N     N_2   0.889610 0.093295 0.203436 -0.439139
H11   H     H_    0.916174 0.037014 0.083858 0.245868
C23   C     C_3   0.868190 0.983926 0.317505 -0.700846
H12   H     H_    0.930504 0.936059 0.368589 0.234224
H13   H     H_    0.823881 0.883711 0.234863 0.233672
H14   H     H_    0.832406 0.043611 0.437061 0.233656
N4    N     N_2   0.110371 0.906840 0.796319 -0.439083
H15   H     H_    0.083696 0.963369 0.915650 0.245894
C24   C     C_3   0.132008 0.015903 0.682028 -0.700965
H16   H     H_    0.069765 0.063327 0.630001 0.234322
H17   H     H_    0.168156 0.956101 0.563120 0.233647
H18   H     H_    0.176050 0.116453 0.764789 0.233636

loop_
_geom_bond_atom_site_label_1
_geom_bond_atom_site_label_2
_ccdc_geom_bond_type
C6    H8    S    
Cu1   Cu2   S    
C15   C17   A    
C7    O7    A    
Cu2   O6    S    
C2    O2    A    
Cu2   O2    S    
N1    N2    D    
Cu1   O5    S    
C1    O1    A    
C8    O6    A    
C14   H4    S    
C10   H2    S    
C24   H17   S    
C17   C18   A    
C9    H1    S    
C3    C20   A    
C23   H13   S    
Cu1   O1    S    
N3    H11   S    
C24   H18   S    
C9    C11   A    
C8    O8    A    
C2    C6    S    
C15   C21   A    
C10   C12   A    
C8    C11   S    
C1    C5    S    
C17   C19   A    
H10   N2    S    
C12   C14   A    
C23   H14   S    
C21   N3    S    
C13   C15   A    
C5    C6    D    
C14   C16   A    
C7    C12   S    
C3    C21   A    
Cu2   N1    S    
C1    O3    A    
N4    C24   S    
N4    H15   S    
C23   H12   S    
C2    O4    A    
C11   C13   A    
Cu2   O3    S    
C4    C22   A    
C18   C20   A    
C16   C18   A    
Cu1   N2    S    
N3    C23   S    
C3    H5    S    
Cu2   O7    S    
C13   H3    S    
C16   C22   A    
H9    N1    S    
C24   H16   S    
C4    C19   A    
C9    C19   A    
C4    H6    S    
Cu1   O8    S    
Cu1   O4    S    
C7    O5    A    
C10   C20   A    
C22   N4    S    
C5    H7    S    
