data_str_m3_o41_o41_f0_fof.sym.77
_audit_creation_date              2012-12-10T16:39:38-0500
_audit_creation_method            fapswitch 2.2
_symmetry_space_group_name_H-M    P1
_symmetry_Int_Tables_number       1
_space_group_crystal_system       triclinic
_cell_length_a                    16.739175
_cell_length_b                    16.676459
_cell_length_c                    16.890142
_cell_angle_alpha                 65.608569
_cell_angle_beta                  66.08139
_cell_angle_gamma                 66.034643
_cell_volume                      3760.42438265

loop_
_atom_site_label
_atom_site_type_symbol
_atom_type_description
_atom_site_fract_x
_atom_site_fract_y
_atom_site_fract_z
_atom_type_partial_charge
C1    C     C_R   0.312387 0.009321 0.429281 -0.001401
C2    C     C_R   0.332335 0.467047 0.925300 0.049770
C3    C     C_R   0.549227 0.415340 0.975827 0.031204
C4    C     C_R   0.951294 0.485787 0.596784 0.042319
C5    C     C_R   0.038482 0.514001 0.409891 0.038221
C6    C     C_2   0.386328 0.154270 0.756710 0.929250
C7    C     C_2   0.613738 0.861918 0.248563 0.963642
C8    C     C_2   0.168674 0.737383 0.406858 0.937437
C9    C     C_2   0.827964 0.256252 0.600703 0.933561
C10   C     C_2   0.759054 0.380139 0.134562 0.918417
C11   C     C_2   0.240569 0.621899 0.847908 0.971233
C12   C     C_2   0.182124 0.144224 0.470308 0.957263
C13   C     C_R   0.057976 0.667104 0.546839 -0.001113
C14   C     C_2   0.761624 0.135091 0.379785 0.968381
C15   C     C_2   0.619279 0.242853 0.855908 0.950322
C16   C     C_2   0.378511 0.756434 0.125573 0.968807
C17   C     C_2   0.134611 0.481015 0.178065 0.916942
C18   C     C_2   0.854937 0.522484 0.828693 0.918537
C19   C     C_R   0.931431 0.333853 0.457957 -0.001757
C20   C     C_R   0.451474 0.005527 0.446249 -0.044088
C21   C     C_R   0.536621 0.044267 0.535183 -0.044806
C22   C     C_R   0.985408 0.451638 0.456790 -0.052388
C23   C     C_R   0.003142 0.549399 0.549270 -0.041117
C24   C     C_R   0.464612 0.464497 0.956631 -0.045623
C25   C     C_R   0.542660 0.542332 0.017688 -0.045380
C26   C     C_R   0.957958 0.179593 0.439480 0.961617
C27   C     C_R   0.671940 0.062957 0.538339 0.002435
C28   C     C_R   0.038933 0.820227 0.562060 0.899359
C29   C     C_R   0.179714 0.439806 0.958639 0.943186
C30   C     C_R   0.819986 0.561351 0.038798 0.932737
C31   C     C_R   0.438414 0.961543 0.179772 0.916418
C32   C     C_R   0.561878 0.038741 0.820170 0.901337
C33   C     C_R   0.562157 0.820117 0.037198 0.907899
C34   C     C_R   0.437743 0.179829 0.962163 0.927463
C35   C     C_R   0.008408 0.573308 0.827956 0.930628
C36   C     C_R   0.984959 0.428323 0.175068 0.922013
C37   C     C_R   0.820889 0.035978 0.562880 0.916351
C38   C     C_R   0.011779 0.424793 0.314833 0.002778
C39   C     C_R   0.176825 0.978118 0.431240 0.948173
C40   C     C_R   0.408137 0.987443 0.401546 0.059568
C41   C     C_R   0.581375 0.059017 0.580957 0.047577
C42   C     C_R   0.975258 0.404375 0.409975 0.048739
C43   C     C_R   0.013082 0.597330 0.595381 0.073581
C44   C     C_R   0.420456 0.421168 0.937198 0.075068
C45   C     C_R   0.583892 0.583684 0.043163 0.062745
C46   C     C_R   0.270789 0.978505 0.392751 -0.077144
C47   C     C_R   0.721908 0.060084 0.591235 -0.045852
C48   C     C_R   0.982979 0.389504 0.269578 -0.093986
C49   C     C_R   0.977821 0.576497 0.690594 -0.037591
C50   C     C_R   0.007142 0.612671 0.734671 -0.140407
C51   C     C_R   0.409944 0.280003 0.936173 -0.062190
C52   C     C_R   0.589609 0.720322 0.059183 -0.097170
C53   C     C_R   0.590055 0.063563 0.720392 -0.099028
C54   C     C_R   0.408886 0.945504 0.278108 -0.090976
C55   C     C_R   0.719892 0.588541 0.061467 -0.059103
C56   C     C_R   0.279969 0.412718 0.932130 -0.080390
C57   C     C_R   0.055140 0.720881 0.595839 -0.083287
C58   C     C_R   0.936007 0.279859 0.407983 -0.052185
C59   C     C_R   0.438525 0.093779 0.696897 -0.074410
C60   C     C_R   0.463811 0.330837 0.931662 0.018478
C61   C     C_R   0.556539 0.929695 0.300652 -0.175425
C62   C     C_R   0.105923 0.678421 0.453682 -0.086761
C63   C     C_R   0.886236 0.319842 0.552135 -0.173485
C64   C     C_R   0.703968 0.440275 0.069505 -0.019767
C65   C     C_R   0.300873 0.564248 0.908641 -0.221396
C66   C     C_R   0.261893 0.063231 0.490502 -0.106695
C67   C     C_R   0.709510 0.067188 0.444779 -0.099633
C68   C     C_R   0.558844 0.294608 0.923652 -0.109529
C69   C     C_R   0.444615 0.710449 0.054700 -0.178061
C70   C     C_R   0.074979 0.477775 0.270657 -0.065536
C71   C     C_R   0.538525 0.672461 0.053159 0.034411
C72   C     C_R   0.916178 0.521471 0.736413 -0.159452
C73   C     C_R   0.319511 0.946236 0.318903 -0.277149
C74   C     C_R   0.679835 0.063238 0.679270 -0.252698
C75   C     C_R   0.945837 0.317464 0.317132 -0.230330
C76   C     C_R   0.043874 0.684793 0.686666 -0.212023
C77   C     C_R   0.321327 0.322555 0.932549 -0.287272
C78   C     C_R   0.676479 0.676314 0.067784 -0.228231
C79   C     C_R   0.676059 0.026254 0.411268 0.023847
C80   C     C_R   0.304470 0.060456 0.549070 0.039877
C81   C     C_R   0.904722 0.474407 0.689772 0.055724
C82   C     C_R   0.535746 0.071355 0.668070 0.020031
C83   C     C_R   0.087388 0.523135 0.317938 0.036725
C84   C     C_R   0.410667 0.677966 0.012856 0.022385
C85   C     C_R   0.596043 0.328499 0.961260 0.026262
C86   C     C_R   0.598398 0.959095 0.338371 0.033882
C87   C     C_R   0.392950 0.079004 0.650718 0.022447
C88   C     C_R   0.339776 0.605458 0.937737 0.014958
C89   C     C_R   0.668729 0.401625 0.034078 0.043794
C90   C     C_R   0.890089 0.373223 0.597492 0.037934
C91   C     C_R   0.101960 0.624616 0.409137 0.030153
C92   C     C_R   0.729334 0.989698 0.338370 -0.115634
C93   C     C_R   0.459148 0.952522 0.326157 0.033552
C94   C     C_R   0.254561 0.084701 0.629732 -0.123893
C95   C     C_R   0.845790 0.417882 0.732962 -0.161519
C96   C     C_R   0.150109 0.575474 0.276221 -0.162713
C97   C     C_R   0.330151 0.728618 0.986481 -0.184241
C98   C     C_R   0.676639 0.277509 0.987180 -0.185412
C99   C     C_R   0.692275 0.952607 0.305456 -0.228671
C100  C     C_R   0.297748 0.093947 0.679510 -0.191463
C101  C     C_R   0.298638 0.695405 0.944678 -0.194971
C102  C     C_R   0.711096 0.312413 0.024664 -0.156171
C103  C     C_R   0.839613 0.367783 0.688312 -0.204238
C104  C     C_R   0.670527 0.536617 0.058464 0.047166
C105  C     C_R   0.155857 0.626267 0.320011 -0.150640
C106  C     C_R   0.545345 0.994925 0.412638 0.062974
C107  C     C_R   0.443651 0.050661 0.571522 0.045613
C108  C     C_R   0.942880 0.436274 0.550456 0.057248
C109  C     C_R   0.046779 0.563671 0.455923 0.037448
C110  C     C_R   0.420675 0.553761 0.964373 0.061208
C111  C     C_R   0.587718 0.453667 0.007833 0.025238
C112  C     C_R   0.586267 0.020749 0.453590 0.026515
C113  C     C_R   0.400013 0.036950 0.523491 0.027522
C114  C     C_R   0.458838 0.592024 0.996795 0.052705
H1    H     H_    0.285173 0.930037 0.287415 0.218798
H2    H     H_    0.793507 0.325617 0.726070 0.192061
H3    H     H_    0.772866 0.268775 0.043139 0.206922
H4    H     H_    0.239220 0.740144 0.922259 0.168211
H5    H     H_    0.181771 0.094281 0.656536 0.189605
H6    H     H_    0.801301 0.984394 0.309860 0.193582
H7    H     H_    0.711351 0.207926 0.983959 0.194291
H8    H     H_    0.292108 0.796007 0.994064 0.154705
H9    H     H_    0.196632 0.578293 0.209134 0.176039
H10   H     H_    0.803211 0.410659 0.802030 0.188699
H11   H     H_    0.370385 0.269978 0.779708 0.349027
H12   H     H_    0.719958 0.057744 0.719062 0.212879
H13   H     H_    0.677359 0.950503 0.141737 0.297722
H14   H     H_    0.271558 0.769543 0.408883 0.353157
H15   H     H_    0.898354 0.176909 0.692760 0.312113
H16   H     H_    0.778053 0.355657 0.253998 0.359616
H17   H     H_    0.135684 0.679712 0.940723 0.314341
H18   H     H_    0.085817 0.255708 0.503419 0.345994
H19   H     H_    0.847988 0.177306 0.257421 0.361098
H20   H     H_    0.633613 0.214995 0.744591 0.377068
H21   H     H_    0.327827 0.877032 0.038433 0.302788
H22   H     H_    0.192437 0.563456 0.063046 0.331320
H23   H     H_    0.933648 0.283968 0.281747 0.184878
H24   H     H_    0.804765 0.660940 0.792742 0.298620
H25   H     H_    0.057209 0.718227 0.721276 0.220048
H26   H     H_    0.281168 0.282151 0.938283 0.198480
H27   H     H_    0.714351 0.714342 0.070358 0.207242
H28   H     H_    0.254824 0.113033 0.740425 0.192903
H29   H     H_    0.737971 0.921752 0.252285 0.170763
H30   H     H_    0.204826 0.665264 0.282991 0.199677
O1    O     O_R   0.982940 0.138950 0.510160 -0.629533
O2    O     O_R   0.982940 0.510160 0.138950 -0.609977
O3    O     O_R   0.861050 0.017060 0.489840 -0.650741
O4    O     O_R   0.138950 0.982940 0.510160 -0.641143
O5    O     O_R   0.867700 0.025880 0.612340 -0.598036
O6    O     O_R   0.132300 0.974120 0.387660 -0.597576
O7    O     O_R   0.025880 0.612340 0.867700 -0.599021
O8    O     O_R   0.974120 0.387660 0.132300 -0.616261
O9    O     O_R   0.612340 0.867700 0.025880 -0.586767
O10   O     O_R   0.387660 0.132300 0.974120 -0.597516
O11   O     O_R   0.387660 0.974120 0.132300 -0.582234
O12   O     O_R   0.017060 0.861050 0.489840 -0.620780
O13   O     O_R   0.612340 0.025880 0.867700 -0.609525
O14   O     O_R   0.132300 0.387660 0.974120 -0.618749
O15   O     O_R   0.867700 0.612340 0.025880 -0.630246
O16   O     O_R   0.974120 0.132300 0.387660 -0.613502
O17   O     O_R   0.025880 0.867700 0.612340 -0.617591
O18   O     O_2   0.323385 0.135618 0.823650 -0.641250
O19   O     O_R   0.411797 0.232188 0.736559 -0.761647
O20   O     O_2   0.601538 0.786241 0.278110 -0.561632
O21   O     O_R   0.679346 0.883304 0.165468 -0.765646
O22   O     O_2   0.162786 0.797122 0.334911 -0.589696
O23   O     O_R   0.138950 0.510160 0.982940 -0.626374
O24   O     O_R   0.233025 0.725493 0.446644 -0.774301
O25   O     O_2   0.766995 0.267066 0.571929 -0.557809
O26   O     O_R   0.842904 0.182996 0.677862 -0.748322
O27   O     O_2   0.827227 0.318055 0.115790 -0.632738
O28   O     O_R   0.734738 0.398860 0.216057 -0.781477
O29   O     O_2   0.264524 0.612225 0.773056 -0.555978
O30   O     O_R   0.156680 0.685159 0.873967 -0.768843
O31   O     O_2   0.165794 0.168369 0.398152 -0.632955
O32   O     O_R   0.130829 0.197941 0.529256 -0.826840
O33   O     O_2   0.758851 0.196519 0.403532 -0.614830
O34   O     O_R   0.861050 0.489840 0.017060 -0.577515
O35   O     O_R   0.812541 0.130317 0.291943 -0.820781
O36   O     O_2   0.697572 0.196987 0.856376 -0.635114
O37   O     O_R   0.586162 0.249697 0.788773 -0.774115
O38   O     O_2   0.380354 0.717598 0.204195 -0.569216
O39   O     O_R   0.315182 0.842684 0.105469 -0.744799
O40   O     O_2   0.185335 0.410307 0.158904 -0.631006
O41   O     O_R   0.134445 0.566805 0.113961 -0.806189
O42   O     O_2   0.852550 0.449943 0.888769 -0.578215
O43   O     O_R   0.799519 0.605158 0.847966 -0.816440
O44   O     O_R   0.510160 0.982940 0.138950 -0.645213
O45   O     O_R   0.489840 0.017060 0.861050 -0.622826
O46   O     O_R   0.489840 0.861050 0.017060 -0.657833
O47   O     O_R   0.510160 0.138950 0.982940 -0.640642
O48   O     O_R   0.017060 0.489840 0.861050 -0.611635
Zn1   Zn    Zn3+2 0.004880 0.004880 0.583590 1.029186
Zn2   Zn    Zn3+2 0.995120 0.995120 0.416410 1.055442
Zn3   Zn    Zn3+2 0.004880 0.583590 0.004880 1.052090
Zn4   Zn    Zn3+2 0.995120 0.416410 0.995120 1.096868
Zn5   Zn    Zn3+2 0.583590 0.004880 0.004880 1.035616
Zn6   Zn    Zn3+2 0.416410 0.995120 0.995120 1.050559

loop_
_geom_bond_atom_site_label_1
_geom_bond_atom_site_label_2
_ccdc_geom_bond_type
C95   H10   S    
O45   Zn6   S    
C98   H7    S    
C2    C44   A    
C96   C105  A    
C38   C70   A    
C35   O48   A    
C89   C102  A    
C3    C85   A    
C91   C105  A    
C9    O25   D    
C53   C74   A    
C77   H26   S    
H21   O39   S    
C40   C93   A    
C2    C65   A    
C6    O19   S    
C105  H30   S    
C88   C101  A    
C3    C24   A    
C16   O39   S    
C22   C108  A    
C106  C112  A    
C28   C57   S    
C33   C52   S    
O15   Zn3   S    
C4    C108  A    
C39   O6    A    
O47   Zn5   S    
C34   C51   S    
C79   C112  A    
C101  H4    S    
O48   Zn4   S    
C57   C76   A    
C99   H29   S    
C34   O47   A    
C38   C42   A    
C20   C113  A    
O10   Zn6   S    
C16   O38   D    
C1    C46   A    
O9    Zn5   S    
C87   C100  A    
C83   C96   A    
C10   O28   S    
O34   Zn4   S    
C18   O43   S    
C23   C43   A    
O3    Zn2   S    
C64   C104  A    
H18   O32   S    
O7    Zn3   S    
C69   C71   A    
C7    C61   S    
C54   C93   A    
C85   C98   A    
C8    O24   S    
C1    C40   A    
O5    Zn1   S    
O6    Zn2   S    
C5    C22   A    
C6    O18   D    
C19   C63   A    
C49   C72   A    
C39   O4    A    
C28   O17   A    
C84   C114  A    
C14   C67   S    
C59   C82   A    
C26   O16   A    
C37   C47   S    
C110  C114  A    
O1    Zn1   S    
C72   C81   A    
C19   C42   A    
C12   O32   S    
C88   C110  A    
C7    O21   S    
C17   C70   S    
C15   O36   D    
C68   C85   A    
C48   C75   A    
C9    O26   S    
H11   O19   S    
C35   O7    A    
C64   C89   A    
C52   C78   A    
C95   C103  A    
C58   C75   A    
C36   C48   S    
C20   C106  A    
C34   O10   A    
C19   C58   A    
C18   C72   S    
C30   O15   A    
C23   C109  A    
C43   C49   A    
C11   O29   D    
C4    C81   A    
C61   C86   A    
C107  C113  A    
H15   O26   S    
C24   C110  A    
C75   H23   S    
C78   H27   S    
H16   O28   S    
C55   C78   A    
O8    Zn4   S    
H19   O35   S    
C10   O27   D    
C98   C102  A    
C12   C66   S    
C55   C104  A    
C18   O42   D    
O14   Zn4   S    
C56   C77   A    
C15   C68   S    
C33   O46   A    
C31   O44   A    
C26   O1    A    
O12   Zn2   S    
C51   C77   A    
C97   H8    S    
C86   C99   A    
C45   C104  A    
C50   C76   A    
C54   C73   A    
C94   H5    S    
C27   C41   A    
C94   C100  A    
H13   O21   S    
C28   O12   A    
C62   C91   A    
C35   C50   S    
C1    C66   A    
C30   O34   A    
O17   Zn1   S    
C37   O3    A    
C70   C83   A    
C26   C58   S    
C79   C92   A    
C21   C107  A    
C102  H3    S    
C8    O22   D    
C12   O31   D    
C21   C41   A    
C13   C62   A    
C36   O2    A    
C39   C46   S    
C24   C44   A    
O23   Zn3   S    
C84   C97   A    
H20   O37   S    
C80   C94   A    
C81   C95   A    
C25   C45   A    
C32   C53   S    
C13   C43   A    
C21   C112  A    
C45   C71   A    
O46   Zn6   S    
C65   C88   A    
O16   Zn2   S    
C32   O13   A    
C30   C55   S    
C76   H25   S    
C27   C47   A    
C4    C23   A    
C11   O30   S    
O11   Zn6   S    
C96   H9    S    
C9    C63   S    
C38   C48   A    
C6    C59   S    
C36   O8    A    
C16   C69   S    
C14   O35   S    
C47   C74   A    
C37   O5    A    
C87   C107  A    
C31   O11   A    
C5    C83   A    
C29   O14   A    
C29   C56   S    
C66   C80   A    
C7    O20   D    
C89   C111  A    
H17   O30   S    
C10   C64   S    
C73   H1    S    
C91   C109  A    
C86   C106  A    
C92   H6    S    
C33   O9    A    
C90   C108  A    
C67   C79   A    
C52   C71   A    
C100  H28   S    
C25   C114  A    
C17   O40   D    
C29   O23   A    
C74   H12   S    
C5    C109  A    
O44   Zn5   S    
C44   C60   A    
C103  H2    S    
C20   C40   A    
C41   C82   A    
C15   O37   S    
C63   C90   A    
C32   O45   A    
H24   O43   S    
O13   Zn5   S    
C31   C54   S    
C17   O41   S    
C59   C87   A    
C90   C103  A    
C14   O33   D    
C27   C67   A    
C69   C84   A    
C25   C111  A    
C3    C111  A    
O4    Zn1   S    
C13   C57   A    
C80   C113  A    
C60   C68   A    
H22   O41   S    
C49   C50   A    
C22   C42   A    
H14   O24   S    
C53   C82   A    
C2    C56   A    
C51   C60   A    
O2    Zn3   S    
C61   C93   A    
C46   C73   A    
C97   C101  A    
C11   C65   S    
C92   C99   A    
C8    C62   S    
