data_str_m4_o15_o24_f0_acs.sym.74
_audit_creation_date              2012-12-11T14:28:30-0500
_audit_creation_method            fapswitch 2.2
_symmetry_space_group_name_H-M    P1
_symmetry_Int_Tables_number       1
_space_group_crystal_system       triclinic
_cell_length_a                    10.937161
_cell_length_b                    19.304706
_cell_length_c                    18.789513
_cell_angle_alpha                 89.965355
_cell_angle_beta                  90.332703
_cell_angle_gamma                 90.070872
_cell_volume                      3967.12230041

loop_
_atom_site_label
_atom_site_type_symbol
_atom_type_description
_atom_site_fract_x
_atom_site_fract_y
_atom_site_fract_z
_atom_type_partial_charge
C1    C     C_R   0.319082 0.962847 0.643977 0.554864
C2    C     C_R   0.318885 0.961860 0.856471 0.557587
C3    C     C_R   0.319337 0.037342 0.356170 0.553915
C4    C     C_R   0.318947 0.036805 0.144120 0.544188
C5    C     C_R   0.818438 0.462936 0.644092 0.546442
C6    C     C_R   0.818885 0.461855 0.856474 0.555742
C7    C     C_R   0.818750 0.537689 0.356308 0.544130
C8    C     C_R   0.818947 0.536810 0.144117 0.541813
C9    C     C_3   0.135354 0.689990 0.479437 -0.088678
C10   C     C_3   0.155124 0.732282 0.037985 -0.115778
C11   C     C_3   0.138512 0.307828 0.522081 -0.088804
C12   C     C_3   0.134440 0.311370 0.979628 -0.088247
C13   C     C_3   0.654857 0.231558 0.462890 -0.115476
C14   C     C_3   0.655106 0.232273 0.037986 -0.116217
C15   C     C_3   0.654814 0.769099 0.537574 -0.114059
C16   C     C_3   0.634482 0.811332 0.979607 -0.088685
C17   C     C_3   0.033962 0.727053 0.437332 0.039654
C18   C     C_3   0.022516 0.725543 0.062018 0.038744
C19   C     C_3   0.033522 0.272663 0.562437 0.040487
C20   C     C_3   0.033777 0.273616 0.937431 0.038164
C21   C     C_3   0.522309 0.224700 0.437946 0.039148
C22   C     C_3   0.522497 0.225532 0.062015 0.039039
C23   C     C_3   0.522240 0.775287 0.561804 0.038247
C24   C     C_3   0.533761 0.773621 0.937433 0.038380
C25   C     C_R   0.323807 0.016786 0.429157 -0.021741
C26   C     C_R   0.322563 0.014844 0.071546 -0.030758
C27   C     C_R   0.323471 0.983768 0.571190 -0.023138
C28   C     C_R   0.321993 0.981733 0.929527 -0.011808
C29   C     C_R   0.820971 0.517180 0.429313 -0.021184
C30   C     C_R   0.822567 0.514849 0.071544 -0.031058
C31   C     C_R   0.820329 0.484709 0.571595 -0.020851
C32   C     C_R   0.821995 0.481733 0.929527 -0.011398
C33   C     C_R   0.548044 0.990954 0.427534 -0.078015
C34   C     C_R   0.548987 0.995838 0.073647 -0.086819
C35   C     C_R   0.548244 0.009219 0.574173 -0.076430
C36   C     C_R   0.544873 0.010091 0.926976 -0.081934
C37   C     C_R   0.045902 0.495855 0.428307 -0.095014
C38   C     C_R   0.048990 0.495837 0.073647 -0.086816
C39   C     C_R   0.045238 0.506042 0.574872 -0.091107
C40   C     C_R   0.044879 0.510088 0.926975 -0.082107
C41   C     C_R   0.658080 0.993611 0.464786 -0.138507
C42   C     C_R   0.657550 0.002208 0.036621 -0.115696
C43   C     C_R   0.658254 0.006122 0.537645 -0.137885
C44   C     C_R   0.655289 0.012119 0.963516 -0.145391
C45   C     C_R   0.154907 0.496349 0.465690 -0.131142
C46   C     C_R   0.157553 0.502198 0.036620 -0.115499
C47   C     C_R   0.154657 0.503754 0.538895 -0.125494
C48   C     C_R   0.155295 0.512109 0.963515 -0.145317
C49   C     C_R   0.436036 0.999255 0.537718 -0.025456
C50   C     C_R   0.434278 0.997200 0.963514 -0.013109
C51   C     C_R   0.436057 0.001013 0.463307 -0.026543
C52   C     C_R   0.435088 0.000157 0.037749 -0.027299
C53   C     C_R   0.932676 0.499171 0.538017 -0.012571
C54   C     C_R   0.934281 0.497200 0.963513 -0.013057
C55   C     C_R   0.933062 0.503088 0.463961 -0.012036
C56   C     C_R   0.935091 0.500161 0.037748 -0.027344
C57   C     C_R   0.213189 0.981978 0.530774 0.014837
C58   C     C_R   0.210259 0.981642 0.968474 0.007585
C59   C     C_R   0.213460 0.018767 0.468940 0.015432
C60   C     C_R   0.211604 0.016751 0.031458 0.003265
C61   C     C_R   0.708183 0.484488 0.532232 -0.003792
C62   C     C_R   0.710260 0.481642 0.968475 0.008058
C63   C     C_R   0.708593 0.517494 0.467844 -0.004212
C64   C     C_R   0.711606 0.516753 0.031458 0.003250
C65   C     C_R   0.100931 0.949694 0.550072 -0.055743
C66   C     C_R   0.094737 0.954606 0.945466 -0.067484
C67   C     C_R   0.101387 0.050897 0.448703 -0.056789
C68   C     C_R   0.101397 0.051257 0.050611 -0.068926
C69   C     C_R   0.594084 0.455311 0.554298 -0.082644
C70   C     C_R   0.594740 0.454597 0.945474 -0.067552
C71   C     C_R   0.594894 0.546599 0.444687 -0.083036
C72   C     C_R   0.601396 0.551250 0.050617 -0.069119
C73   C     C_R   0.990190 0.972554 0.522169 -0.104622
C74   C     C_R   0.986133 0.980473 0.971193 -0.094271
C75   C     C_R   0.990390 0.027416 0.474901 -0.105005
C76   C     C_R   0.989680 0.032568 0.021116 -0.103429
C77   C     C_R   0.484585 0.476161 0.525046 -0.092690
C78   C     C_R   0.486133 0.480447 0.971218 -0.094357
C79   C     C_R   0.484980 0.525405 0.472318 -0.092848
C80   C     C_R   0.489677 0.532543 0.021142 -0.103562
C81   C     C_R   0.131686 0.757984 0.644028 0.530793
C82   C     C_R   0.137638 0.759060 0.858104 0.535429
C83   C     C_R   0.132260 0.241923 0.356106 0.528360
C84   C     C_R   0.131464 0.242177 0.144112 0.528007
C85   C     C_R   0.636947 0.258907 0.642096 0.539656
C86   C     C_R   0.637640 0.259061 0.858106 0.538338
C87   C     C_R   0.637228 0.741062 0.357999 0.536240
C88   C     C_R   0.631473 0.742175 0.144110 0.531319
C89   C     C_R   0.496054 0.787845 0.637536 0.553078
C90   C     C_R   0.500725 0.786638 0.862750 0.555130
C91   C     C_R   0.496075 0.211996 0.362221 0.552759
C92   C     C_R   0.496294 0.212374 0.137556 0.552891
C93   C     C_R   0.000808 0.286313 0.637002 0.557214
C94   C     C_R   0.000737 0.286633 0.862750 0.556175
C95   C     C_R   0.001070 0.713546 0.362758 0.556492
C96   C     C_R   0.996305 0.712379 0.137555 0.554077
C97   C     C_3   0.072102 0.796863 0.467743 -0.012046
C98   C     C_3   0.987173 0.789132 0.018507 -0.007128
C99   C     C_3   0.067667 0.202387 0.531819 -0.012977
C100  C     C_3   0.073046 0.204064 0.967849 -0.011638
C101  C     C_3   0.486637 0.288295 0.480971 -0.006922
C102  C     C_3   0.487156 0.289123 0.018508 -0.007332
C103  C     C_3   0.487201 0.711489 0.518696 -0.007584
C104  C     C_3   0.572960 0.704064 0.967858 -0.010974
C105  C     C_3   0.173454 0.760905 0.510401 -0.129785
C106  C     C_3   0.119848 0.796739 0.994345 -0.145102
C107  C     C_3   0.172435 0.236471 0.490862 -0.131007
C108  C     C_3   0.173554 0.240676 0.010644 -0.128078
C109  C     C_3   0.619309 0.296119 0.506016 -0.144646
C110  C     C_3   0.619833 0.296735 0.994352 -0.145839
C111  C     C_3   0.619852 0.704234 0.494456 -0.145324
C112  C     C_3   0.673524 0.740633 0.010630 -0.128664
C113  C     C_3   0.082534 0.749845 0.571503 0.034695
C114  C     C_3   0.089998 0.749209 0.930575 0.038059
C115  C     C_3   0.083721 0.249984 0.428606 0.035098
C116  C     C_3   0.082196 0.250938 0.071664 0.035440
C117  C     C_3   0.589216 0.248703 0.569633 0.038392
C118  C     C_3   0.589993 0.249210 0.930575 0.037805
C119  C     C_3   0.589256 0.751308 0.430369 0.037782
C120  C     C_3   0.582218 0.750935 0.071660 0.035042
C121  C     C_3   0.981331 0.787865 0.529497 -0.143424
C122  C     C_3   0.956545 0.742816 0.953759 -0.157941
C123  C     C_3   0.979030 0.213759 0.468796 -0.144650
C124  C     C_3   0.981770 0.212451 0.029471 -0.143639
C125  C     C_3   0.455917 0.242143 0.545536 -0.159482
C126  C     C_3   0.456538 0.242813 0.953753 -0.157465
C127  C     C_3   0.455835 0.757314 0.453754 -0.158703
C128  C     C_3   0.481738 0.712491 0.029490 -0.143416
C129  C     C_3   0.943258 0.716656 0.498061 -0.153307
C130  C     C_3   0.992039 0.678080 0.998667 -0.143384
C131  C     C_3   0.944995 0.285471 0.500401 -0.153345
C132  C     C_3   0.942845 0.283495 0.998064 -0.155364
C133  C     C_3   0.491622 0.177387 0.501112 -0.144352
C134  C     C_3   0.492027 0.178074 0.998658 -0.142933
C135  C     C_3   0.490904 0.822346 0.498269 -0.144268
C136  C     C_3   0.442881 0.783542 0.998079 -0.154916
C137  C     C_3   0.044551 0.679697 0.541071 -0.095751
C138  C     C_3   0.126029 0.684891 0.974197 -0.092116
C139  C     C_3   0.049932 0.320579 0.459265 -0.094756
C140  C     C_3   0.043423 0.321013 0.041249 -0.096736
C141  C     C_3   0.625484 0.184153 0.526540 -0.089774
C142  C     C_3   0.626018 0.184888 0.974192 -0.091893
C143  C     C_3   0.624795 0.816131 0.473539 -0.090486
C144  C     C_3   0.543519 0.821016 0.041239 -0.096539
Cr1   Cr    Cr6+3 0.488160 0.884660 0.750000 0.996353
Cr2   Cr    Cr6+3 0.488160 0.115340 0.250000 0.994409
Cr3   Cr    Cr6+3 0.988160 0.384660 0.750000 0.996738
Cr4   Cr    Cr6+3 0.988160 0.615340 0.250000 0.994935
Cr5   Cr    Cr6+3 0.173480 0.883120 0.750000 1.008972
Cr6   Cr    Cr6+3 0.173480 0.116880 0.250000 1.003489
Cr7   Cr    Cr6+3 0.673480 0.383120 0.750000 1.003648
Cr8   Cr    Cr6+3 0.673480 0.616880 0.250000 0.997981
Cr9   Cr    Cr6+3 0.333410 0.727260 0.750000 1.053043
Cr10  Cr    Cr6+3 0.333410 0.272740 0.250000 1.062563
Cr11  Cr    Cr6+3 0.833410 0.227260 0.750000 1.045293
Cr12  Cr    Cr6+3 0.833410 0.772740 0.250000 1.055102
H1    H     H_    0.262615 0.784453 0.522353 0.098612
H2    H     H_    0.172915 0.844916 0.997983 0.101647
H3    H     H_    0.259955 0.210800 0.480204 0.097640
H4    H     H_    0.263120 0.217737 0.022676 0.099701
H5    H     H_    0.671804 0.344561 0.503619 0.103341
H6    H     H_    0.672886 0.344916 0.998016 0.101340
H7    H     H_    0.672612 0.656007 0.498350 0.104799
H8    H     H_    0.763062 0.717657 0.022625 0.099721
H9    H     H_    0.905738 0.948829 0.538760 0.093212
H10   H     H_    0.900836 0.960442 0.950861 0.110602
H11   H     H_    0.906231 0.051159 0.457420 0.093950
H12   H     H_    0.907265 0.058327 0.037296 0.091280
H13   H     H_    0.401118 0.453333 0.543880 0.110366
H14   H     H_    0.400836 0.460411 0.950891 0.110642
H15   H     H_    0.401938 0.548169 0.452278 0.109898
H16   H     H_    0.407263 0.558300 0.037327 0.091293
H17   H     H_    0.919229 0.827469 0.551695 0.100067
H18   H     H_    0.877495 0.748129 0.916842 0.123762
H19   H     H_    0.916369 0.174714 0.445480 0.100657
H20   H     H_    0.918892 0.173667 0.052377 0.098902
H21   H     H_    0.377388 0.247591 0.582249 0.122792
H22   H     H_    0.377491 0.248131 0.916835 0.124505
H23   H     H_    0.376690 0.751432 0.416993 0.123240
H24   H     H_    0.418863 0.673712 0.052415 0.098970
H25   H     H_    0.853230 0.694535 0.487508 0.101843
H26   H     H_    0.934387 0.631427 0.001694 0.125272
H27   H     H_    0.856057 0.309827 0.508317 0.101804
H28   H     H_    0.852635 0.305037 0.987108 0.100975
H29   H     H_    0.433511 0.131049 0.497758 0.122092
H30   H     H_    0.434365 0.131424 0.001679 0.125160
H31   H     H_    0.432421 0.868532 0.501163 0.122812
H32   H     H_    0.352710 0.805127 0.987159 0.101023
H33   H     H_    0.029381 0.635254 0.576525 0.133616
H34   H     H_    0.189108 0.644404 0.955141 0.138994
H35   H     H_    0.039913 0.365914 0.424291 0.135656
H36   H     H_    0.027655 0.365699 0.076338 0.132754
H37   H     H_    0.686751 0.142525 0.545850 0.141570
H38   H     H_    0.689104 0.144406 0.955136 0.138930
H39   H     H_    0.685705 0.857863 0.454354 0.140557
H40   H     H_    0.527888 0.865708 0.076315 0.133522
H41   H     H_    0.197743 0.650307 0.457263 0.141536
H42   H     H_    0.234212 0.728425 0.074850 0.134640
H43   H     H_    0.203047 0.346159 0.545294 0.139186
H44   H     H_    0.196011 0.351596 0.957458 0.145382
H45   H     H_    0.733321 0.227925 0.426177 0.134181
H46   H     H_    0.734203 0.228405 0.074846 0.133949
H47   H     H_    0.734068 0.773464 0.574254 0.135115
H48   H     H_    0.696080 0.851528 0.957425 0.145379
H49   H     H_    0.742546 0.986029 0.436509 0.109694
H50   H     H_    0.742304 0.001781 0.065834 0.143382
H51   H     H_    0.743009 0.013178 0.566455 0.111154
H52   H     H_    0.737957 0.023271 0.934714 0.104744
H53   H     H_    0.238236 0.491736 0.436649 0.144037
H54   H     H_    0.242305 0.501763 0.065834 0.143376
H55   H     H_    0.237796 0.506808 0.569103 0.143415
H56   H     H_    0.237967 0.523254 0.934713 0.104820
H57   H     H_    0.552594 0.979403 0.371418 0.145457
H58   H     H_    0.557059 0.985325 0.129861 0.145442
H59   H     H_    0.553007 0.020883 0.630297 0.145298
H60   H     H_    0.547858 0.022141 0.870932 0.146140
H61   H     H_    0.052973 0.485021 0.372214 0.144874
H62   H     H_    0.057061 0.485326 0.129861 0.145099
H63   H     H_    0.051682 0.517326 0.630980 0.143607
H64   H     H_    0.047866 0.522136 0.870930 0.145603
H65   H     H_    0.097512 0.094841 0.414155 0.164249
H66   H     H_    0.099687 0.094948 0.085434 0.169267
H67   H     H_    0.096687 0.906009 0.585008 0.163160
H68   H     H_    0.084402 0.912438 0.908785 0.166646
H69   H     H_    0.586785 0.588702 0.407874 0.173214
H70   H     H_    0.599685 0.594948 0.085432 0.169549
H71   H     H_    0.585152 0.413262 0.591198 0.171023
H72   H     H_    0.584407 0.412434 0.908788 0.166828
O1    O     O_R   0.575450 0.828820 0.667950 -0.514306
O2    O     O_R   0.575450 0.828820 0.832050 -0.519949
O3    O     O_R   0.575450 0.171180 0.332050 -0.515688
O4    O     O_R   0.575450 0.171180 0.167950 -0.516136
O5    O     O_R   0.075450 0.328820 0.667950 -0.518940
O6    O     O_R   0.075450 0.328820 0.832050 -0.518929
O7    O     O_R   0.075450 0.671180 0.332050 -0.520360
O8    O     O_R   0.075450 0.671180 0.167950 -0.514954
O9    O     O_R   0.416860 0.942890 0.674680 -0.532808
O10   O     O_R   0.416860 0.942890 0.825320 -0.531780
O11   O     O_R   0.416860 0.057110 0.325320 -0.532688
O12   O     O_R   0.416860 0.057110 0.174680 -0.530862
O13   O     O_R   0.916860 0.442890 0.674680 -0.529270
O14   O     O_R   0.916860 0.442890 0.825320 -0.531961
O15   O     O_R   0.916860 0.557110 0.325320 -0.529243
O16   O     O_R   0.916860 0.557110 0.174680 -0.530742
O17   O     O_R   0.213790 0.953680 0.668330 -0.505730
O18   O     O_R   0.213790 0.953680 0.831670 -0.510346
O19   O     O_R   0.213790 0.046320 0.331670 -0.507359
O20   O     O_R   0.213790 0.046320 0.168330 -0.519262
O21   O     O_R   0.713790 0.453680 0.668330 -0.524523
O22   O     O_R   0.713790 0.453680 0.831670 -0.512761
O23   O     O_R   0.713790 0.546320 0.331670 -0.526578
O24   O     O_R   0.713790 0.546320 0.168330 -0.522196
O25   O     O_R   0.121360 0.817890 0.672660 -0.535165
O26   O     O_R   0.121360 0.817890 0.827340 -0.531510
O27   O     O_R   0.121360 0.182110 0.327340 -0.536987
O28   O     O_R   0.121360 0.182110 0.172660 -0.535321
O29   O     O_R   0.621360 0.317890 0.672660 -0.528752
O30   O     O_R   0.621360 0.317890 0.827340 -0.530167
O31   O     O_R   0.621360 0.682110 0.327340 -0.530746
O32   O     O_R   0.621360 0.682110 0.172660 -0.533920
O33   O     O_R   0.206850 0.711370 0.665820 -0.500265
O34   O     O_R   0.206850 0.711370 0.834180 -0.530285
O35   O     O_R   0.206850 0.288630 0.334180 -0.500980
O36   O     O_R   0.206850 0.288630 0.165820 -0.502036
O37   O     O_R   0.706850 0.211370 0.665820 -0.528509
O38   O     O_R   0.706850 0.211370 0.834180 -0.529075
O39   O     O_R   0.706850 0.788630 0.334180 -0.529413
O40   O     O_R   0.706850 0.788630 0.165820 -0.501164
O41   O     O_R   0.457710 0.733190 0.672630 -0.475733
O42   O     O_R   0.457710 0.733190 0.827370 -0.482269
O43   O     O_R   0.457710 0.266810 0.327370 -0.479522
O44   O     O_R   0.457710 0.266810 0.172630 -0.480291
O45   O     O_R   0.957710 0.233190 0.672630 -0.479716
O46   O     O_R   0.957710 0.233190 0.827370 -0.480130
O47   O     O_R   0.957710 0.766810 0.327370 -0.482520
O48   O     O_R   0.957710 0.766810 0.172630 -0.477332
O49   O     O_3   0.331690 0.831680 0.750000 -0.312094
O50   O     O_3   0.331690 0.168320 0.250000 -0.312626
O51   O     O_3   0.831690 0.331680 0.750000 -0.306524
O52   O     O_3   0.831690 0.668320 0.250000 -0.307049
C145  C     C_1   0.092491 0.855243 0.419256 0.213078
N1    N     N_1   0.108237 0.899866 0.379246 -0.265385
C146  C     C_1   0.911264 0.843979 0.048473 0.217957
N2    N     N_1   0.851370 0.886300 0.074125 -0.311542
C147  C     C_1   0.082858 0.143314 0.580175 0.214644
N3    N     N_1   0.094603 0.098187 0.620133 -0.259213
C148  C     C_1   0.096563 0.146518 0.918909 0.215554
N4    N     N_1   0.115132 0.102755 0.878401 -0.259987
C149  C     C_1   0.409670 0.341838 0.449275 0.217973
N5    N     N_1   0.349007 0.382887 0.421762 -0.313640
C150  C     C_1   0.411233 0.343962 0.048476 0.217198
N6    N     N_1   0.351329 0.386276 0.074132 -0.311955
C151  C     C_1   0.410932 0.657672 0.550156 0.218020
N7    N     N_1   0.350767 0.616420 0.577442 -0.312688
C152  C     C_1   0.596360 0.646503 0.918939 0.215250
N8    N     N_1   0.614821 0.602723 0.878445 -0.266288

loop_
_geom_bond_atom_site_label_1
_geom_bond_atom_site_label_2
_ccdc_geom_bond_type
C6    C32   S    
Cr1   O2    S    
C7    C29   S    
C119  C143  S    
C38   H62   S    
C150  N6    T    
C120  C144  S    
C74   H10   S    
C110  C118  S    
C24   C104  S    
C100  C148  S    
C16   C144  S    
C70   H72   S    
C57   C59   A    
C8    O16   A    
C58   C60   A    
C10   H42   S    
C62   C70   A    
C61   C63   A    
C62   C64   A    
Cr10  O35   S    
C121  H17   S    
C48   H56   S    
C49   C51   A    
C34   C42   A    
C84   O28   A    
Cr4   O15   S    
C50   C52   A    
C23   C89   S    
C128  H24   S    
C97   C105  S    
C53   C55   A    
C40   H64   S    
C41   C43   A    
C90   O42   A    
C42   C44   A    
C20   C132  S    
Cr10  O44   S    
C21   C133  S    
C45   C47   A    
C112  H8    S    
C46   C48   A    
C115  C123  S    
C6    O22   A    
C27   C57   A    
C87   O31   A    
C112  C120  S    
C81   O25   A    
C33   H57   S    
C98   C146  S    
C94   O6    A    
C29   C55   A    
C46   H54   S    
C30   C56   A    
C100  C124  S    
C68   H66   S    
C15   C111  S    
C104  C128  S    
C12   C20   S    
C142  H38   S    
C13   C21   S    
C85   C117  S    
Cr11  O37   S    
C115  C139  S    
C113  C137  S    
C36   C44   A    
C33   C51   A    
C80   H16   S    
C37   C45   A    
C130  C138  S    
C36   C50   A    
C39   C47   A    
C40   C48   A    
C20   C94   S    
C133  C141  S    
Cr1   O49   S    
C24   C90   S    
C15   H47   S    
C28   C58   A    
C98   C106  S    
Cr5   O26   S    
C33   C41   A    
C111  H7    S    
C1    O17   A    
C10   C18   S    
C76   H12   S    
Cr12  O48   S    
C2    C28   S    
C83   O35   A    
C32   C62   A    
C129  C137  S    
C126  C134  S    
C7    O23   A    
C92   O4    A    
C84   O36   A    
C10   C138  S    
C85   O29   A    
C16   H48   S    
C102  C150  S    
C14   C142  S    
C81   O33   A    
Cr5   O18   S    
C47   H55   S    
C134  H30   S    
C69   C77   A    
C71   C79   A    
C110  H6    S    
C104  C152  S    
Cr6   O20   S    
C74   C76   A    
C39   H63   S    
C78   C80   A    
Cr3   O13   S    
Cr5   O25   S    
C66   C74   A    
C78   H14   S    
C124  C132  S    
C111  C119  S    
C67   H65   S    
Cr11  O51   S    
C59   C67   A    
C35   C49   A    
C101  C125  S    
C126  H22   S    
Cr5   O49   S    
C35   C43   A    
C121  C129  S    
C133  H29   S    
C24   C136  S    
C135  C143  S    
C84   C116  S    
C136  H32   S    
C9    C137  S    
Cr11  O46   S    
C135  H31   S    
C9    H41   S    
Cr7   O22   S    
Cr2   O3    S    
C23   C103  S    
C100  C108  S    
C83   C115  S    
C103  C127  S    
C73   H9    S    
C104  C112  S    
C1    O9    A    
C122  H18   S    
C45   H53   S    
C91   O3    A    
C87   C119  S    
C151  N7    T    
C97   C145  S    
C93   O45   A    
Cr12  O40   S    
Cr1   O10   S    
C149  N5    T    
C12   H44   S    
C141  H37   S    
C15   C143  S    
C40   C54   A    
C96   O48   A    
C10   C106  S    
C67   C75   A    
Cr8   O24   S    
Cr7   O29   S    
C14   C110  S    
Cr1   O1    S    
C8    O24   A    
C102  C126  S    
C123  H19   S    
C144  H40   S    
C103  C111  S    
C68   C76   A    
Cr4   O7    S    
C127  H23   S    
C14   C22   S    
C72   C80   A    
C36   H60   S    
C11   C107  S    
Cr8   O31   S    
Cr6   O27   S    
C14   H46   S    
C114  C138  S    
C38   C46   A    
Cr10  O36   S    
C37   C55   A    
Cr3   O6    S    
C113  C121  S    
C146  N2    T    
Cr4   O16   S    
C22   C92   S    
C90   O2    A    
C25   C59   A    
Cr2   O50   S    
C17   C97   S    
C27   C49   A    
C87   O39   A    
C119  C127  S    
C29   C63   A    
C30   C64   A    
C73   C75   A    
C31   C61   A    
Cr9   O42   S    
C37   H61   S    
C101  C149  S    
C109  C117  S    
C11   C19   S    
C127  C135  S    
Cr12  O52   S    
C139  H35   S    
C128  C136  S    
C92   O44   A    
C101  C109  S    
C95   O47   A    
Cr9   O49   S    
C79   H15   S    
C11   C139  S    
C86   O30   A    
C131  H27   S    
C105  H1    S    
C82   O34   A    
C12   C140  S    
C17   C95   S    
C13   C141  S    
C88   C120  S    
C19   C93   S    
C77   C79   A    
Cr5   O17   S    
C72   H70   S    
C3    O19   A    
C32   C54   A    
C103  C151  S    
C43   H51   S    
C5    O21   A    
C3    C25   S    
C35   H59   S    
C34   H58   S    
C152  N8    T    
C93   O5    A    
Cr4   O52   S    
C83   O27   A    
C117  C141  S    
C147  N3    T    
C134  C142  S    
C107  H3    S    
C148  N4    T    
C20   C100  S    
C143  H39   S    
C4    O12   A    
C86   C118  S    
C124  H20   S    
C106  C114  S    
C102  C110  S    
Cr10  O43   S    
C65   H67   S    
C16   C112  S    
C12   C108  S    
C21   C91   S    
C105  C113  S    
C19   C99   S    
C116  C124  S    
C123  C131  S    
C88   O40   A    
C57   C65   A    
C94   O46   A    
C4    C26   S    
C120  C128  S    
C132  C140  S    
C99   C107  S    
Cr2   O12   S    
C34   C52   A    
C23   C135  S    
C8    C30   S    
C108  C116  S    
C2    O18   A    
C136  C144  S    
C132  H28   S    
C39   C53   A    
C42   H50   S    
C11   H43   S    
Cr11  O38   S    
C88   O32   A    
Cr2   O11   S    
C60   C68   A    
C81   C113  S    
C82   O26   A    
C9    C105  S    
C71   H69   S    
C3    O11   A    
C70   C78   A    
C18   C96   S    
Cr11  O45   S    
Cr7   O21   S    
Cr2   O4    S    
C22   C134  S    
C89   O41   A    
C91   O43   A    
C44   H52   S    
C65   C73   A    
Cr7   O51   S    
C4    O20   A    
Cr12  O47   S    
C5    C31   S    
Cr8   O52   S    
C28   C50   A    
C58   C66   A    
Cr1   O9    S    
C97   C121  S    
C21   C101  S    
C15   C23   S    
C13   C109  S    
C16   C24   S    
C138  H34   S    
C95   O7    A    
C69   H71   S    
C99   C147  S    
C19   C131  S    
Cr6   O19   S    
C54   C56   A    
C17   C129  S    
C85   O37   A    
Cr10  O50   S    
C131  C139  S    
C82   C114  S    
C66   H68   S    
C130  H26   S    
C2    O10   A    
Cr3   O14   S    
C145  N1    T    
C106  H2    S    
Cr4   O8    S    
Cr6   O50   S    
C26   C52   A    
Cr8   O32   S    
Cr6   O28   S    
C125  C133  S    
C96   O8    A    
C38   C56   A    
C31   C53   A    
Cr9   O34   S    
C107  C115  S    
C137  H33   S    
Cr3   O5    S    
C9    C17   S    
C125  H21   S    
C140  H36   S    
Cr9   O33   S    
C99   C123  S    
C61   C69   A    
C129  H25   S    
Cr9   O41   S    
C63   C71   A    
C118  C142  S    
Cr3   O51   S    
C108  H4    S    
C118  C126  S    
C25   C51   A    
C22   C102  S    
C5    O13   A    
C109  H5    S    
Cr12  O39   S    
C26   C60   A    
C13   H45   S    
C64   C72   A    
C41   H49   S    
C18   C130  S    
C114  C122  S    
C98   C122  S    
C77   H13   S    
C7    O15   A    
C1    C27   S    
C86   O38   A    
C6    O14   A    
C75   H11   S    
C18   C98   S    
C89   O1    A    
C117  C125  S    
C122  C130  S    
Cr8   O23   S    
Cr7   O30   S    
C116  C140  S    
