data_str_m3_o10_o28_f0_pcu.sym.19
_audit_creation_date              2012-12-10T16:58:27-0500
_audit_creation_method            fapswitch 2.2
_symmetry_space_group_name_H-M    P1
_symmetry_Int_Tables_number       1
_space_group_crystal_system       triclinic
_cell_length_a                    7.732121
_cell_length_b                    8.569417
_cell_length_c                    23.429909
_cell_angle_alpha                 91.017017
_cell_angle_beta                  85.817221
_cell_angle_gamma                 93.745668
_cell_volume                      1544.8863608

loop_
_atom_site_label
_atom_site_type_symbol
_atom_type_description
_atom_site_fract_x
_atom_site_fract_y
_atom_site_fract_z
_atom_type_partial_charge
C1    C     C_R   0.545985 0.794914 0.498509 0.970496
C2    C     C_R   0.328054 0.513654 0.304438 -0.265763
C3    C     C_R   0.341063 0.512643 0.765172 -0.118716
C4    C     C_R   0.314354 0.517298 0.245953 -0.118940
C5    C     C_R   0.493726 0.505132 0.792652 0.270305
C6    C     C_R   0.462437 0.509198 0.208838 0.275194
C7    C     C_2   0.570291 0.958354 0.497650 -0.370136
C8    C     C_2   0.429716 0.041648 0.502369 -0.370582
C9    C     C_R   0.502348 0.500292 0.610834 0.897156
C10   C     C_R   0.497843 0.500236 0.389159 0.897321
C11   C     C_R   0.406900 0.374599 0.120798 0.498803
C12   C     C_R   0.454017 0.205087 0.501498 0.970626
C13   C     C_R   0.511060 0.646098 0.881685 0.495621
C14   C     C_R   0.477926 0.650664 0.120976 0.496542
C15   C     C_R   0.440142 0.369996 0.881568 0.498304
C16   C     C_R   0.480617 0.653601 0.061393 -0.013316
C17   C     C_R   0.425216 0.369052 0.941269 -0.013575
C18   C     C_R   0.446996 0.512183 0.031367 -0.021383
C19   C     C_R   0.456434 0.510860 0.971302 -0.021276
C20   C     C_R   0.406696 0.371641 0.061242 -0.014670
C21   C     C_R   0.499101 0.651014 0.941400 -0.011509
C22   C     C_R   0.520510 0.792955 0.031256 -0.170259
C23   C     C_R   0.654554 0.494854 0.761179 0.104134
C24   C     C_R   0.381026 0.230390 0.971438 -0.169530
C25   C     C_R   0.529735 0.791662 0.971710 -0.170906
C26   C     C_R   0.371762 0.231686 0.030978 -0.171185
C27   C     C_R   0.626644 0.496538 0.229857 0.095256
C28   C     C_R   0.660995 0.493265 0.701176 0.090644
C29   C     C_R   0.641565 0.493461 0.289047 0.097551
C30   C     C_R   0.505122 0.500967 0.673404 -0.085882
C31   C     C_R   0.490660 0.502117 0.326746 -0.082290
C32   C     C_R   0.346375 0.510354 0.706133 -0.252677
H1    H     H_    0.547287 0.902749 0.053511 0.194429
H2    H     H_    0.297030 0.990410 0.506873 0.180573
H3    H     H_    0.014295 0.383021 0.456809 0.193375
H4    H     H_    0.985702 0.616979 0.543191 0.197117
H5    H     H_    0.829117 0.585021 0.815227 0.210873
H6    H     H_    0.796908 0.387635 0.816164 0.209321
H7    H     H_    0.759556 0.389213 0.164325 0.208330
H8    H     H_    0.794896 0.586442 0.166667 0.209729
H9    H     H_    0.906187 0.581105 0.680093 0.191684
H10   H     H_    0.881142 0.383108 0.680151 0.206298
H11   H     H_    0.890270 0.577718 0.295631 0.196321
H12   H     H_    0.354662 0.120530 0.949180 0.194378
H13   H     H_    0.861653 0.379949 0.294091 0.205489
H14   H     H_    0.562940 0.900568 0.949554 0.193400
H15   H     H_    0.338946 0.122725 0.053135 0.193312
H16   H     H_    0.225030 0.516091 0.686194 0.176588
H17   H     H_    0.210357 0.520073 0.332193 0.179509
H18   H     H_    0.217771 0.520112 0.789857 0.155986
H19   H     H_    0.188390 0.526270 0.229280 0.153782
H20   H     H_    0.702977 0.009592 0.493148 0.180782
N1    N     N_R   0.445675 0.512053 0.148891 -0.358539
N2    N     N_R   0.483483 0.506867 0.853441 -0.359914
N3    N     N_2   0.950330 0.457950 0.484560 -0.170402
N4    N     N_2   0.049670 0.542050 0.515440 -0.172143
N5    N     N_3   0.811548 0.485025 0.789587 -0.482613
N6    N     N_3   0.778925 0.485792 0.191532 -0.477045
N7    N     N_3   0.825002 0.484839 0.668821 -0.430682
N8    N     N_3   0.809352 0.482321 0.310549 -0.429532
O1    O     O_R   0.389250 0.738570 0.503790 -0.612768
O2    O     O_2   0.549884 0.778752 0.851899 -0.536661
O3    O     O_2   0.510240 0.784159 0.150899 -0.534716
O4    O     O_2   0.412264 0.235708 0.851670 -0.532509
O5    O     O_R   0.610750 0.261430 0.496210 -0.613188
O6    O     O_R   0.678390 0.711620 0.493890 -0.631150
O7    O     O_R   0.321610 0.288380 0.506110 -0.629771
O8    O     O_R   0.355400 0.513520 0.588790 -0.627647
O9    O     O_R   0.644600 0.486480 0.411210 -0.590656
O10   O     O_R   0.644550 0.486570 0.578900 -0.600166
O11   O     O_R   0.355450 0.513430 0.421100 -0.636308
O12   O     O_2   0.372163 0.241274 0.150492 -0.533092
Zn1   Zn    Zn3+2 0.306930 0.518000 0.506610 0.948294
Zn2   Zn    Zn3+2 0.693070 0.482000 0.493390 0.964570

loop_
_geom_bond_atom_site_label_1
_geom_bond_atom_site_label_2
_ccdc_geom_bond_type
H10   N7    S    
O10   Zn2   S    
C2    C4    A    
C15   O4    S    
C10   O9    A    
H13   N8    S    
H4    N4    S    
C2    H17   S    
C27   C29   A    
H6    N5    S    
C12   O5    A    
C25   H14   S    
C6    C27   A    
C5    C23   A    
C29   N8    S    
H11   N8    S    
C8    C12   S    
O1    Zn1   S    
C10   O11   A    
N3    N4    D    
C28   C30   A    
C1    O6    A    
C9    O8    A    
C13   C21   A    
C7    C8    D    
C29   C31   A    
C8    H2    S    
C23   C28   A    
C30   C32   A    
C32   H16   S    
C6    N1    S    
C11   N1    A    
C20   C26   A    
C26   H15   S    
O7    Zn1   S    
C14   O3    S    
C9    C30   S    
C4    C6    A    
C19   C21   A    
C3    H18   S    
C24   C26   A    
C7    H20   S    
C18   C19   A    
C18   C20   A    
C3    C32   A    
C24   H12   S    
C12   O7    A    
C14   C16   A    
C11   C20   A    
C17   C24   A    
H8    N6    S    
C13   O2    S    
C4    H19   S    
H3    N3    S    
O6    Zn2   S    
C15   N2    A    
C5    N2    S    
O9    Zn2   S    
C14   N1    A    
C9    O10   A    
H9    N7    S    
C16   C18   A    
C13   N2    A    
C28   N7    S    
O11   Zn1   S    
C15   C17   A    
C22   H1    S    
C21   C25   A    
C11   O12   S    
C16   C22   A    
N4    Zn1   S    
C23   N5    S    
C17   C19   A    
O8    Zn1   S    
C1    C7    S    
N3    Zn2   S    
C10   C31   S    
C22   C25   A    
H5    N5    S    
O5    Zn2   S    
H7    N6    S    
C2    C31   A    
C3    C5    A    
C27   N6    S    
C1    O1    A    
