data_str_m2_o10_o28_f0_pcu.sym.204
_audit_creation_date              2012-12-10T16:50:13-0500
_audit_creation_method            fapswitch 2.2
_symmetry_space_group_name_H-M    P1
_symmetry_Int_Tables_number       1
_space_group_crystal_system       triclinic
_cell_length_a                    23.482445
_cell_length_b                    8.684865
_cell_length_c                    7.434363
_cell_angle_alpha                 102.974639
_cell_angle_beta                  93.98235
_cell_angle_gamma                 92.352625
_cell_volume                      1471.39767453

loop_
_atom_site_label
_atom_site_type_symbol
_atom_type_description
_atom_site_fract_x
_atom_site_fract_y
_atom_site_fract_z
_atom_type_partial_charge
C1    C     C_R   0.498283 0.199666 0.453227 0.891030
C2    C     C_R   0.501716 0.800334 0.546773 0.891029
C3    C     C_R   0.244417 0.538034 0.685491 0.205037
C4    C     C_R   0.755583 0.461950 0.314513 0.205024
C5    C     C_R   0.303948 0.536703 0.679520 -0.204798
C6    C     C_R   0.696052 0.463275 0.320483 -0.204800
C7    C     C_R   0.328465 0.499305 0.508977 -0.074477
C8    C     C_R   0.671535 0.500699 0.491023 -0.074478
C9    C     C_R   0.292848 0.462025 0.343738 -0.215292
C10   C     C_R   0.707151 0.538014 0.656261 -0.215297
C11   C     C_R   0.233781 0.461710 0.348674 -0.144491
C12   C     C_R   0.766219 0.538332 0.651325 -0.144493
C13   C     C_R   0.209326 0.499567 0.518129 0.364533
C14   C     C_R   0.790674 0.500448 0.481873 0.364535
C15   C     C_2   0.497457 0.031798 0.426855 -0.363237
C16   C     C_2   0.502543 0.968202 0.573145 -0.363237
C17   C     C_R   0.390961 0.499624 0.502804 0.807741
C18   C     C_R   0.609039 0.500376 0.497196 0.807739
C19   C     C_R   0.881962 0.627618 0.452504 0.533071
C20   C     C_R   0.118038 0.372396 0.547496 0.533070
C21   C     C_R   0.878225 0.370806 0.519356 0.532022
C22   C     C_R   0.121775 0.629210 0.480650 0.532022
C23   C     C_R   0.937988 0.368651 0.527534 -0.011988
C24   C     C_R   0.062011 0.631365 0.472470 -0.011989
C25   C     C_R   0.969907 0.499698 0.496151 -0.016043
C26   C     C_R   0.030093 0.500317 0.503852 -0.016043
C27   C     C_R   0.941790 0.630276 0.457500 -0.011136
C28   C     C_R   0.058209 0.369739 0.542502 -0.011136
C29   C     C_R   0.966454 0.239474 0.566956 -0.167779
C30   C     C_R   0.033546 0.760541 0.433048 -0.167779
C31   C     C_R   0.025972 0.239977 0.574280 -0.176641
C32   C     C_R   0.974027 0.760037 0.425722 -0.176641
Cu1   Cu    Cu3+1 0.506340 0.517380 0.684380 0.954870
Cu2   Cu    Cu3+1 0.493660 0.482620 0.315620 0.954870
H1    H     H_    0.942861 0.137866 0.592707 0.192779
H2    H     H_    0.057139 0.862149 0.407297 0.192780
H3    H     H_    0.046604 0.138704 0.605361 0.185480
H4    H     H_    0.953396 0.861310 0.394640 0.185479
H5    H     H_    0.331121 0.566350 0.807761 0.159932
H6    H     H_    0.668879 0.433603 0.192244 0.159934
H7    H     H_    0.310553 0.432488 0.210397 0.167820
H8    H     H_    0.689446 0.567576 0.789598 0.167826
H9    H     H_    0.206723 0.432353 0.220345 0.148819
H10   H     H_    0.793276 0.567715 0.779652 0.148819
H11   H     H_    0.492661 0.960194 0.285861 0.179726
H12   H     H_    0.507339 0.039806 0.714139 0.179726
H13   H     H_    0.454937 0.379473 0.948863 0.226219
H14   H     H_    0.545063 0.620527 0.051137 0.226220
N1    N     N_R   0.851647 0.498869 0.482245 -0.468227
N2    N     N_R   0.148353 0.501147 0.517758 -0.468226
N3    N     N_2   0.484110 0.456420 0.038520 -0.218539
N4    N     N_2   0.515890 0.543580 0.961480 -0.218539
O1    O     O_R   0.504120 0.286130 0.619770 -0.582519
O2    O     O_R   0.495880 0.713870 0.380230 -0.582520
O3    O     O_R   0.493410 0.256770 0.308360 -0.583966
O4    O     O_R   0.506590 0.743230 0.691640 -0.583967
O5    O     O_R   0.423230 0.514630 0.655730 -0.592672
O6    O     O_R   0.576770 0.485370 0.344270 -0.592671
O7    O     O_R   0.412530 0.485280 0.344320 -0.582848
O8    O     O_R   0.587470 0.514720 0.655680 -0.582848
O9    O     O_2   0.854242 0.752745 0.419378 -0.522008
O10   O     O_2   0.145758 0.247266 0.580615 -0.522007
O11   O     O_2   0.846826 0.246271 0.548387 -0.515889
O12   O     O_2   0.153173 0.753747 0.451623 -0.515886
C33   C     C_3   0.218749 0.582534 0.868721 -0.817999
H15   H     H_    0.192590 0.686594 0.871855 0.251060
H16   H     H_    0.191147 0.482002 0.888917 0.244532
H17   H     H_    0.252206 0.613364 0.986176 0.225873
C34   C     C_3   0.781251 0.417433 0.131284 -0.817979
H18   H     H_    0.808851 0.517963 0.111070 0.244524
H19   H     H_    0.807413 0.313381 0.128170 0.251061
H20   H     H_    0.747795 0.386583 0.013830 0.225884

loop_
_geom_bond_atom_site_label_1
_geom_bond_atom_site_label_2
_ccdc_geom_bond_type
C17   O5    A    
C34   H20   S    
H13   N3    S    
C28   C31   A    
C20   O10   S    
C11   H9    S    
C1    C15   S    
C32   H4    S    
C2    C16   S    
C30   C32   A    
C19   C27   A    
Cu1   O5    S    
C29   H1    S    
C9    H7    S    
C3    C13   A    
C30   H2    S    
C22   N2    A    
C33   H17   S    
Cu1   O4    S    
C21   N1    A    
Cu1   Cu2   S    
C1    O3    A    
Cu2   O3    S    
C29   C31   A    
C2    O4    A    
Cu1   N4    S    
C4    C14   A    
C9    C11   A    
C24   C26   A    
Cu2   N3    S    
C3    C33   S    
C10   C12   A    
C17   O7    A    
C27   C32   A    
C6    C8    A    
C23   C29   A    
C18   O8    A    
C4    C34   S    
C12   C14   A    
Cu2   O2    S    
Cu1   O8    S    
C22   C24   A    
C5    H5    S    
C21   C23   A    
Cu1   O1    S    
C34   H18   S    
C19   O9    S    
Cu2   O6    S    
C6    H6    S    
C19   N1    A    
C21   O11   S    
C4    C6    A    
C10   H8    S    
C15   H11   S    
C24   C30   A    
C22   O12   S    
C13   N2    S    
C14   N1    S    
C7    C9    A    
C11   C13   A    
C23   C25   A    
N3    N4    D    
C34   H19   S    
C33   H15   S    
C2    O2    A    
C16   H12   S    
C5    C7    A    
C1    O1    A    
C12   H10   S    
C20   N2    A    
C33   H16   S    
C20   C28   A    
C7    C17   S    
C25   C26   A    
H14   N4    S    
Cu2   O7    S    
C26   C28   A    
C18   O6    A    
C8    C10   A    
C8    C18   S    
C15   C16   D    
C31   H3    S    
C3    C5    A    
C25   C27   A    
