data_str_m3_o10_o28_f0_pcu.sym.200
_audit_creation_date              2012-12-10T16:58:27-0500
_audit_creation_method            fapswitch 2.2
_symmetry_space_group_name_H-M    P1
_symmetry_Int_Tables_number       1
_space_group_crystal_system       triclinic
_cell_length_a                    7.827897
_cell_length_b                    8.551887
_cell_length_c                    23.234512
_cell_angle_alpha                 92.460749
_cell_angle_beta                  85.746304
_cell_angle_gamma                 93.38514
_cell_volume                      1547.24207942

loop_
_atom_site_label
_atom_site_type_symbol
_atom_type_description
_atom_site_fract_x
_atom_site_fract_y
_atom_site_fract_z
_atom_type_partial_charge
C1    C     C_R   0.545253 0.794366 0.498438 0.961197
C2    C     C_R   0.454718 0.205592 0.501266 0.976629
C3    C     C_R   0.498337 0.419593 0.766832 -0.190102
C4    C     C_R   0.384801 0.644150 0.247087 -0.215611
C5    C     C_R   0.493465 0.393170 0.707395 0.429864
C6    C     C_R   0.381458 0.625395 0.306605 0.444609
C7    C     C_R   0.509315 0.522034 0.671750 -0.110162
C8    C     C_R   0.495325 0.522898 0.327704 -0.130313
C9    C     C_R   0.524548 0.675069 0.695175 -0.277406
C10   C     C_R   0.607260 0.439644 0.289537 -0.292047
C11   C     C_R   0.518941 0.701016 0.754632 -0.074467
C12   C     C_R   0.604954 0.455908 0.230400 -0.102339
C13   C     C_R   0.504612 0.573322 0.790714 0.222583
C14   C     C_R   0.493152 0.557616 0.209430 0.257451
C15   C     C_2   0.569181 0.957735 0.497347 -0.351584
C16   C     C_2   0.430743 0.042112 0.501603 -0.357971
C17   C     C_R   0.501923 0.500744 0.610224 0.909612
C18   C     C_R   0.498634 0.504207 0.389534 0.911788
C19   C     C_R   0.353781 0.500664 0.122040 0.544433
C20   C     C_R   0.611604 0.683573 0.879657 0.543279
C21   C     C_R   0.613072 0.663270 0.120180 0.530727
C22   C     C_R   0.347322 0.528217 0.881911 0.542314
C23   C     C_R   0.607932 0.683065 0.060611 -0.130671
C24   C     C_R   0.338945 0.526916 0.942368 -0.113551
C25   C     C_R   0.473180 0.604086 0.031720 -0.082885
C26   C     C_R   0.470389 0.610568 0.971413 -0.085742
C27   C     C_R   0.344216 0.513986 0.062793 -0.039931
C28   C     C_R   0.603667 0.694763 0.939955 -0.063811
C29   C     C_R   0.732912 0.777730 0.029082 0.476268
C30   C     C_R   0.206944 0.440828 0.974260 0.484766
C31   C     C_R   0.730907 0.781118 0.969121 -0.304770
C32   C     C_R   0.211688 0.435126 0.034054 -0.257064
H1    H     H_    0.832651 0.848349 0.945504 0.210213
H2    H     H_    0.114156 0.363615 0.057548 0.183538
H3    H     H_    0.489109 0.320617 0.794704 0.168045
H4    H     H_    0.305562 0.727477 0.229632 0.148881
H5    H     H_    0.536730 0.774088 0.667308 0.173538
H6    H     H_    0.694644 0.360768 0.305502 0.189460
H7    H     H_    0.522744 0.819972 0.772636 0.174050
H8    H     H_    0.689472 0.389732 0.200843 0.151525
H9    H     H_    0.700270 0.008026 0.493249 0.201278
H10   H     H_    0.299654 0.991776 0.505651 0.199325
N1    N     N_R   0.487625 0.573128 0.148948 -0.352437
N2    N     N_R   0.486584 0.598192 0.852077 -0.349059
N3    N     N_2   0.950330 0.457950 0.484560 0.017327
N4    N     N_2   0.049670 0.542050 0.515440 0.017160
O1    O     O_R   0.389250 0.738570 0.503790 -0.601389
O2    O     O_R   0.610750 0.261430 0.496210 -0.599994
O3    O     O_R   0.678390 0.711620 0.493890 -0.620733
O4    O     O_R   0.321610 0.288380 0.506110 -0.609067
O5    O     O_R   0.355400 0.513520 0.588790 -0.621482
O6    O     O_R   0.644600 0.486480 0.411210 -0.628133
O7    O     O_R   0.644550 0.486570 0.578900 -0.582604
O8    O     O_R   0.355450 0.513430 0.421100 -0.570028
O9    O     O_2   0.231652 0.414514 0.152663 -0.573820
O10   O     O_2   0.746008 0.752916 0.848855 -0.552079
O11   O     O_2   0.741693 0.732170 0.149431 -0.515704
O12   O     O_2   0.218345 0.459574 0.852698 -0.513744
Zn1   Zn    Zn3+2 0.306930 0.518000 0.506610 1.028218
Zn2   Zn    Zn3+2 0.693070 0.482000 0.493390 1.017572
O13   O     O_3   0.864482 0.859325 0.055937 -0.566081
C33   C     C_3   0.818682 0.015500 0.067461 0.110277
H11   H     H_    0.684184 0.021776 0.086771 0.138552
H12   H     H_    0.833399 0.081505 0.027021 0.137651
C34   C     C_3   0.936825 0.094107 0.110484 -0.701170
H13   H     H_    0.072263 0.093368 0.092494 0.257317
H14   H     H_    0.901967 0.217064 0.119896 0.195709
H15   H     H_    0.923639 0.030770 0.151451 0.279345
O14   O     O_3   0.088564 0.343336 0.946602 -0.572575
C35   C     C_3   0.925086 0.405179 0.955373 0.137051
H16   H     H_    0.929480 0.528414 0.941508 0.175297
H17   H     H_    0.876077 0.400235 0.001514 0.112555
C36   C     C_3   0.800392 0.308191 0.919113 -0.746954
H18   H     H_    0.798663 0.182784 0.929804 0.244866
H19   H     H_    0.669056 0.349623 0.927875 0.191229
H20   H     H_    0.839507 0.319649 0.872480 0.281107
O15   O     O_3   0.474647 0.241713 0.684552 -0.621267
C37   C     C_3   0.297380 0.199342 0.684362 0.075587
H21   H     H_    0.237086 0.267678 0.652388 0.169067
H22   H     H_    0.229776 0.218742 0.727840 0.176016
C38   C     C_3   0.272661 0.026312 0.667466 -0.757113
H23   H     H_    0.318368 0.955047 0.701393 0.249530
H24   H     H_    0.134376 0.994948 0.663248 0.236592
H25   H     H_    0.345091 0.999811 0.625631 0.254796
O16   O     O_3   0.285386 0.720812 0.344723 -0.606240
C39   C     C_3   0.108724 0.694870 0.336360 0.111754
H26   H     H_    0.068517 0.567892 0.337918 0.166821
H27   H     H_    0.077167 0.740087 0.294514 0.149952
C40   C     C_3   0.005392 0.782533 0.384091 -0.703311
H28   H     H_    0.036711 0.910497 0.381709 0.253829
H29   H     H_    0.866064 0.759094 0.379186 0.213033
H30   H     H_    0.036063 0.744049 0.426922 0.266325
I1    I     I_    0.036469 0.287723 0.424879 -0.290746
I2    I     I_    0.963230 0.710750 0.575706 -0.263749

loop_
_geom_bond_atom_site_label_1
_geom_bond_atom_site_label_2
_ccdc_geom_bond_type
C4    H4    S    
N3    Zn2   S    
C16   H10   S    
N4    Zn1   S    
C36   H18   S    
C20   O10   S    
N3    I1    S    
C17   O5    A    
C2    O4    A    
C38   H23   S    
C18   O6    A    
O15   C37   S    
O3    Zn2   S    
O4    Zn1   S    
C23   C29   A    
C24   C26   A    
C37   H22   S    
C34   H14   S    
C15   C16   D    
C33   H12   S    
O6    Zn2   S    
C38   H24   S    
C21   N1    A    
C22   N2    A    
C7    C17   S    
C31   H1    S    
C35   H16   S    
C1    C15   S    
C40   H29   S    
C19   C27   A    
C3    C13   A    
C36   H19   S    
O13   C33   S    
C20   N2    A    
O7    Zn2   S    
C19   N1    A    
O2    Zn2   S    
O8    Zn1   S    
C29   O13   S    
C15   H9    S    
C4    C6    A    
C5    C7    A    
C39   H26   S    
C1    O1    A    
C6    C8    A    
C20   C28   A    
C2    O2    A    
C25   C26   A    
O16   C39   S    
C8    C18   S    
C32   H2    S    
C12   H8    S    
C21   O11   S    
C33   H11   S    
N4    I2    S    
C3    H3    S    
C34   H15   S    
C35   C36   S    
C9    H5    S    
C40   H30   S    
C11   H7    S    
C9    C11   A    
C10   C12   A    
C12   C14   A    
C21   C23   A    
C36   H20   S    
C22   C24   A    
O5    Zn1   S    
C5    O15   S    
C17   O7    A    
C30   O14   S    
C2    C16   S    
C19   O9    S    
C7    C9    A    
C33   C34   S    
C27   C32   A    
C37   H21   S    
C28   C31   A    
C3    C5    A    
C39   C40   S    
C22   O12   S    
C25   C27   A    
C26   C28   A    
C10   H6    S    
C29   C31   A    
C30   C32   A    
C11   C13   A    
C37   C38   S    
C39   H27   S    
C23   C25   A    
C4    C14   A    
O14   C35   S    
C24   C30   A    
C18   O8    A    
O1    Zn1   S    
N3    N4    D    
C8    C10   A    
C34   H13   S    
C6    O16   S    
C38   H25   S    
C35   H17   S    
C40   H28   S    
C1    O3    A    
C13   N2    S    
C14   N1    S    
