data_str_m4_o4_o24_f0_acs.sym.65
_audit_creation_date              2012-12-11T15:50:41-0500
_audit_creation_method            fapswitch 2.2
_symmetry_space_group_name_H-M    P1
_symmetry_Int_Tables_number       1
_space_group_crystal_system       triclinic
_cell_length_a                    19.078699
_cell_length_b                    11.026713
_cell_length_c                    18.751301
_cell_angle_alpha                 89.754094
_cell_angle_beta                  90.834577
_cell_angle_gamma                 90.098782
_cell_volume                      3944.35103575

loop_
_atom_site_label
_atom_site_type_symbol
_atom_type_description
_atom_site_fract_x
_atom_site_fract_y
_atom_site_fract_z
_atom_type_partial_charge
C1    C     C_R   0.275792 0.035246 0.856578 0.536485
C2    C     C_R   0.767575 0.555007 0.933213 0.019706
C3    C     C_R   0.228417 0.544546 0.354001 0.538269
C4    C     C_R   0.471365 0.822818 0.648212 0.553390
C5    C     C_R   0.559998 0.819278 0.360435 0.540413
C6    C     C_R   0.971360 0.322818 0.648208 0.553453
C7    C     C_R   0.060003 0.319277 0.360434 0.540504
C8    C     C_R   0.259517 0.637895 0.644051 0.544031
C9    C     C_R   0.726285 0.687521 0.363091 0.546290
C10   C     C_R   0.759521 0.137906 0.644046 0.544054
C11   C     C_R   0.226291 0.187498 0.363092 0.546140
C12   C     C_3   0.475450 0.925677 0.035774 -0.105780
C13   C     C_R   0.733305 0.057674 0.067436 0.019095
C14   C     C_3   0.518263 0.929796 0.965820 -0.104608
C15   C     C_3   0.975451 0.425678 0.035774 -0.105777
C16   C     C_3   0.018265 0.429795 0.965819 -0.104607
C17   C     C_3   0.428294 0.824520 0.004618 -0.138204
C18   C     C_3   0.568890 0.832532 0.995839 -0.145191
C19   C     C_3   0.928295 0.324521 0.004618 -0.138201
C20   C     C_3   0.068891 0.332531 0.995839 -0.145194
C21   C     C_3   0.471142 0.828352 0.936046 0.054517
C22   C     C_3   0.526116 0.828471 0.064386 0.046964
C23   C     C_3   0.971143 0.328352 0.936046 0.054517
C24   C     C_R   0.267575 0.055006 0.933213 0.019704
C25   C     C_3   0.026116 0.328471 0.064386 0.046962
C26   C     C_3   0.112626 0.837646 0.561597 -0.229736
C27   C     C_3   0.058992 0.740625 0.578465 -0.384704
C28   C     C_3   0.900048 0.584355 0.409750 -0.193567
C29   C     C_3   0.855299 0.469155 0.402140 -0.399089
C30   C     C_3   0.612587 0.337570 0.561629 -0.229789
C31   C     C_3   0.558989 0.240499 0.578517 -0.384585
C32   C     C_3   0.400195 0.084383 0.409692 -0.193499
C33   C     C_3   0.355571 0.969054 0.402008 -0.399039
C34   C     C_3   0.141645 0.727416 0.057789 -0.248358
C35   C     C_R   0.285125 0.494519 0.031400 0.004512
C36   C     C_3   0.069202 0.697125 0.086349 -0.401992
C37   C     C_3   0.861506 0.721279 0.943407 -0.250799
C38   C     C_3   0.937958 0.692082 0.930363 -0.431648
C39   C     C_3   0.641645 0.227416 0.057789 -0.248357
C40   C     C_3   0.569201 0.197125 0.086347 -0.401995
C41   C     C_3   0.361506 0.221279 0.943407 -0.250799
C42   C     C_3   0.437958 0.192083 0.930364 -0.431648
C43   C     C_R   0.714539 0.494238 0.969173 0.005056
C44   C     C_R   0.785125 0.994519 0.031400 0.004514
C45   C     C_R   0.214539 0.994238 0.969173 0.005056
C46   C     C_R   0.292272 0.508511 0.957858 -0.013095
C47   C     C_R   0.706922 0.509123 0.042578 -0.013264
C48   C     C_R   0.792272 0.008511 0.957858 -0.013095
C49   C     C_R   0.724668 0.036609 0.143852 0.540972
C50   C     C_R   0.206922 0.009123 0.042578 -0.013264
C51   C     C_R   0.181957 0.612500 0.952667 -0.148352
C52   C     C_R   0.818536 0.608990 0.048299 -0.147474
C53   C     C_R   0.681957 0.112501 0.952667 -0.148353
C54   C     C_R   0.318536 0.108990 0.048299 -0.147477
C55   C     C_R   0.181688 0.621324 0.026982 -0.012371
C56   C     C_R   0.819688 0.616870 0.973897 -0.003213
C57   C     C_R   0.681689 0.121325 0.026982 -0.012368
C58   C     C_R   0.319688 0.116870 0.973898 -0.003214
C59   C     C_3   0.361004 0.514425 0.044530 -0.284290
C60   C     C_R   0.775792 0.535246 0.856578 0.536480
C61   C     C_3   0.639230 0.517568 0.955083 -0.284945
C62   C     C_3   0.861004 0.014425 0.044530 -0.284290
C63   C     C_3   0.139230 0.017567 0.955083 -0.284945
C64   C     C_3   0.368784 0.532919 0.964863 -0.270587
C65   C     C_3   0.630880 0.536508 0.034525 -0.269871
C66   C     C_3   0.868784 0.032920 0.964863 -0.270588
C67   C     C_3   0.130880 0.036507 0.034525 -0.269872
C68   C     C_R   0.242480 0.572893 0.917782 -0.001965
C69   C     C_R   0.757230 0.571969 0.082801 -0.004144
C70   C     C_R   0.742480 0.072893 0.917782 -0.001966
C71   C     C_R   0.224668 0.536608 0.143852 0.540969
C72   C     C_R   0.257230 0.071969 0.082801 -0.004146
C73   C     C_R   0.542180 0.824815 0.435266 0.002159
C74   C     C_R   0.505926 0.823498 0.579706 0.033632
C75   C     C_R   0.042207 0.324812 0.435274 0.002087
C76   C     C_R   0.005952 0.323507 0.579717 0.033583
C77   C     C_R   0.442526 0.818001 0.863057 0.546183
C78   C     C_R   0.556061 0.818520 0.136830 0.548736
C79   C     C_R   0.942527 0.318001 0.863058 0.546179
C80   C     C_R   0.056061 0.318520 0.136830 0.548732
C81   C     C_R   0.513569 0.722493 0.466980 0.007703
C82   C     C_3   0.521108 0.731988 0.965153 -0.129957
C83   C     C_R   0.496833 0.721323 0.537081 0.013391
C84   C     C_R   0.013699 0.222435 0.467024 0.007629
C85   C     C_R   0.996973 0.221263 0.537126 0.013414
C86   C     C_R   0.544449 0.920779 0.552346 -0.112570
C87   C     C_R   0.562463 0.921973 0.479645 -0.163274
C88   C     C_R   0.044370 0.420884 0.552322 -0.112640
C89   C     C_R   0.062392 0.422068 0.479623 -0.163354
C90   C     C_3   0.453027 0.644077 0.445810 -0.262077
C91   C     C_3   0.433835 0.643890 0.523871 -0.253905
C92   C     C_3   0.953268 0.143750 0.445881 -0.262170
C93   C     C_3   0.479549 0.727969 0.034290 -0.129079
C94   C     C_3   0.934068 0.143591 0.523940 -0.254013
C95   C     C_R   0.244561 0.576195 0.426129 -0.026261
C96   C     C_R   0.750283 0.612017 0.583200 -0.000512
C97   C     C_R   0.744580 0.076256 0.426113 -0.026303
C98   C     C_R   0.250307 0.111962 0.583190 -0.000459
C99   C     C_R   0.196555 0.649452 0.459657 0.074685
C100  C     C_R   0.802099 0.670931 0.544141 -0.001777
C101  C     C_R   0.696548 0.149452 0.459653 0.074670
C102  C     C_R   0.302148 0.170731 0.544098 -0.001756
C103  C     C_R   0.196836 0.659299 0.531796 0.004089
C104  C     C_3   0.021109 0.231988 0.965153 -0.129958
C105  C     C_R   0.794038 0.690419 0.473476 0.000572
C106  C     C_R   0.696837 0.159293 0.531792 0.004091
C107  C     C_R   0.294094 0.190143 0.473440 0.000607
C108  C     C_R   0.288235 0.508147 0.541852 -0.177346
C109  C     C_R   0.674676 0.623209 0.478603 -0.173911
C110  C     C_R   0.788294 0.008244 0.541827 -0.177382
C111  C     C_R   0.174700 0.123149 0.478594 -0.173882
C112  C     C_R   0.288618 0.500841 0.467744 -0.176410
C113  C     C_R   0.683250 0.602512 0.552232 -0.171144
C114  C     C_R   0.788682 0.000966 0.467718 -0.176460
C115  C     C_3   0.979549 0.227970 0.034290 -0.129076
C116  C     C_R   0.183268 0.102500 0.552228 -0.171099
C117  C     C_3   0.179090 0.778828 0.445810 0.110141
C118  C     C_3   0.880857 0.668066 0.538472 0.119890
C119  C     C_3   0.679021 0.278805 0.445812 0.110119
C120  C     C_3   0.380910 0.167996 0.538449 0.119925
C121  C     C_3   0.181225 0.793605 0.526634 -0.053444
C122  C     C_3   0.871361 0.687056 0.458031 -0.065398
C123  C     C_3   0.681183 0.293585 0.526637 -0.053460
C124  C     C_3   0.371416 0.186971 0.458001 -0.065319
C125  C     C_R   0.259571 0.633601 0.850431 0.538871
C126  C     C_R   0.233304 0.557673 0.067436 0.019092
C127  C     C_R   0.740357 0.633591 0.149659 0.546370
C128  C     C_R   0.759571 0.133601 0.850431 0.538871
C129  C     C_R   0.240357 0.133591 0.149659 0.546399
C130  C     C_R   0.245544 0.594520 0.573695 -0.007028
C131  C     C_R   0.731870 0.662794 0.438047 0.008862
C132  C     C_R   0.745565 0.094548 0.573683 -0.007048
C133  C     C_R   0.231898 0.162677 0.438028 0.008692
C134  C     C_R   0.270849 0.050009 0.648070 0.535343
C135  C     C_R   0.728421 0.044561 0.353995 0.538254
C136  C     C_R   0.770849 0.550008 0.648065 0.535380
Cr1   Cr    Cr6+3 0.229640 0.835880 0.747370 0.987815
Cr2   Cr    Cr6+3 0.614230 0.677220 0.250660 0.994421
Cr3   Cr    Cr6+3 0.885770 0.177220 0.749340 0.994811
Cr4   Cr    Cr6+3 0.114230 0.177220 0.250660 0.994455
Cr5   Cr    Cr6+3 0.770360 0.835880 0.252630 0.989324
Cr6   Cr    Cr6+3 0.729640 0.335880 0.747370 0.987819
Cr7   Cr    Cr6+3 0.270360 0.335880 0.252630 0.989331
Cr8   Cr    Cr6+3 0.387390 0.989720 0.750850 1.013521
Cr9   Cr    Cr6+3 0.612610 0.989720 0.249150 1.011104
Cr10  Cr    Cr6+3 0.887390 0.489720 0.750850 1.013571
Cr11  Cr    Cr6+3 0.112610 0.489720 0.249150 1.011146
Cr12  Cr    Cr6+3 0.385770 0.677220 0.749340 0.994811
H1    H     H_    0.370189 0.822164 0.007363 0.107811
H2    H     H_    0.884606 0.193081 0.534555 0.148524
H3    H     H_    0.462413 0.159422 0.980368 0.130080
H4    H     H_    0.443506 0.123194 0.888351 0.208005
H5    H     H_    0.466044 0.275205 0.913150 0.113011
H6    H     H_    0.336310 0.261061 0.894972 0.170206
H7    H     H_    0.360730 0.293796 0.983112 0.140539
H8    H     H_    0.470054 0.553628 0.426687 0.140135
H9    H     H_    0.384423 0.693517 0.534514 0.148272
H10   H     H_    0.413997 0.691219 0.411043 0.144472
H11   H     H_    0.439224 0.553266 0.549544 0.136301
H12   H     H_    0.914180 0.190676 0.411083 0.144542
H13   H     H_    0.939545 0.053014 0.549652 0.136197
H14   H     H_    0.324923 0.454544 0.573272 0.120762
H15   H     H_    0.625399 0.601729 0.452881 0.133785
H16   H     H_    0.825009 0.954683 0.573239 0.120812
H17   H     H_    0.626981 0.835987 0.993215 0.108670
H18   H     H_    0.125423 0.101682 0.452873 0.133788
H19   H     H_    0.323393 0.437525 0.442923 0.139756
H20   H     H_    0.639384 0.573287 0.583529 0.116920
H21   H     H_    0.823491 0.937715 0.442889 0.139792
H22   H     H_    0.139391 0.073360 0.583538 0.116909
H23   H     H_    0.220737 0.828579 0.416625 0.089778
H24   H     H_    0.904803 0.746947 0.565887 0.119877
H25   H     H_    0.720630 0.328605 0.416602 0.089875
H26   H     H_    0.404809 0.246916 0.565869 0.119851
H27   H     H_    0.227300 0.849076 0.543432 0.104450
H28   H     H_    0.870190 0.322167 0.007363 0.107811
H29   H     H_    0.892410 0.776667 0.441721 0.087497
H30   H     H_    0.727248 0.349094 0.543418 0.104398
H31   H     H_    0.392390 0.276643 0.441705 0.087442
H32   H     H_    0.454661 0.001825 0.067419 0.111376
H33   H     H_    0.537147 0.009833 0.935843 0.113152
H34   H     H_    0.954663 0.501826 0.067418 0.111377
H35   H     H_    0.037148 0.509833 0.935842 0.113153
H36   H     H_    0.529419 0.648600 0.934496 0.137752
H37   H     H_    0.473937 0.641658 0.063475 0.136421
H38   H     H_    0.029418 0.148600 0.934496 0.137752
H39   H     H_    0.126982 0.335985 0.993214 0.108669
H40   H     H_    0.973937 0.141659 0.063475 0.136423
H41   H     H_    0.141448 0.660859 0.923101 0.137939
H42   H     H_    0.859109 0.657037 0.077866 0.137073
H43   H     H_    0.641448 0.160859 0.923102 0.137939
H44   H     H_    0.359109 0.157036 0.077867 0.137072
H45   H     H_    0.888049 0.932892 0.066287 0.134313
H46   H     H_    0.110952 0.937502 0.933279 0.131598
H47   H     H_    0.388049 0.432892 0.066287 0.134310
H48   H     H_    0.610952 0.437503 0.933279 0.131598
H49   H     H_    0.367797 0.597050 0.077411 0.136696
H50   H     H_    0.557360 0.995785 0.586175 0.136604
H51   H     H_    0.634378 0.600620 0.921817 0.135038
H52   H     H_    0.867798 0.097050 0.077411 0.136699
H53   H     H_    0.134378 0.100619 0.921817 0.135038
H54   H     H_    0.380820 0.626687 0.948998 0.160815
H55   H     H_    0.620146 0.631070 0.049498 0.159422
H56   H     H_    0.880820 0.126688 0.948998 0.160814
H57   H     H_    0.120146 0.131070 0.049498 0.159418
H58   H     H_    0.402115 0.465026 0.938384 0.131762
H59   H     H_    0.596345 0.469534 0.060880 0.135075
H60   H     H_    0.902115 0.965026 0.938384 0.131762
H61   H     H_    0.588896 0.999670 0.457564 0.156274
H62   H     H_    0.096345 0.969533 0.060880 0.135077
H63   H     H_    0.107409 0.875282 0.399661 0.319430
H64   H     H_    0.878824 0.491375 0.554871 0.337462
H65   H     H_    0.607275 0.375165 0.399704 0.319419
H66   H     H_    0.378941 0.991348 0.554962 0.337543
H67   H     H_    0.042675 0.691471 0.529435 0.206321
H68   H     H_    0.081053 0.678518 0.619522 0.162282
H69   H     H_    0.012941 0.784967 0.602271 0.114286
H70   H     H_    0.126461 0.879848 0.613378 0.167265
H71   H     H_    0.087064 0.908224 0.527829 0.144272
H72   H     H_    0.057178 0.495974 0.586122 0.136769
H73   H     H_    0.834803 0.436363 0.453545 0.121047
H74   H     H_    0.810501 0.484502 0.365046 0.172760
H75   H     H_    0.887742 0.396405 0.378864 0.138986
H76   H     H_    0.908087 0.621981 0.355439 0.162380
H77   H     H_    0.953145 0.559073 0.429283 0.188530
H78   H     H_    0.542671 0.191328 0.529496 0.206460
H79   H     H_    0.581079 0.178408 0.619563 0.162285
H80   H     H_    0.512935 0.284795 0.602342 0.114367
H81   H     H_    0.626431 0.379785 0.613404 0.167247
H82   H     H_    0.586996 0.408132 0.527874 0.144238
H83   H     H_    0.088743 0.499836 0.457519 0.156331
H84   H     H_    0.335815 0.935230 0.453526 0.120981
H85   H     H_    0.310278 0.984702 0.365563 0.172719
H86   H     H_    0.387892 0.896899 0.377873 0.139284
H87   H     H_    0.408175 0.122105 0.355395 0.162342
H88   H     H_    0.453319 0.059223 0.429207 0.188620
H89   H     H_    0.056588 0.601489 0.076149 0.178642
H90   H     H_    0.067283 0.713612 0.144654 0.171089
H91   H     H_    0.029014 0.756766 0.061268 0.097281
H92   H     H_    0.173832 0.773607 0.099486 0.162762
H93   H     H_    0.134134 0.794408 0.014920 0.137102
H94   H     H_    0.970424 0.053346 0.426806 0.140113
H95   H     H_    0.962413 0.659419 0.980367 0.130080
H96   H     H_    0.943506 0.623194 0.888349 0.208004
H97   H     H_    0.966045 0.775204 0.913150 0.113010
H98   H     H_    0.836310 0.761062 0.894972 0.170205
H99   H     H_    0.860731 0.793796 0.983111 0.140539
H100  H     H_    0.556585 0.101491 0.076138 0.178632
H101  H     H_    0.567283 0.213596 0.144653 0.171093
H102  H     H_    0.529015 0.256776 0.061270 0.097281
H103  H     H_    0.673831 0.273607 0.099487 0.162758
H104  H     H_    0.634135 0.294409 0.014921 0.137103
O1    O     O_R   0.214300 0.709080 0.827500 -0.527857
O2    O     O_R   0.543340 0.717710 0.330180 -0.518427
O3    O     O_R   0.956660 0.217710 0.669820 -0.524359
O4    O     O_R   0.043340 0.217710 0.330180 -0.518400
O5    O     O_R   0.320590 0.625770 0.672930 -0.508645
O6    O     O_R   0.679410 0.625770 0.327070 -0.524977
O7    O     O_R   0.820590 0.125770 0.672930 -0.508657
O8    O     O_R   0.179410 0.125770 0.327070 -0.524995
O9    O     O_3   0.334270 0.834280 0.749190 -0.267985
O10   O     O_3   0.665730 0.834280 0.250810 -0.302799
O11   O     O_3   0.834270 0.334280 0.749190 -0.267982
O12   O     O_R   0.785700 0.709080 0.172500 -0.524413
O13   O     O_3   0.165730 0.334280 0.250810 -0.302796
O14   O     O_R   0.236190 0.958390 0.823150 -0.498940
O15   O     O_R   0.763810 0.958390 0.176850 -0.497456
O16   O     O_R   0.736190 0.458390 0.823150 -0.498944
O17   O     O_R   0.263810 0.458390 0.176850 -0.497460
O18   O     O_R   0.332090 0.075280 0.831290 -0.538306
O19   O     O_R   0.667910 0.075280 0.168710 -0.527297
O20   O     O_R   0.832090 0.575280 0.831290 -0.538316
O21   O     O_R   0.167910 0.575280 0.168710 -0.527294
O22   O     O_R   0.446280 0.918040 0.826620 -0.517700
O23   O     O_R   0.714300 0.209080 0.827500 -0.527859
O24   O     O_R   0.553720 0.918040 0.173380 -0.503691
O25   O     O_R   0.946280 0.418040 0.826620 -0.517711
O26   O     O_R   0.053720 0.418040 0.173380 -0.503684
O27   O     O_R   0.457080 0.716270 0.831760 -0.530610
O28   O     O_R   0.542920 0.716270 0.168240 -0.522244
O29   O     O_R   0.957080 0.216270 0.831760 -0.530611
O30   O     O_R   0.042920 0.216270 0.168240 -0.522234
O31   O     O_R   0.320980 0.624440 0.823040 -0.514389
O32   O     O_R   0.679020 0.624440 0.176960 -0.508530
O33   O     O_R   0.820980 0.124440 0.823040 -0.514388
O34   O     O_R   0.285700 0.209080 0.172500 -0.524400
O35   O     O_R   0.179020 0.124440 0.176960 -0.508523
O36   O     O_R   0.213880 0.710510 0.665560 -0.528791
O37   O     O_R   0.786120 0.710510 0.334440 -0.525344
O38   O     O_R   0.713880 0.210510 0.665560 -0.528795
O39   O     O_R   0.286120 0.210510 0.334440 -0.525351
O40   O     O_R   0.235800 0.959720 0.673040 -0.524481
O41   O     O_R   0.764200 0.959720 0.326960 -0.527282
O42   O     O_R   0.735800 0.459720 0.673040 -0.524478
O43   O     O_R   0.264200 0.459720 0.326960 -0.527288
O44   O     O_R   0.331670 0.076720 0.669350 -0.487413
O45   O     O_R   0.445900 0.919370 0.676500 -0.464858
O46   O     O_R   0.668330 0.076720 0.330650 -0.481174
O47   O     O_R   0.831670 0.576720 0.669350 -0.487252
O48   O     O_R   0.168330 0.576720 0.330650 -0.481169
O49   O     O_3   0.111981 0.789368 0.414919 -0.692880
O50   O     O_3   0.913541 0.558086 0.557162 -0.687423
O51   O     O_3   0.611895 0.289254 0.414953 -0.692893
O52   O     O_3   0.413640 0.058068 0.557144 -0.687552
O53   O     O_R   0.554100 0.919370 0.323500 -0.495672
O54   O     O_R   0.945900 0.419370 0.676500 -0.464791
O55   O     O_R   0.054100 0.419370 0.323500 -0.495638
O56   O     O_R   0.456660 0.717710 0.669820 -0.524336

loop_
_geom_bond_atom_site_label_1
_geom_bond_atom_site_label_2
_ccdc_geom_bond_type
C99   C103  A    
C26   H70   S    
C74   C83   A    
Cr11  O13   S    
C14   H33   S    
C105  C131  A    
C6    O54   A    
C106  C132  A    
Cr5   O15   S    
C14   C21   S    
C16   C20   S    
C95   C99   A    
C118  O50   S    
Cr8   O22   S    
C50   C72   A    
C19   H28   S    
C37   C56   S    
Cr10  O25   S    
C34   H92   S    
C67   H57   S    
C9    O6    A    
C107  C124  S    
C123  H30   S    
Cr8   O9    S    
C73   C81   A    
C9    C131  S    
C29   H74   S    
Cr3   O29   S    
C22   C78   S    
C109  H15   S    
C135  O46   A    
C48   C70   A    
C110  H16   S    
C59   H47   S    
C98   C102  A    
C38   H97   S    
C17   C21   S    
Cr7   O13   S    
C15   C19   S    
C37   C38   S    
C65   H55   S    
C55   C126  A    
C71   O17   A    
C92   C94   S    
Cr10  O11   S    
C89   H83   S    
C61   H48   S    
C136  O42   A    
C86   H50   S    
C81   C90   S    
C49   O19   A    
C27   H68   S    
C79   O29   A    
Cr6   O11   S    
C103  C121  S    
C83   C91   S    
C43   C61   S    
C32   H88   S    
C36   H89   S    
Cr4   O8    S    
Cr2   O28   S    
Cr4   O30   S    
C119  C123  S    
Cr6   O42   S    
C104  H38   S    
C37   H99   S    
Cr12  O27   S    
C92   H12   S    
C11   O8    A    
C21   C82   S    
Cr7   O43   S    
C121  H27   S    
C45   C50   A    
Cr8   O44   S    
C71   O21   A    
C6    O3    A    
C51   C55   A    
Cr4   O35   S    
C103  C130  A    
C134  O44   A    
C8    O36   A    
C61   C65   S    
C94   H2    S    
C88   C89   A    
Cr7   O34   S    
C10   O7    A    
C3    C95   S    
C43   C47   A    
Cr6   O23   S    
C13   C44   A    
C44   C48   A    
C122  H29   S    
Cr2   O6    S    
Cr3   O11   S    
C7    O4    A    
C78   O24   A    
C61   H51   S    
C113  H20   S    
C10   O38   A    
C38   H95   S    
C54   H44   S    
Cr6   O16   S    
C41   C58   S    
C28   C122  S    
C75   C84   A    
C15   C25   S    
C13   C57   A    
C15   H34   S    
C82   H36   S    
C127  O12   A    
C118  C122  S    
C47   C69   A    
C18   C82   S    
C39   H104  S    
C71   C126  S    
C26   C121  S    
C50   C67   S    
C110  C114  A    
C108  C130  A    
C66   H56   S    
C36   H91   S    
C7    O55   A    
C31   H80   S    
C34   H93   S    
C81   C83   A    
C62   C66   S    
Cr2   O10   S    
C129  O35   A    
C39   C40   S    
C112  H19   S    
C74   C86   A    
C127  O32   A    
Cr1   O40   S    
C128  O23   A    
C46   C68   A    
C99   C117  S    
C40   H102  S    
Cr1   O14   S    
C28   H76   S    
C63   H46   S    
C116  H22   S    
C102  C107  A    
C77   O27   A    
C42   H3    S    
C94   H13   S    
C69   C127  S    
Cr11  O21   S    
C4    O56   A    
C120  H26   S    
C12   H32   S    
C16   C23   S    
C12   C22   S    
C17   C93   S    
C97   C135  S    
C90   H8    S    
C33   H84   S    
C33   H85   S    
Cr9   O53   S    
C101  C106  A    
C63   H53   S    
C26   H71   S    
C18   C22   S    
C28   H77   S    
C6    C76   S    
C65   H59   S    
C135  O41   A    
C3    O43   A    
C2    C56   A    
C96   C100  A    
Cr5   O12   S    
C105  C122  S    
C34   C36   S    
C5    C73   S    
C10   C132  S    
C75   C89   A    
C30   C123  S    
C1    C24   S    
C31   H78   S    
Cr2   O32   S    
C84   C92   S    
C48   C66   S    
C97   C114  A    
C68   C125  S    
C41   H7    S    
Cr1   O9    S    
Cr6   O38   S    
C114  H21   S    
C80   O26   A    
C80   O30   A    
Cr12  O31   S    
C25   C80   S    
C41   C42   S    
Cr12  O5    S    
C72   C129  S    
C96   C136  S    
C29   H73   S    
C26   C27   S    
C30   H81   S    
C28   C29   S    
C134  O40   A    
C128  O33   A    
C95   C112  A    
C30   C31   S    
C2    C60   S    
C20   C25   S    
C35   C59   S    
C32   C124  S    
C73   C87   A    
C124  H31   S    
C52   C69   A    
C76   C85   A    
Cr8   O45   S    
C1    O14   A    
C125  O31   A    
Cr3   O7    S    
C12   C17   S    
C109  C131  A    
C110  C132  A    
C111  C116  A    
C91   H11   S    
C51   H41   S    
C136  O47   A    
C11   O39   A    
C34   C55   S    
C82   C93   S    
Cr7   O17   S    
C27   H67   S    
C87   H61   S    
C60   O16   A    
C53   C70   A    
H65   O51   S    
C18   H17   S    
H66   O52   S    
C36   H90   S    
Cr9   O24   S    
C84   C85   A    
C53   C57   A    
Cr9   O46   S    
Cr1   O36   S    
C64   H58   S    
C37   H98   S    
C88   H72   S    
Cr3   O3    S    
C104  C115  S    
C66   H60   S    
C117  H23   S    
Cr5   O41   S    
C23   C104  S    
C118  H24   S    
C59   C64   S    
C52   H42   S    
C53   H43   S    
C27   H69   S    
C8    C130  S    
C96   C113  A    
C100  C118  S    
C4    O45   A    
Cr11  O26   S    
C102  C120  S    
C29   H75   S    
C86   C87   A    
C77   O22   A    
C38   H96   S    
C32   C33   S    
C25   C115  S    
C62   H52   S    
C107  C133  A    
C119  H25   S    
C5    O53   A    
C90   C91   S    
C3    O48   A    
C91   H9    S    
C108  C112  A    
C39   H103  S    
Cr10  O54   S    
C24   C58   A    
C117  O49   S    
C62   H45   S    
C119  O51   S    
Cr2   O2    S    
C35   C46   A    
C120  O52   S    
C32   H87   S    
C93   H37   S    
C40   H101  S    
C31   H79   S    
Cr5   O10   S    
C14   C18   S    
C19   C23   S    
C16   H35   S    
Cr12  O56   S    
Cr10  O47   S    
C100  C105  A    
C24   C45   A    
C129  O34   A    
C11   C133  S    
C15   C16   S    
C39   C57   S    
Cr11  O55   S    
Cr3   O33   S    
C67   H62   S    
C8    O5    A    
C117  C121  S    
C92   H94   S    
C106  C123  S    
Cr4   O4    S    
Cr12  O9    S    
H63   O49   S    
C42   H4    S    
C76   C88   A    
C4    C74   S    
C109  C113  A    
H64   O50   S    
C40   H100  S    
C49   O15   A    
C63   C67   S    
C101  C119  S    
C42   H5    S    
C111  C133  A    
C7    C75   S    
C1    O18   A    
C44   C62   S    
C108  H14   S    
C45   C63   S    
C46   C64   S    
C5    O2    A    
C90   H10   S    
C35   C126  A    
C85   C94   S    
C98   C116  A    
C19   C115  S    
C2    C43   A    
C79   O25   A    
C111  H18   S    
C60   O20   A    
C125  O1    A    
C13   C49   S    
Cr7   O39   S    
C12   C14   S    
C22   C93   S    
C41   H6    S    
C54   C58   A    
C70   C128  S    
C64   H54   S    
C17   H1    S    
Cr5   O37   S    
C20   C104  S    
C98   C134  S    
Cr9   O19   S    
C30   H82   S    
Cr10  O20   S    
C78   O28   A    
C20   H39   S    
C9    O37   A    
C115  H40   S    
C59   H49   S    
Cr8   O18   S    
C51   C68   A    
Cr1   O1    S    
C52   C56   A    
C54   C72   A    
Cr11  O48   S    
C21   C77   S    
Cr9   O10   S    
Cr4   O13   S    
C23   C79   S    
C47   C65   S    
C97   C101  A    
C33   H86   S    
C120  C124  S    
