data_str_m2_o10_o14_f0_pcu.sym.111
_audit_creation_date              2012-12-10T16:43:22-0500
_audit_creation_method            fapswitch 2.2
_symmetry_space_group_name_H-M    P1
_symmetry_Int_Tables_number       1
_space_group_crystal_system       triclinic
_cell_length_a                    10.749631
_cell_length_b                    8.710182
_cell_length_c                    7.446764
_cell_angle_alpha                 102.803028
_cell_angle_beta                  94.385923
_cell_angle_gamma                 92.63785
_cell_volume                      676.500154977

loop_
_atom_site_label
_atom_site_type_symbol
_atom_type_description
_atom_site_fract_x
_atom_site_fract_y
_atom_site_fract_z
_atom_type_partial_charge
C1    C     C_R   0.499454 0.200138 0.454403 0.907571
C2    C     C_R   0.077325 0.642388 0.621326 0.092497
C3    C     C_R   0.129672 0.514316 0.506567 -0.089980
C4    C     C_R   0.053956 0.395712 0.384464 -0.197753
C5    C     C_R   0.925706 0.397903 0.379961 -0.180689
C6    C     C_R   0.871505 0.518602 0.497815 -0.092069
C7    C     C_2   0.495650 0.033036 0.433187 -0.409054
C8    C     C_2   0.530021 0.967221 0.573994 -0.017854
C9    C     C_R   0.262870 0.504291 0.502582 0.778361
C10   C     C_R   0.509988 0.800018 0.546575 0.806144
C11   C     C_R   0.737476 0.506525 0.498996 0.784381
C12   C     C_R   0.152081 0.770630 0.734933 -0.171541
C13   C     C_R   0.097378 0.896204 0.844343 -0.142511
C14   C     C_R   0.967951 0.898018 0.840513 -0.117456
C15   C     C_R   0.892448 0.774375 0.726990 -0.159876
C16   C     C_R   0.945792 0.644457 0.616954 0.086711
Cu1   Cu    Cu3+1 0.513920 0.517380 0.684380 0.979972
Cu2   Cu    Cu3+1 0.486080 0.482620 0.315620 0.973524
H1    H     H_    0.094585 0.299273 0.294278 0.146528
H2    H     H_    0.597860 0.622015 0.051474 0.232180
H3    H     H_    0.252864 0.777148 0.738471 0.158439
H4    H     H_    0.155701 0.993477 0.930748 0.139887
H5    H     H_    0.792470 0.783499 0.723930 0.158717
H6    H     H_    0.868403 0.302440 0.287954 0.165196
H7    H     H_    0.456989 0.961898 0.299817 0.168553
H8    H     H_    0.402101 0.378055 0.948512 0.235660
N1    N     N_2   0.465100 0.456430 0.038520 -0.197813
N2    N     N_2   0.534900 0.543570 0.961480 -0.199472
O1    O     O_R   0.509050 0.286130 0.619770 -0.548804
O2    O     O_R   0.485540 0.256780 0.308360 -0.572180
O3    O     O_R   0.331410 0.514680 0.655740 -0.596011
O4    O     O_R   0.307900 0.485330 0.344330 -0.577794
O5    O     O_R   0.514460 0.743220 0.691640 -0.576305
O6    O     O_R   0.490950 0.713870 0.380230 -0.597625
O7    O     O_R   0.692100 0.514670 0.655670 -0.572218
O8    O     O_R   0.668590 0.485320 0.344260 -0.577427
H9    H     H_    0.925878 0.996670 0.924068 0.157899
I1    I     I_    0.624321 0.084344 0.838681 -0.377788

loop_
_geom_bond_atom_site_label_1
_geom_bond_atom_site_label_2
_ccdc_geom_bond_type
C3    C9    S    
C4    H1    S    
Cu1   O1    S    
C7    H7    S    
C2    C12   A    
C11   O7    A    
C2    C3    A    
C7    C8    D    
C10   O6    A    
C13   C14   A    
C14   H9    S    
Cu2   O6    S    
H8    N1    S    
C5    H6    S    
Cu1   O5    S    
Cu2   O2    S    
C15   H5    S    
C11   O8    A    
C13   H4    S    
Cu1   Cu2   S    
C10   O5    A    
C8    I1    S    
C5    C6    A    
Cu1   O3    S    
Cu2   O4    S    
C1    O1    A    
C6    C16   A    
C3    C4    A    
C6    C11   S    
C2    C16   A    
C12   C13   A    
C8    C10   S    
N1    N2    D    
C9    O3    A    
C14   C15   A    
C1    O2    A    
Cu1   O7    S    
H2    N2    S    
C9    O4    A    
C1    C7    S    
Cu1   N2    S    
Cu2   O8    S    
C12   H3    S    
Cu2   N1    S    
C15   C16   A    
C4    C5    A    
