data_str_m3_o4_o9_f0_pcu.sym.35
_audit_creation_date              2012-12-10T20:45:34-0500
_audit_creation_method            fapswitch 2.2
_symmetry_space_group_name_H-M    P1
_symmetry_Int_Tables_number       1
_space_group_crystal_system       triclinic
_cell_length_a                    10.714774
_cell_length_b                    10.71591
_cell_length_c                    9.857117
_cell_angle_alpha                 89.78714
_cell_angle_beta                  90.502655
_cell_angle_gamma                 89.118225
_cell_volume                      1131.59395352

loop_
_atom_site_label
_atom_site_type_symbol
_atom_type_description
_atom_site_fract_x
_atom_site_fract_y
_atom_site_fract_z
_atom_type_partial_charge
C1    C     C_R   0.501715 0.259800 0.500206 0.874901
C2    C     C_R   0.878219 0.342524 0.970205 -0.153442
C3    C     C_R   0.791816 0.247887 0.951459 -0.117555
C4    C     C_R   0.260294 0.504775 0.499041 0.865299
C5    C     C_R   0.754627 0.215171 0.820419 -0.128243
C6    C     C_R   0.804290 0.275063 0.707630 -0.081191
C7    C     C_R   0.888404 0.372695 0.725449 0.127791
C8    C     C_R   0.514399 0.062374 0.622805 0.020831
C9    C     C_R   0.517635 0.127843 0.500793 -0.070696
C10   C     C_R   0.544687 0.064273 0.380027 -0.238999
C11   C     C_R   0.546671 0.935084 0.380109 -0.225614
C12   C     C_R   0.218824 0.807685 0.091534 -0.103173
C13   C     C_R   0.522567 0.870779 0.500871 -0.136778
C14   C     C_R   0.519934 0.934882 0.623219 0.046105
C15   C     C_3   0.432068 0.926566 0.740660 0.350166
C16   C     C_R   0.504041 0.739859 0.499912 0.863145
C17   C     C_3   0.424515 0.069200 0.738281 -0.598405
C18   C     C_R   0.390912 0.490310 0.070692 0.264705
C19   C     C_R   0.607118 0.516699 0.072687 -0.167717
C20   C     C_R   0.606996 0.516383 0.928911 -0.105298
C21   C     C_R   0.390574 0.491698 0.927965 0.246149
C22   C     C_3   0.301451 0.386356 0.922339 -0.541057
C23   C     C_R   0.930697 0.562802 0.398122 -0.253425
C24   C     C_3   0.304333 0.383094 0.075976 -0.507498
C25   C     C_R   0.740047 0.497523 0.500880 0.862178
C26   C     C_R   0.247392 0.826608 0.228403 -0.128164
C27   C     C_R   0.196163 0.749816 0.327848 -0.097083
C28   C     C_R   0.115906 0.652831 0.290794 0.136150
C29   C     C_R   0.085578 0.636432 0.152939 -0.188575
C30   C     C_R   0.137675 0.712867 0.053849 -0.146086
C31   C     C_3   0.595942 0.918691 0.909108 0.116373
C32   C     C_3   0.662787 0.824130 0.001333 -0.343925
C33   C     C_3   0.772994 0.882033 0.076066 -0.985674
C34   C     C_R   0.872796 0.497080 0.502351 -0.076900
C35   C     C_R   0.942505 0.438032 0.607096 -0.000653
C36   C     C_R   0.070228 0.441111 0.599734 -0.255770
C37   C     C_R   0.127940 0.508108 0.497532 -0.079938
C38   C     C_R   0.058965 0.572183 0.395988 -0.003457
C39   C     C_R   0.925656 0.405477 0.857882 -0.200113
H1    H     H_    0.258760 0.867132 0.014821 0.160450
H2    H     H_    0.693995 0.529604 0.126982 0.157589
H3    H     H_    0.308585 0.901394 0.257452 0.137223
H4    H     H_    0.693327 0.529239 0.875530 0.164769
H5    H     H_    0.209273 0.416853 0.881683 0.199695
H6    H     H_    0.341892 0.301475 0.874707 0.216417
H7    H     H_    0.213291 0.408240 0.122142 0.211825
H8    H     H_    0.349674 0.297205 0.118338 0.209880
H9    H     H_    0.218336 0.766480 0.433591 0.088186
H10   H     H_    0.022676 0.563566 0.122131 0.116687
H11   H     H_    0.115035 0.698588 0.947860 0.132194
H12   H     H_    0.753116 0.200485 0.038274 0.125393
H13   H     H_    0.875292 0.612010 0.321637 0.152558
H14   H     H_    0.125332 0.388518 0.673347 0.154986
H15   H     H_    0.990293 0.480751 0.874026 0.124331
H16   H     H_    0.906833 0.368337 0.071716 0.131978
H17   H     H_    0.574623 0.003264 0.969965 0.131787
H18   H     H_    0.661916 0.940287 0.826538 0.136280
H19   H     H_    0.596222 0.786369 0.076201 0.236658
H20   H     H_    0.698942 0.746574 0.938143 0.218860
H21   H     H_    0.841894 0.917598 0.002323 0.272233
H22   H     H_    0.819669 0.810231 0.141264 0.271769
H23   H     H_    0.686918 0.143837 0.805887 0.116754
H24   H     H_    0.740598 0.960155 0.141275 0.261987
H25   H     H_    0.776132 0.246452 0.606791 0.102001
H26   H     H_    0.556504 0.113260 0.284750 0.163115
H27   H     H_    0.558127 0.886582 0.285030 0.179409
H28   H     H_    0.342162 0.883540 0.710643 0.093122
H29   H     H_    0.331309 0.105747 0.705404 0.178509
H30   H     H_    0.463456 0.117609 0.827689 0.194049
N1    N     N_R   0.499160 0.499140 0.142800 -0.113517
N2    N     N_R   0.499160 0.499180 0.857150 -0.103069
O1    O     O_R   0.500020 0.316790 0.614690 -0.611647
O2    O     O_R   0.500000 0.316760 0.385350 -0.627737
O3    O     O_R   0.316770 0.500030 0.614670 -0.625982
O4    O     O_R   0.316750 0.499990 0.385330 -0.609430
O5    O     O_R   0.500000 0.683240 0.614650 -0.595284
O6    O     O_R   0.499980 0.683210 0.385310 -0.618788
O7    O     O_R   0.683250 0.500010 0.614670 -0.621966
O8    O     O_R   0.683230 0.499970 0.385330 -0.633316
O9    O     O_3   0.483177 0.867259 0.859545 -0.623342
Zn1   Zn    Zn3+2 0.500010 0.500020 0.653130 0.962112
Zn2   Zn    Zn3+2 0.499990 0.499980 0.346870 0.942908

loop_
_geom_bond_atom_site_label_1
_geom_bond_atom_site_label_2
_ccdc_geom_bond_type
C27   H9    S    
C18   N1    A    
C17   H30   S    
C18   C21   A    
C19   C20   A    
C32   H19   S    
C31   O9    S    
C29   H10   S    
C26   C27   A    
C29   C30   A    
C21   N2    A    
C18   C24   S    
C36   C37   A    
C16   O6    A    
C2    H16   S    
C5    C6    A    
C39   H15   S    
C34   C35   A    
C6    H25   S    
C4    O4    A    
C36   H14   S    
C2    C39   A    
C22   H5    S    
C31   C32   S    
C8    C9    A    
C20   N2    A    
C31   H17   S    
C9    C10   A    
C4    O3    A    
O1    Zn1   S    
C11   H27   S    
C25   C34   S    
C30   H11   S    
C25   O8    A    
C13   C14   A    
C1    O1    A    
C25   O7    A    
C1    C9    S    
C3    H12   S    
C12   C26   A    
C35   C36   A    
C12   H1    S    
C37   C38   A    
C15   O9    S    
C28   C38   S    
C33   H24   S    
C23   C34   A    
C15   H28   S    
C33   H21   S    
C22   C24   S    
O3    Zn1   S    
O2    Zn2   S    
C20   H4    S    
C26   H3    S    
C10   H26   S    
C15   C17   S    
C28   C29   A    
C17   H29   S    
C8    C14   A    
C12   C30   A    
C16   O5    A    
C24   H8    S    
C7    C35   S    
C3    C5    A    
O5    Zn1   S    
O8    Zn2   S    
O4    Zn2   S    
C6    C7    A    
C23   C38   A    
C8    C17   S    
C24   H7    S    
C32   C33   S    
C31   H18   S    
C2    C3    A    
C1    O2    A    
C11   C13   A    
O7    Zn1   S    
C23   H13   S    
O6    Zn2   S    
C5    H23   S    
N1    Zn2   S    
C10   C11   A    
C22   H6    S    
C4    C37   S    
C33   H22   S    
C13   C16   S    
C27   C28   A    
C7    C39   A    
C14   C15   S    
C19   N1    A    
C32   H20   S    
C21   C22   S    
C19   H2    S    
N2    Zn1   S    
