data_str_m3_o10_o11_f0_pcu.sym.85
_audit_creation_date              2012-12-10T16:47:59-0500
_audit_creation_method            fapswitch 2.2
_symmetry_space_group_name_H-M    P1
_symmetry_Int_Tables_number       1
_space_group_crystal_system       triclinic
_cell_length_a                    7.828627
_cell_length_b                    8.648113
_cell_length_c                    10.490956
_cell_angle_alpha                 90.904866
_cell_angle_beta                  85.956801
_cell_angle_gamma                 93.356702
_cell_volume                      707.235846736

loop_
_atom_site_label
_atom_site_type_symbol
_atom_type_description
_atom_site_fract_x
_atom_site_fract_y
_atom_site_fract_z
_atom_type_partial_charge
C1    C     C_R   0.545582 0.794442 0.504467 0.862467
C2    C     C_2   0.570137 0.958093 0.524990 0.183647
C3    C     C_2   0.813178 0.677434 0.103891 0.942999
C4    C     C_2   0.339277 0.654259 0.098237 0.959873
C5    C     C_3   0.860728 0.996212 0.465006 -0.156715
C6    C     C_3   0.206611 0.979366 0.673206 -0.253664
C7    C     C_3   0.948078 0.321509 0.284035 -0.080392
C8    C     C_2   0.430688 0.044876 0.532296 0.213139
C9    C     C_R   0.502208 0.497949 0.738525 0.892882
C10   C     C_R   0.455302 0.206754 0.512732 0.870341
C11   C     C_R   0.502074 0.526304 0.264128 0.883789
C12   C     C_2   0.645529 0.619513 0.059496 -0.080831
C13   C     C_2   0.502238 0.594980 0.137347 -0.307974
C14   C     C_2   0.632474 0.602917 0.920970 -0.137744
C15   C     C_2   0.512397 0.506422 0.873427 -0.304925
H1    H     H_    0.724574 0.668018 0.856876 0.184245
H2    H     H_    0.289841 0.909419 0.728803 0.173108
H3    H     H_    0.075329 0.923433 0.683202 0.194510
H4    H     H_    0.936877 0.427443 0.228051 0.208645
H5    H     H_    0.821684 0.261652 0.308116 0.156237
H6    H     H_    0.023403 0.241273 0.222161 0.130545
H7    H     H_    0.418359 0.438038 0.933004 0.146705
H8    H     H_    0.987861 0.620487 0.592241 0.142310
H9    H     H_    0.949657 0.771875 0.244351 0.341734
H10   H     H_    0.226969 0.821200 0.006030 0.365171
H11   H     H_    0.816782 0.998086 0.366439 0.136967
H12   H     H_    0.922821 0.887194 0.481900 0.196977
H13   H     H_    0.962014 0.089439 0.473302 0.247900
H14   H     H_    0.200605 0.098423 0.714499 0.167978
N1    N     N_2   0.950320 0.457950 0.466680 0.134153
N2    N     N_2   0.049680 0.542050 0.533320 -0.072161
O1    O     O_R   0.389250 0.738570 0.508180 -0.590611
O2    O     O_R   0.827812 0.734659 0.228082 -0.808154
O3    O     O_2   0.202668 0.585124 0.128702 -0.605029
O4    O     O_R   0.344394 0.789520 0.026097 -0.804911
O5    O     O_3   0.728451 0.021327 0.560307 -0.627114
O6    O     O_3   0.262672 0.983257 0.542315 -0.624656
O7    O     O_3   0.036913 0.355363 0.393172 -0.499362
O8    O     O_R   0.678390 0.711630 0.486820 -0.618080
O9    O     O_R   0.355470 0.513470 0.691600 -0.615603
O10   O     O_R   0.644610 0.486520 0.670240 -0.625568
O11   O     O_R   0.321610 0.288370 0.513180 -0.550679
O12   O     O_R   0.610750 0.261430 0.491820 -0.606276
O13   O     O_R   0.355390 0.513480 0.329760 -0.542573
O14   O     O_R   0.644530 0.486530 0.308400 -0.626797
O15   O     O_2   0.937968 0.685111 0.027237 -0.636665
Zn1   Zn    Zn3+2 0.306940 0.517990 0.514260 1.045229
Zn2   Zn    Zn3+2 0.693060 0.482010 0.485740 0.994931

loop_
_geom_bond_atom_site_label_1
_geom_bond_atom_site_label_2
_ccdc_geom_bond_type
O9    Zn1   S    
C10   O11   A    
C5    H13   S    
O12   Zn2   S    
C3    O15   D    
C9    O10   A    
H9    O2    S    
O13   Zn1   S    
C5    H12   S    
C9    C15   S    
C4    O4    S    
C11   O13   A    
N2    Zn1   S    
C11   C13   S    
H10   O4    S    
N1    Zn2   S    
C15   H7    S    
C7    O7    S    
C12   C14   S    
C1    C2    S    
C7    H4    S    
O11   Zn1   S    
C1    O1    A    
C4    O3    D    
N1    N2    D    
C6    H3    S    
O1    Zn1   S    
C14   H1    S    
C6    O6    S    
C11   O14   A    
C8    O6    S    
C3    O2    S    
C5    H11   S    
C5    O5    S    
C6    H14   S    
C12   C13   D    
N1    O7    S    
C8    C10   S    
C7    H5    S    
O14   Zn2   S    
C2    O5    S    
C4    C13   S    
C6    H2    S    
C1    O8    A    
C14   C15   D    
C3    C12   S    
C10   O12   A    
C7    H6    S    
O10   Zn2   S    
C9    O9    A    
C2    C8    D    
O8    Zn2   S    
H8    N2    S    
