data_str_m3_o14_o14_f0_pcu.sym.73
_audit_creation_date              2012-12-10T17:41:03-0500
_audit_creation_method            fapswitch 2.2
_symmetry_space_group_name_H-M    P1
_symmetry_Int_Tables_number       1
_space_group_crystal_system       triclinic
_cell_length_a                    14.500531
_cell_length_b                    15.646946
_cell_length_c                    9.95611
_cell_angle_alpha                 89.922483
_cell_angle_beta                  90.601594
_cell_angle_gamma                 89.728492
_cell_volume                      2258.77999479

loop_
_atom_site_label
_atom_site_type_symbol
_atom_type_description
_atom_site_fract_x
_atom_site_fract_y
_atom_site_fract_z
_atom_type_partial_charge
C1    C     C_R   0.387736 0.874770 0.499404 0.885216
C2    C     C_R   0.703220 0.231044 0.395684 -0.209266
C3    C     C_R   0.167798 0.240104 0.443514 -0.218560
C4    C     C_R   0.203222 0.731043 0.395682 -0.209265
C5    C     C_R   0.691187 0.818587 0.499157 -0.085317
C6    C     C_R   0.699689 0.175042 0.504478 -0.121170
C7    C     C_R   0.191187 0.318587 0.499157 -0.085321
C8    C     C_R   0.199689 0.675041 0.504479 -0.121171
C9    C     C_R   0.336979 0.024011 0.144605 -0.146412
C10   C     C_R   0.836979 0.524011 0.144605 -0.146411
C11   C     C_R   0.260954 0.061196 0.085050 -0.254041
C12   C     C_R   0.380801 0.120012 0.499451 0.889383
C13   C     C_R   0.760954 0.561198 0.085051 -0.254042
C14   C     C_R   0.258458 0.070831 0.947955 -0.313865
C15   C     C_R   0.758459 0.570833 0.947955 -0.313868
C16   C     C_R   0.327406 0.032087 0.867083 0.525385
C17   C     C_R   0.827406 0.532088 0.867083 0.525386
C18   C     C_R   0.416719 0.014669 0.928364 0.071632
C19   C     C_R   0.916719 0.514670 0.928364 0.071633
C20   C     C_R   0.418668 0.012745 0.073089 0.115845
C21   C     C_R   0.918668 0.512746 0.073089 0.115845
C22   C     C_R   0.578021 0.986606 0.072337 -0.095231
C23   C     C_R   0.887736 0.374770 0.499404 0.885214
C24   C     C_R   0.078021 0.486606 0.072337 -0.095232
C25   C     C_R   0.624743 0.115568 0.501410 0.834179
C26   C     C_R   0.621213 0.881677 0.500146 0.828456
C27   C     C_R   0.124743 0.615568 0.501411 0.834180
C28   C     C_R   0.121213 0.381677 0.500146 0.828457
C29   C     C_R   0.577867 0.985819 0.929724 -0.126540
C30   C     C_R   0.077866 0.485818 0.929724 -0.126541
C31   C     C_R   0.435606 0.285413 0.600235 -0.174684
C32   C     C_R   0.412555 0.736004 0.694087 -0.163793
C33   C     C_R   0.935608 0.785414 0.600221 -0.174685
C34   C     C_R   0.880801 0.620011 0.499451 0.889384
C35   C     C_R   0.912557 0.236002 0.694082 -0.163796
C36   C     C_R   0.460657 0.366868 0.642904 -0.149177
C37   C     C_R   0.412571 0.679567 0.801982 -0.149652
C38   C     C_R   0.960658 0.866868 0.642887 -0.149182
C39   C     C_R   0.912575 0.179562 0.801973 -0.149653
C40   C     C_R   0.897688 0.933944 0.633434 -0.147180
C41   C     C_R   0.840313 0.122792 0.816639 -0.167105
C42   C     C_R   0.397687 0.433945 0.633453 -0.147180
C43   C     C_R   0.340309 0.622798 0.816650 -0.167105
C44   C     C_R   0.808256 0.919027 0.586118 -0.182166
C45   C     C_R   0.232445 0.176163 0.440476 -0.223484
C46   C     C_R   0.769879 0.119822 0.720445 -0.196661
C47   C     C_R   0.308256 0.419027 0.586134 -0.182159
C48   C     C_R   0.269875 0.619825 0.720453 -0.196657
C49   C     C_R   0.780830 0.836311 0.547006 0.098435
C50   C     C_R   0.767802 0.176875 0.609212 0.103170
C51   C     C_R   0.280829 0.336310 0.547016 0.098432
C52   C     C_R   0.267801 0.676877 0.609215 0.103169
C53   C     C_R   0.345609 0.269611 0.550252 0.086903
C54   C     C_R   0.338222 0.738161 0.600504 0.102656
C55   C     C_R   0.845610 0.769612 0.550243 0.086909
C56   C     C_R   0.268883 0.792852 0.391990 -0.228296
C57   C     C_R   0.838223 0.238160 0.600502 0.102658
C58   C     C_R   0.318952 0.189798 0.498067 -0.093595
C59   C     C_R   0.332842 0.799391 0.496661 -0.123167
C60   C     C_R   0.818952 0.689798 0.498067 -0.093590
C61   C     C_R   0.832841 0.299391 0.496661 -0.123163
C62   C     C_3   0.211342 0.011632 0.699993 0.089035
C63   C     C_3   0.190668 0.965213 0.569566 -0.859535
C64   C     C_3   0.711340 0.511629 0.699998 0.089033
C65   C     C_3   0.690664 0.465208 0.569573 -0.859530
C66   C     C_R   0.732442 0.676161 0.440486 -0.223490
C67   C     C_R   0.768881 0.292853 0.391991 -0.228296
C68   C     C_R   0.667795 0.740101 0.443525 -0.218563
H1    H     H_    0.214189 0.115339 0.396248 0.138571
H2    H     H_    0.472368 0.776255 0.683616 0.156211
H3    H     H_    0.987689 0.735920 0.604471 0.151410
H4    H     H_    0.972369 0.276254 0.683612 0.156211
H5    H     H_    0.529598 0.378221 0.681051 0.142397
H6    H     H_    0.469283 0.679307 0.873586 0.135244
H7    H     H_    0.029599 0.878222 0.681033 0.142399
H8    H     H_    0.969288 0.179301 0.873575 0.135243
H9    H     H_    0.918822 0.997648 0.661390 0.153790
H10   H     H_    0.840598 0.078356 0.900115 0.139659
H11   H     H_    0.418822 0.497649 0.661411 0.153786
H12   H     H_    0.265843 0.839026 0.310720 0.170727
H13   H     H_    0.340591 0.578364 0.900130 0.139657
H14   H     H_    0.761603 0.972515 0.576004 0.122981
H15   H     H_    0.720184 0.070376 0.735466 0.165168
H16   H     H_    0.261603 0.472516 0.576020 0.122983
H17   H     H_    0.220181 0.570380 0.735476 0.165168
H18   H     H_    0.599240 0.728421 0.403132 0.147575
H19   H     H_    0.652059 0.229907 0.315480 0.177302
H20   H     H_    0.099245 0.228425 0.403111 0.147578
H21   H     H_    0.152062 0.729905 0.315477 0.177302
H22   H     H_    0.642089 0.975804 0.126500 0.144976
H23   H     H_    0.714183 0.615335 0.396266 0.138571
H24   H     H_    0.142089 0.475803 0.126500 0.144976
H25   H     H_    0.330431 0.005990 0.247261 0.202771
H26   H     H_    0.830431 0.505990 0.247261 0.202771
H27   H     H_    0.201591 0.078430 0.144492 0.166219
H28   H     H_    0.701592 0.578432 0.144492 0.166221
H29   H     H_    0.196761 0.080702 0.683179 0.145710
H30   H     H_    0.163547 0.984510 0.775678 0.134652
H31   H     H_    0.190716 0.895398 0.588150 0.258637
H32   H     H_    0.121212 0.984075 0.531592 0.206420
H33   H     H_    0.242001 0.981625 0.492315 0.242074
H34   H     H_    0.765840 0.339028 0.310723 0.170725
H35   H     H_    0.696756 0.580698 0.683182 0.145710
H36   H     H_    0.663548 0.484506 0.775686 0.134652
H37   H     H_    0.690711 0.395392 0.588159 0.258635
H38   H     H_    0.621208 0.484071 0.531597 0.206419
H39   H     H_    0.741998 0.481618 0.492320 0.242074
H40   H     H_    0.195794 0.098498 0.906947 0.133928
H41   H     H_    0.695796 0.598501 0.906947 0.133930
H42   H     H_    0.641588 0.973585 0.877649 0.133239
H43   H     H_    0.141588 0.473584 0.877649 0.133238
H44   H     H_    0.487687 0.235918 0.604483 0.151412
N1    N     N_R   0.498810 0.000000 0.142780 -0.111455
N2    N     N_R   0.998810 0.500000 0.142780 -0.111455
N3    N     N_R   0.498740 0.000000 0.857170 -0.108866
N4    N     N_R   0.998740 0.500000 0.857170 -0.108866
O1    O     O_R   0.408390 0.908380 0.614690 -0.542172
O2    O     O_R   0.591620 0.908390 0.614640 -0.642145
O3    O     O_R   0.091620 0.591610 0.614640 -0.641643
O4    O     O_R   0.091620 0.408390 0.614640 -0.642146
O5    O     O_R   0.591610 0.091610 0.385310 -0.608804
O6    O     O_R   0.591610 0.908390 0.385310 -0.613248
O7    O     O_R   0.091610 0.591610 0.385310 -0.608804
O8    O     O_R   0.091610 0.408390 0.385310 -0.613249
O9    O     O_3   0.305074 0.999912 0.740114 -0.552251
O10   O     O_3   0.805074 0.499912 0.740114 -0.552252
O11   O     O_R   0.408390 0.091620 0.614690 -0.570386
O12   O     O_R   0.908390 0.408380 0.614690 -0.542172
O13   O     O_R   0.908390 0.591620 0.614690 -0.570385
O14   O     O_R   0.408370 0.908380 0.385360 -0.653788
O15   O     O_R   0.408370 0.091620 0.385360 -0.634131
O16   O     O_R   0.908370 0.408380 0.385360 -0.653788
O17   O     O_R   0.908370 0.591620 0.385360 -0.634131
O18   O     O_R   0.591620 0.091610 0.614640 -0.641643
Zn1   Zn    Zn3+2 0.500010 1.000000 0.653130 0.970215
Zn2   Zn    Zn3+2 0.000010 0.500000 0.653130 0.970215
Zn3   Zn    Zn3+2 0.499980 0.000000 0.346870 0.937613
Zn4   Zn    Zn3+2 0.999980 0.500000 0.346870 0.937612

loop_
_geom_bond_atom_site_label_1
_geom_bond_atom_site_label_2
_ccdc_geom_bond_type
C44   C49   A    
C33   C55   A    
C64   H35   S    
C66   C68   A    
C37   H6    S    
C24   N2    A    
C12   O15   A    
C68   H18   S    
C15   H41   S    
C36   C42   A    
C4    C8    A    
C39   C41   A    
C12   O11   A    
C30   N4    A    
O7    Zn4   S    
C62   C63   S    
O8    Zn4   S    
C22   C29   A    
O11   Zn1   S    
C3    C7    A    
O12   Zn2   S    
C45   H1    S    
C20   N1    A    
C11   C14   A    
C17   O10   S    
C6    C25   S    
C10   H26   S    
O16   Zn4   S    
O13   Zn2   S    
C64   H36   S    
C32   C54   A    
C63   H31   S    
C62   H30   S    
C22   N1    A    
C34   O13   A    
C31   H44   S    
C16   O9    S    
C8    C52   A    
C40   C44   A    
C63   H33   S    
C38   H7    S    
C12   C58   S    
C14   H40   S    
C29   N3    A    
C60   C66   A    
O17   Zn4   S    
C38   C40   A    
C55   C60   A    
C4    C56   A    
C34   C60   S    
C5    C49   A    
C2    C6    A    
C5    C68   A    
C24   H24   S    
C65   H37   S    
C52   C54   A    
C54   C59   A    
C10   C21   A    
C45   C58   A    
C13   H28   S    
C42   H11   S    
C29   H42   S    
C2    C67   A    
C28   O4    A    
C41   H10   S    
C27   O7    A    
C47   C51   A    
C34   O17   A    
C32   C37   A    
O5    Zn3   S    
C3    C45   A    
C6    C50   A    
C7    C28   S    
C5    C26   S    
O4    Zn2   S    
C37   C43   A    
C35   C39   A    
C63   H32   S    
O15   Zn3   S    
C62   H29   S    
C61   C67   A    
C9    C20   A    
C23   C61   S    
C41   C46   A    
C22   H22   S    
C2    H19   S    
C1    O1    A    
C47   H16   S    
C31   C53   A    
C25   O18   A    
C9    C11   A    
C66   H23   S    
C35   H4    S    
C1    O14   A    
C64   O10   S    
C13   C15   A    
C43   H13   S    
C14   C16   A    
O1    Zn1   S    
C9    H25   S    
C65   H38   S    
C4    H21   S    
C43   C48   A    
C11   H27   S    
C15   C17   A    
C19   C21   A    
C3    H20   S    
C40   H9    S    
C50   C57   A    
C48   H17   S    
C26   O2    A    
O6    Zn3   S    
C21   N2    A    
C10   C13   A    
C18   N3    A    
C62   O9    S    
C32   H2    S    
C53   C58   A    
C28   O8    A    
C57   C61   A    
O18   Zn1   S    
N4    Zn2   S    
C27   O3    A    
C46   C50   A    
C44   H14   S    
C33   C38   A    
C56   H12   S    
C56   C59   A    
C30   H43   S    
C35   C57   A    
N1    Zn3   S    
C64   C65   S    
C1    C59   S    
C7    C51   A    
C49   C55   A    
O3    Zn2   S    
C39   H8    S    
N3    Zn1   S    
C19   N4    A    
C17   C19   A    
C23   O16   A    
C18   C20   A    
C42   C47   A    
N2    Zn4   S    
C24   C30   A    
C36   H5    S    
C33   H3    S    
C46   H15   S    
C48   C52   A    
C16   C18   A    
C8    C27   S    
C31   C36   A    
C26   O6    A    
C51   C53   A    
O14   Zn3   S    
C25   O5    A    
C65   H39   S    
O2    Zn1   S    
C67   H34   S    
C23   O12   A    
