data_str_m12_o9_o11_f0_bcu.sym.140
_audit_creation_date              2012-12-11T17:39:27-0500
_audit_creation_method            fapswitch 2.2
_symmetry_space_group_name_H-M    P1
_symmetry_Int_Tables_number       1
_space_group_crystal_system       triclinic
_cell_length_a                    15.137185
_cell_length_b                    15.17969
_cell_length_c                    14.915684
_cell_angle_alpha                 108.458331
_cell_angle_beta                  110.417151
_cell_angle_gamma                 109.995117
_cell_volume                      2622.71430457

loop_
_atom_site_label
_atom_site_type_symbol
_atom_type_description
_atom_site_fract_x
_atom_site_fract_y
_atom_site_fract_z
_atom_type_partial_charge
C1    C     C_R   0.909746 0.974166 0.721707 -0.099669
C2    C     C_R   0.004180 0.325415 0.542809 -0.020170
C3    C     C_R   0.366017 0.296696 0.801782 0.172402
C4    C     C_R   0.636104 0.934891 0.436239 0.140633
C5    C     C_R   0.727876 0.687336 0.276222 -0.105420
C6    C     C_R   0.246677 0.028435 0.434395 -0.172194
C7    C     C_R   0.092751 0.790618 0.590715 -0.163684
C8    C     C_R   0.906202 0.997879 0.197339 -0.133620
C9    C     C_R   0.087840 0.088673 0.285813 -0.048681
C10   C     C_R   0.910651 0.702896 0.505575 0.492059
C11   C     C_R   0.731260 0.780786 0.185347 -0.075932
C12   C     C_R   0.094325 0.314375 0.557913 -0.093102
C13   C     C_R   0.257450 0.944117 0.533811 -0.022211
C14   C     C_R   0.689771 0.678975 0.173352 0.149976
C15   C     C_R   0.284744 0.964495 0.459838 0.212851
C16   C     C_R   0.002678 0.700019 0.562908 -0.064881
C17   C     C_R   0.993498 0.054587 0.189476 0.129430
C18   C     C_R   0.491419 0.605245 0.308230 -0.492125
C19   C     C_R   0.467606 0.687042 0.307549 0.533166
C20   C     C_R   0.454071 0.742862 0.392494 0.053608
C21   C     C_R   0.457862 0.711808 0.472469 -0.352869
C22   C     C_R   0.479288 0.629149 0.470990 -0.146304
C23   C     C_R   0.302008 0.205636 0.799418 -0.138837
C24   C     C_R   0.498619 0.576970 0.390699 0.610215
C25   C     C_R   0.361114 0.851414 0.410853 0.440505
C26   C     C_R   0.367923 0.952092 0.441542 -0.090280
C27   C     C_R   0.459540 0.043854 0.466003 -0.127251
C28   C     C_R   0.548149 0.036011 0.467453 0.464740
C29   C     C_R   0.540461 0.935212 0.432927 -0.085321
C30   C     C_R   0.449484 0.842555 0.407495 -0.097004
C31   C     C_R   0.448024 0.175394 0.403676 -0.261642
C32   C     C_R   0.457700 0.275227 0.422598 -0.071774
C33   C     C_R   0.488782 0.350830 0.526787 -0.063777
C34   C     C_R   0.694136 0.988215 0.398894 0.120220
C35   C     C_R   0.510310 0.326646 0.612126 -0.338636
C36   C     C_R   0.498048 0.225081 0.593479 0.536301
C37   C     C_R   0.465577 0.148845 0.487888 0.067705
C38   C     C_R   0.800310 0.168974 0.187683 -0.140999
C39   C     C_R   0.881083 0.267057 0.283947 0.516817
C40   C     C_R   0.849308 0.322580 0.350574 -0.005246
C41   C     C_R   0.737238 0.282664 0.313812 -0.128864
C42   C     C_R   0.658262 0.184359 0.217939 -0.102905
C43   C     C_R   0.689755 0.126824 0.155380 -0.167217
C44   C     C_R   0.930566 0.512246 0.470561 -0.241317
C45   C     C_R   0.303399 0.297255 0.708948 -0.090704
C46   C     C_R   0.001906 0.607796 0.569433 0.037123
C47   C     C_R   0.075350 0.613877 0.663985 -0.122876
C48   C     C_R   0.074057 0.518288 0.656110 0.479812
C49   C     C_R   0.001567 0.422240 0.553952 -0.044554
C50   C     C_R   0.929445 0.419695 0.460691 -0.063991
C51   C     C_R   0.267880 0.764523 0.801145 -0.196476
C52   C     C_R   0.341964 0.872552 0.882294 -0.293079
C53   C     C_R   0.304928 0.937384 0.928821 0.594072
C54   C     C_R   0.194311 0.891206 0.897490 -0.152557
C55   C     C_R   0.120103 0.783199 0.816325 -0.230485
C56   C     C_R   0.699143 0.907984 0.499986 -0.173193
C57   C     C_R   0.155960 0.720052 0.765399 0.122994
C58   C     C_2   0.540662 0.458399 0.884414 -0.352785
C59   C     C_2   0.482662 0.367194 0.880374 -0.244956
C60   C     C_2   0.632603 0.548836 0.991333 0.637589
C61   C     C_2   0.609793 0.582153 0.070123 -0.246634
C62   C     C_R   0.393834 0.262529 0.131410 -0.398902
C63   C     C_R   0.286090 0.202787 0.106673 0.561751
C64   C     C_R   0.206987 0.227091 0.056002 -0.009369
C65   C     C_R   0.235660 0.308731 0.028799 -0.315795
C66   C     C_R   0.342422 0.366232 0.051993 -0.159183
C67   C     C_R   0.912839 0.223122 0.479044 0.490851
C68   C     C_R   0.422421 0.344422 0.104214 0.507719
C69   C     C_R   0.082391 0.171489 0.125235 0.548062
C70   C     C_R   0.987321 0.086711 0.104436 -0.024061
C71   C     C_R   0.890953 0.032489 0.999361 -0.019347
C72   C     C_R   0.899299 0.055998 0.919198 -0.241686
C73   C     C_R   0.001156 0.100408 0.927917 0.020137
C74   C     C_R   0.095007 0.168669 0.035064 -0.078697
C75   C     C_R   0.785459 0.837338 0.930608 -0.377367
C76   C     C_R   0.686694 0.737277 0.861031 0.440769
C77   C     C_R   0.586150 0.735200 0.822698 0.435250
C78   C     C_R   0.092523 0.063859 0.813179 -0.130355
C79   C     C_R   0.586416 0.832159 0.850640 -0.308973
C80   C     C_R   0.684032 0.931485 0.912395 0.427315
C81   C     C_R   0.785910 0.934897 0.956155 -0.075833
C82   C     C_R   0.002819 0.052521 0.825464 0.092745
H1    H     H_    0.253318 0.058047 0.378969 0.122362
H2    H     H_    0.177900 0.817691 0.641814 0.140000
H3    H     H_    0.171516 0.143871 0.314047 0.169433
H4    H     H_    0.712131 0.802148 0.121313 0.106764
H5    H     H_    0.278958 0.900192 0.573612 0.117298
H6    H     H_    0.178789 0.377704 0.600321 0.154920
H7    H     H_    0.448524 0.754721 0.538736 0.194831
H8    H     H_    0.426553 0.118126 0.323414 0.148656
H9    H     H_    0.442323 0.294365 0.356829 0.168338
H10   H     H_    0.497754 0.428872 0.542024 0.174979
H11   H     H_    0.628423 0.049657 0.081797 0.159677
H12   H     H_    0.331001 0.173083 0.850534 0.124550
H13   H     H_    0.824194 0.125249 0.138342 0.136801
H14   H     H_    0.711498 0.324905 0.363062 0.133998
H15   H     H_    0.573028 0.151954 0.194025 0.137909
H16   H     H_    0.427457 0.906632 0.906563 0.140601
H17   H     H_    0.527939 0.540844 0.055887 0.132599
H18   H     H_    0.175365 0.327893 0.989921 0.185230
H19   H     H_    0.332908 0.347623 0.676547 0.097907
H20   H     H_    0.824775 0.017879 0.841708 0.156611
H21   H     H_    0.509129 0.829786 0.817254 0.184392
H22   H     H_    0.674510 0.856545 0.533058 0.124831
N1    N     N_R   0.941940 0.944580 0.650780 -0.043441
N2    N     N_R   0.206190 0.054080 0.497260 -0.050176
N3    N     N_R   0.056380 0.847410 0.553580 -0.073880
N4    N     N_R   0.944890 0.999100 0.292900 -0.049110
N5    N     N_R   0.058060 0.055420 0.349220 -0.060189
N6    N     N_R   0.943200 0.791100 0.497260 -0.067733
N7    N     N_R   0.795540 0.849750 0.292910 -0.067572
N8    N     N_R   0.205730 0.996760 0.553580 -0.060540
N9    N     N_R   0.056800 0.208900 0.502740 -0.076965
N10   N     N_R   0.204460 0.150250 0.707090 -0.049280
N11   N     N_R   0.794270 0.003240 0.446420 -0.060482
N12   N     N_R   0.204920 0.207570 0.650770 -0.049748
N13   N     N_R   0.793810 0.945920 0.502740 -0.055520
N14   N     N_R   0.943620 0.152590 0.446420 -0.081944
N15   N     N_R   0.055110 0.000900 0.707100 -0.052860
N16   N     N_R   0.795080 0.792430 0.349230 -0.049960
Ni1   Ni    Ni4+2 0.869690 0.869690 0.500000 0.260827
Ni2   Ni    Ni4+2 0.130310 0.130310 0.500000 0.231631
Ni3   Ni    Ni4+2 0.129250 0.998840 0.629170 0.220703
Ni4   Ni    Ni4+2 0.870750 0.001160 0.370830 0.233222
H23   H     H_    0.825254 0.941344 0.698662 0.100748
H24   H     H_    0.821914 0.973980 0.147930 0.099754
O1    O     O_3   0.806387 0.642967 0.483792 -0.782153
H25   H     H_    0.806658 0.593519 0.513980 0.322436
O2    O     O_3   0.526091 0.500369 0.396123 -0.780777
H26   H     H_    0.544059 0.476175 0.338413 0.331049
H27   H     H_    0.506569 0.565491 0.246084 0.167924
O3    O     O_3   0.460843 0.716137 0.227571 -0.764257
H28   H     H_    0.473676 0.670243 0.175392 0.311958
H29   H     H_    0.484403 0.607937 0.534726 0.167136
O4    O     O_3   0.267085 0.764542 0.384622 -0.755791
H30   H     H_    0.263619 0.696308 0.344984 0.335930
O5    O     O_3   0.646072 0.126696 0.506572 -0.738810
H31   H     H_    0.655091 0.191702 0.561261 0.330441
H32   H     H_    0.538163 0.387678 0.692805 0.160164
O6    O     O_3   0.519917 0.199513 0.676633 -0.760561
H33   H     H_    0.546082 0.263159 0.746041 0.327879
O7    O     O_3   0.988522 0.303774 0.310095 -0.749061
H34   H     H_    0.035680 0.378342 0.372967 0.325881
H35   H     H_    0.877450 0.510300 0.397699 0.158588
O8    O     O_3   0.140158 0.514551 0.744805 -0.757231
H36   H     H_    0.173716 0.581930 0.813868 0.330120
H37   H     H_    0.296744 0.717238 0.762029 0.174262
O9    O     O_3   0.374050 0.046056 0.002442 -0.808234
H38   H     H_    0.445353 0.068074 0.005946 0.307222
H39   H     H_    0.164896 0.940141 0.932949 0.169752
H40   H     H_    0.662535 0.008644 0.336228 0.139137
H41   H     H_    0.033898 0.750261 0.789159 0.147177
H42   H     H_    0.506770 0.477092 0.821027 0.170073
H43   H     H_    0.518461 0.352095 0.946683 0.202757
O10   O     O_3   0.737254 0.600372 0.010099 -0.736424
H44   H     H_    0.737766 0.555610 0.945572 0.333374
O11   O     O_3   0.528065 0.405636 0.129885 -0.816242
H45   H     H_    0.574402 0.380665 0.166827 0.318707
H46   H     H_    0.455522 0.245801 0.172419 0.143355
O12   O     O_3   0.255825 0.120195 0.130372 -0.774127
H47   H     H_    0.318806 0.109853 0.159841 0.328489
H48   H     H_    0.362987 0.428989 0.030490 0.144575
O13   O     O_3   0.162870 0.251111 0.232476 -0.752032
H49   H     H_    0.212683 0.313828 0.232657 0.323618
H50   H     H_    0.862832 0.839218 0.958065 0.177440
O14   O     O_3   0.686819 0.641674 0.824949 -0.788876
H51   H     H_    0.763469 0.657986 0.852218 0.330531
O15   O     O_3   0.485980 0.640587 0.753599 -0.763924
H52   H     H_    0.497305 0.578511 0.731814 0.339859
O16   O     O_3   0.674956 0.021013 0.921266 -0.760595
H53   H     H_    0.748198 0.085512 0.959758 0.329436
O17   O     O_3   0.807928 0.196905 0.453427 -0.752922
H54   H     H_    0.811172 0.261661 0.501863 0.336289
H55   H     H_    0.178029 0.113071 0.874483 0.131818
H56   H     H_    0.706397 0.622923 0.295284 0.181438

loop_
_geom_bond_atom_site_label_1
_geom_bond_atom_site_label_2
_ccdc_geom_bond_type
C66   C68   A    
C13   H5    S    
C40   C41   A    
O11   H45   S    
C41   C42   A    
C3    C23   A    
C35   C36   A    
N3    Ni3   S    
C2    C12   A    
O8    H36   S    
O4    H30   S    
C54   H39   S    
N2    N8    A    
C53   C54   A    
N16   Ni1   S    
C77   O15   S    
C26   C27   A    
C29   C30   A    
N12   Ni2   S    
C22   H29   S    
C56   N13   A    
C18   C24   A    
C28   C29   A    
C58   H42   S    
C33   H10   S    
C1    H23   S    
C12   N9    A    
C13   N8    A    
N6    Ni1   S    
C68   O11   S    
C33   C35   A    
C11   C14   A    
N5    Ni2   S    
C41   H14   S    
O16   H53   S    
C11   H4    S    
C58   C60   S    
C19   O3    S    
N4    N5    A    
C66   H48   S    
C18   C19   A    
C73   C74   A    
C8    H24   S    
N13   Ni1   S    
C35   H32   S    
C6    C15   A    
C54   C55   A    
C24   O2    S    
N9    Ni2   S    
O13   H49   S    
O3    H28   S    
N11   N13   A    
C38   H13   S    
C48   C49   A    
C76   O14   S    
C70   C71   A    
C51   C57   A    
C80   O16   S    
C4    C29   S    
C72   C73   A    
C9    H3    S    
C7    H2    S    
C17   C70   S    
C21   C22   A    
C4    C56   A    
C5    H56   S    
C79   H21   S    
C18   H27   S    
C61   H17   S    
C63   O12   S    
N4    Ni4   S    
C8    N4    A    
C59   H43   S    
C44   C46   A    
C77   C79   A    
C9    N5    A    
C4    C34   A    
O10   H44   S    
C12   H6    S    
C5    N16   A    
C11   N7    A    
C51   C52   A    
C55   H41   S    
O6    H33   S    
C56   H22   S    
N8    Ni3   S    
C2    C67   A    
C42   H15   S    
C16   C46   S    
C39   C40   A    
C75   C81   A    
C15   C26   S    
C21   H7    S    
C25   C26   A    
C63   C64   A    
C14   C61   S    
C3    C45   A    
C53   O9    S    
C31   C37   A    
C32   C33   A    
C60   C61   D    
C75   C76   A    
C62   C63   A    
C2    C49   S    
C47   C57   S    
C78   C82   A    
C47   C48   A    
C39   O7    S    
C51   H37   S    
C44   H35   S    
C31   H8    S    
C48   O8    S    
N2    Ni2   S    
C6    N2    A    
N1    Ni1   S    
C69   C74   A    
C75   H50   S    
N14   Ni4   S    
C52   C53   A    
C76   C77   A    
C36   O6    S    
C5    C14   A    
C45   H19   S    
N10   Ni3   S    
C9    C17   A    
O15   H52   S    
C65   C66   A    
C13   C15   A    
O14   H51   S    
N3    N6    A    
C7    N3    A    
C79   C80   A    
C58   C59   D    
C42   C43   A    
C10   O1    S    
C73   C82   S    
N11   Ni4   S    
O17   H54   S    
O2    H26   S    
C44   C50   A    
C25   C30   A    
C46   C47   A    
C36   C37   A    
C6    H1    S    
N7    Ni4   S    
C62   H46   S    
C31   C32   A    
C7    C16   A    
C28   O5    S    
C69   O13   S    
C65   H18   S    
C80   C81   A    
N10   N12   A    
C34   H40   S    
N15   Ni3   S    
C67   O17   S    
O5    H31   S    
C8    C17   A    
C23   H12   S    
C62   C68   A    
N1    N15   A    
O12   H47   S    
C19   C20   A    
C55   C57   A    
C78   N15   A    
C34   N11   A    
C60   O10   S    
C38   C43   A    
C10   C16   A    
C20   C30   S    
C23   N10   A    
C1    C82   A    
C45   N12   A    
C38   C39   A    
C72   H20   S    
C27   C37   S    
C40   C50   S    
C64   C65   A    
C52   H16   S    
C43   H11   S    
C10   N6    A    
C22   C24   A    
O9    H38   S    
C69   C70   A    
C25   O4    S    
C67   N14   A    
N9    N14   A    
C32   H9    S    
C71   C72   A    
C20   C21   A    
C49   C50   A    
C27   C28   A    
C78   H55   S    
C64   C74   S    
O7    H34   S    
N7    N16   A    
O1    H25   S    
C1    N1    A    
C71   C81   S    
C3    C59   S    
