data_str_m9_o2_o2_f0_sra.sym.78
_audit_creation_date              2012-12-11T16:35:23-0500
_audit_creation_method            fapswitch 2.2
_symmetry_space_group_name_H-M    P1
_symmetry_Int_Tables_number       1
_space_group_crystal_system       triclinic
_cell_length_a                    6.942479
_cell_length_b                    17.777982
_cell_length_c                    19.424509
_cell_angle_alpha                 108.897351
_cell_angle_beta                  90.39248
_cell_angle_gamma                 90.385808
_cell_volume                      2268.06057624

loop_
_atom_site_label
_atom_site_type_symbol
_atom_type_description
_atom_site_fract_x
_atom_site_fract_y
_atom_site_fract_z
_atom_type_partial_charge
O1    O     O_R   0.505700 0.440210 0.561730 -0.531712
O2    O     O_R   0.169350 0.406300 0.412660 -0.542025
O3    O     O_R   0.005650 0.559790 0.438270 -0.544888
C1    C     C_R   0.338280 0.382538 0.385509 0.684322
O4    O     O_R   0.175560 0.430650 0.559600 -0.523473
O5    O     O_R   0.011900 0.584320 0.586250 -0.531418
C2    C     C_R   0.344112 0.416442 0.581730 0.689603
O6    O     O_R   0.499450 0.415680 0.413750 -0.536318
O7    O     O_3   0.341370 0.550390 0.508570 -0.374145
V1    V     V_3+5 0.063940 0.490650 0.498410 1.458781
O8    O     O_R   0.682570 0.593700 0.587340 -0.542105
C3    C     C_R   0.851885 0.614091 0.616610 0.721223
O9    O     O_R   0.676370 0.569350 0.440400 -0.546415
C4    C     C_R   0.845146 0.584327 0.418825 0.671893
V2    V     V_3+5 0.564750 0.509350 0.501590 1.438926
O10   O     O_3   0.837190 0.449610 0.491430 -0.355351
C5    C     C_R   0.036050 0.678670 0.282843 -0.149120
H1    H     H_    0.166473 0.675639 0.251890 0.103957
C6    C     C_R   0.024818 0.633614 0.329896 -0.164456
H2    H     H_    0.147651 0.598150 0.334296 0.116899
C7    C     C_R   0.856469 0.633164 0.369648 -0.046568
C8    C     C_R   0.699886 0.679350 0.361470 -0.168545
H3    H     H_    0.568513 0.680774 0.391607 0.121525
C9    C     C_R   0.712019 0.725354 0.315123 -0.144306
H4    H     H_    0.590014 0.761607 0.311725 0.100738
C10   C     C_R   0.880166 0.725542 0.274871 0.090891
C11   C     C_R   0.728800 0.786595 0.187005 -0.147833
H5    H     H_    0.591172 0.760236 0.192474 0.101777
C12   C     C_R   0.740298 0.832350 0.140531 -0.167829
H6    H     H_    0.610742 0.840700 0.112578 0.122029
C13   C     C_R   0.916698 0.866005 0.129603 -0.049503
C14   C     C_R   0.081265 0.853007 0.166634 -0.163205
H7    H     H_    0.219095 0.878649 0.160054 0.116582
C15   C     C_R   0.069311 0.808124 0.213924 -0.144850
H8    H     H_    0.198330 0.801341 0.242869 0.099008
C16   C     C_R   0.892897 0.774030 0.224748 0.089311
H9    H     H_    0.066600 0.644294 0.939703 0.121713
C17   C     C_R   0.837529 0.903954 0.739412 -0.031963
C18   C     C_R   0.777411 0.912288 0.673531 -0.145006
C19   C     C_R   0.744305 0.846153 0.613286 -0.138832
C20   C     C_R   0.774043 0.770860 0.617620 -0.137366
C21   C     C_R   0.830656 0.759285 0.683861 0.070808
C22   C     C_R   0.857567 0.827016 0.747375 0.027422
C23   C     C_R   0.864621 0.681405 0.686036 -0.190081
C24   C     C_R   0.918348 0.669477 0.753118 0.026924
C25   C     C_R   0.940008 0.737418 0.817163 0.069957
C26   C     C_R   0.907632 0.815444 0.814925 -0.191177
C27   C     C_R   0.948243 0.592337 0.760348 -0.039979
C28   C     C_R   0.003569 0.584897 0.827150 -0.147194
C29   C     C_R   0.025713 0.651149 0.888180 -0.137141
C30   C     C_R   0.992578 0.726161 0.883801 -0.137747
H10   H     H_    0.760981 0.970762 0.668132 0.118667
H11   H     H_    0.700452 0.853272 0.562161 0.121033
H12   H     H_    0.752541 0.722093 0.567675 0.106970
H13   H     H_    0.026945 0.526746 0.832479 0.119513
H14   H     H_    0.009103 0.775167 0.933932 0.101186
H15   H     H_    0.078763 0.457704 0.183828 0.135742
C31   C     C_R   0.498517 0.231779 0.383442 -0.127968
C32   C     C_R   0.585247 0.161750 0.384497 -0.121998
C33   C     C_R   0.617231 0.100687 0.319846 -0.116577
C34   C     C_R   0.562950 0.109189 0.253609 -0.151321
C35   C     C_R   0.476317 0.179977 0.250489 0.043753
C36   C     C_R   0.443077 0.242582 0.317017 0.078217
C37   C     C_R   0.420994 0.188320 0.182744 -0.183350
C38   C     C_R   0.333460 0.260949 0.182019 0.043981
C39   C     C_R   0.294450 0.322089 0.249405 0.015786
C40   C     C_R   0.351995 0.313628 0.316633 -0.164910
C41   C     C_R   0.287870 0.275995 0.115858 0.354052
C42   C     C_R   0.193222 0.346424 0.117798 -0.185622
C43   C     C_R   0.149902 0.403500 0.183320 -0.169328
C44   C     C_R   0.202261 0.392405 0.248259 -0.153478
H16   H     H_    0.473372 0.276827 0.435381 0.096512
H17   H     H_    0.626587 0.154630 0.435857 0.113960
H18   H     H_    0.683750 0.046184 0.320982 0.117381
H19   H     H_    0.590029 0.059468 0.205135 0.101098
H20   H     H_    0.155693 0.357885 0.067920 0.110803
H21   H     H_    0.169349 0.440122 0.297515 0.118914
C45   C     C_R   0.490113 0.349002 0.740887 -0.144937
H22   H     H_    0.589387 0.368312 0.786632 0.112504
C46   C     C_R   0.477148 0.393287 0.693170 -0.132957
H23   H     H_    0.560363 0.447407 0.704697 0.132294
C47   C     C_R   0.351771 0.369994 0.632899 -0.042996
C48   C     C_R   0.229867 0.303951 0.623770 -0.139907
H24   H     H_    0.128892 0.285543 0.578523 0.120799
C49   C     C_R   0.239476 0.260403 0.672474 -0.143134
H25   H     H_    0.145877 0.209110 0.663754 0.111577
C50   C     C_R   0.372193 0.281749 0.730878 0.073894
C51   C     C_R   0.222321 0.214864 0.813573 -0.151712
H26   H     H_    0.082324 0.235875 0.803401 0.106346
C52   C     C_R   0.236971 0.169932 0.860784 -0.149927
H27   H     H_    0.108783 0.160763 0.888187 0.156790
C53   C     C_R   0.415307 0.139883 0.874481 -0.063817
C54   C     C_R   0.581225 0.163480 0.845305 -0.165329
H28   H     H_    0.722098 0.146961 0.858446 0.154216
C55   C     C_R   0.567612 0.209853 0.799220 -0.148287
H29   H     H_    0.698023 0.225619 0.776594 0.107159
C56   C     C_R   0.387360 0.234408 0.781429 0.090801
O11   O     O_R   0.273230 0.084330 0.086440 -0.530476
O12   O     O_R   0.596660 0.069390 0.940470 -0.532054
O13   O     O_R   0.760270 0.915710 0.913690 -0.535118
C57   C     C_R   0.427215 0.086078 0.920037 0.766873
O14   O     O_R   0.603330 0.093680 0.087390 -0.540579
O15   O     O_R   0.766990 0.940160 0.061660 -0.548913
C58   C     C_R   0.434388 0.117830 0.114646 0.791684
O16   O     O_R   0.266510 0.059870 0.938470 -0.517973
O17   O     O_3   0.431050 0.949630 0.991510 -0.382779
V3    V     V_3+5 0.708490 0.009340 0.001580 1.467849
O18   O     O_R   0.096270 0.930570 0.059390 -0.550348
C59   C     C_R   0.927557 0.915395 0.080869 0.662520
O19   O     O_R   0.089600 0.906290 0.912460 -0.538195
C60   C     C_R   0.919827 0.883582 0.884488 0.721017
V4    V     V_3+5 0.207670 0.990600 0.998190 1.463340
O20   O     O_3   0.935250 0.050360 0.008480 -0.352532
C61   C     C_1   0.893245 0.976240 0.794696 0.250280
N1    N     N_1   0.939794 0.033889 0.839521 -0.373728
C62   C     C_1   0.916608 0.517806 0.703205 0.227215
N2    N     N_1   0.891066 0.457267 0.658340 -0.332853
O21   O     O_3   0.344373 0.223891 0.049872 -0.664996
H30   H     H_    0.308779 0.245585 0.010583 0.269634

loop_
_geom_bond_atom_site_label_1
_geom_bond_atom_site_label_2
_ccdc_geom_bond_type
C45   C50   A    
C54   H28   S    
C11   C12   A    
C55   H29   S    
C20   C21   A    
C6    H2    S    
C1    O6    A    
C61   N1    T    
O17   V4    S    
C49   H25   S    
O18   C59   A    
C12   H6    S    
C5    C10   A    
C4    C7    S    
C6    C7    A    
C9    C10   A    
C15   H8    S    
O5    C3    A    
C17   C18   A    
C17   C61   S    
C26   C60   S    
O17   V3    S    
V2    O10   S    
C62   N2    T    
C42   H20   S    
C30   H14   S    
O19   C60   A    
V3    O20   S    
C35   C37   A    
C41   O21   S    
O21   H30   S    
O8    V2    S    
C48   H24   S    
C41   C42   A    
C43   C44   A    
O1    V2    S    
H15   C43   S    
O7    V1    S    
C32   H17   S    
C51   C56   A    
C27   C62   S    
C39   C40   A    
C32   C33   A    
C54   C55   A    
O9    C4    A    
C42   C43   A    
C21   C23   A    
V4    O20   S    
C29   C30   A    
C49   C50   A    
C57   O16   A    
C36   C40   A    
O11   V4    S    
C9    H4    S    
C46   C47   A    
C18   C19   A    
O4    C2    A    
C45   H22   S    
C31   C32   A    
C28   H13   S    
C25   C30   A    
C47   C48   A    
C34   H19   S    
O18   V4    S    
C33   C34   A    
C14   C15   A    
O2    C1    A    
C35   C36   A    
C52   C53   A    
C39   C44   A    
C38   C41   A    
C5    H1    S    
C13   C59   S    
C45   C46   A    
O14   V3    S    
O14   C58   A    
O3    C4    A    
C53   C57   S    
C10   C16   S    
C19   C20   A    
C48   C49   A    
O16   V4    S    
C51   C52   A    
C28   C29   A    
O6    V2    S    
O9    V2    S    
C8    C9    A    
C21   C22   A    
O2    V1    S    
C44   H21   S    
C23   C24   A    
C24   C27   A    
C31   C36   A    
C37   C58   S    
C25   C26   A    
C27   C28   A    
O13   V3    S    
O12   C57   A    
O1    C2    A    
C13   C14   A    
C46   H23   S    
O5    V1    S    
C1    C40   S    
O8    C3    A    
C55   C56   A    
C11   C16   A    
O12   V3    S    
O15   C59   A    
C14   H7    S    
O7    V2    S    
C17   C22   A    
C12   C13   A    
O3    V1    S    
V1    O10   S    
C37   C38   A    
H9    C29   S    
C31   H16   S    
C52   H27   S    
O11   C58   A    
C33   H18   S    
C53   C54   A    
C5    C6    A    
C18   H10   S    
C15   C16   A    
C38   C39   A    
C34   C35   A    
O19   V4    S    
C20   H12   S    
C24   C25   A    
O4    V1    S    
C2    C47   S    
C51   H26   S    
O13   C60   A    
C3    C23   S    
C19   H11   S    
C11   H5    S    
C8    H3    S    
O15   V3    S    
C7    C8    A    
C22   C26   A    
C50   C56   S    
