data_str_m9_o18_o19_f0_sra.sym.49
_audit_creation_date              2012-12-11T15:27:39-0500
_audit_creation_method            fapswitch 2.2
_symmetry_space_group_name_H-M    P1
_symmetry_Int_Tables_number       1
_space_group_crystal_system       triclinic
_cell_length_a                    23.051306
_cell_length_b                    7.300202
_cell_length_c                    15.120637
_cell_angle_alpha                 89.940676
_cell_angle_beta                  107.705956
_cell_angle_gamma                 90.102838
_cell_volume                      2423.95157467

loop_
_atom_site_label
_atom_site_type_symbol
_atom_type_description
_atom_site_fract_x
_atom_site_fract_y
_atom_site_fract_z
_atom_type_partial_charge
O1    O     O_R   0.711000 0.648610 0.341170 -0.530940
O2    O     O_R   0.289000 0.351390 0.658830 -0.547046
O3    O     O_R   0.789000 0.148610 0.158830 -0.538163
O4    O     O_R   0.211000 0.851390 0.841170 -0.548150
O5    O     O_R   0.829650 0.322030 0.336650 -0.535933
O6    O     O_R   0.170350 0.677970 0.663350 -0.539790
O7    O     O_R   0.670350 0.822030 0.163350 -0.538628
O8    O     O_R   0.329650 0.177970 0.836650 -0.539588
C1    C     C_R   0.854268 0.485907 0.356752 0.755169
C2    C     C_R   0.145730 0.514091 0.643259 0.744513
C3    C     C_R   0.645724 0.985758 0.143266 0.730309
C4    C     C_R   0.354271 0.014239 0.856749 0.744262
O9    O     O_R   0.713950 0.319280 0.352070 -0.548350
O10   O     O_R   0.286050 0.680720 0.647930 -0.525097
O11   O     O_R   0.786050 0.819280 0.147930 -0.530235
O12   O     O_R   0.213950 0.180720 0.852070 -0.524335
O13   O     O_R   0.672470 0.142870 0.174360 -0.540316
O14   O     O_R   0.327530 0.857130 0.825640 -0.533995
O15   O     O_R   0.827530 0.642870 0.325640 -0.529207
O16   O     O_R   0.172470 0.357130 0.674360 -0.534025
C5    C     C_R   0.700796 0.487541 0.375306 0.773519
C6    C     C_R   0.299090 0.512972 0.624574 0.778751
C7    C     C_R   0.798423 0.987953 0.123859 0.845860
C8    C     C_R   0.200809 0.012655 0.875320 0.778229
O17   O     O_3   0.736530 0.478650 0.191680 -0.383605
O18   O     O_3   0.263470 0.521350 0.808320 -0.381489
O19   O     O_3   0.763470 0.978650 0.308320 -0.383357
O20   O     O_3   0.236530 0.021350 0.691680 -0.381416
V1    V     V_3+5 0.752500 0.206170 0.260820 1.516803
V2    V     V_3+5 0.247500 0.793830 0.739180 1.515887
V3    V     V_3+5 0.747500 0.706170 0.239180 1.540791
V4    V     V_3+5 0.252500 0.293830 0.760820 1.517041
C9    C     C_R   0.826460 0.002658 0.048993 -0.162737
C10   C     C_R   0.171743 0.008276 0.949488 -0.231676
C11   C     C_R   0.671500 0.501031 0.448946 -0.233867
C12   C     C_R   0.327699 0.509902 0.549903 -0.233701
C13   C     C_R   0.821059 0.102841 0.893449 0.319387
C14   C     C_R   0.179567 0.072674 0.110943 0.322979
C15   C     C_R   0.677299 0.603759 0.604432 0.313689
C16   C     C_R   0.318538 0.575944 0.388096 0.326627
C17   C     C_R   0.792285 0.070194 0.962217 0.225684
C18   C     C_R   0.207512 0.046138 0.040523 0.270285
C19   C     C_R   0.706197 0.562849 0.536752 0.270798
C20   C     C_R   0.291254 0.545005 0.458960 0.269297
C21   C     C_R   0.888625 0.968161 0.068138 0.344182
C22   C     C_R   0.107921 0.994164 0.927453 0.345571
C23   C     C_R   0.607852 0.481029 0.427514 0.349796
C24   C     C_R   0.391576 0.502237 0.571444 0.349583
C25   C     C_R   0.920333 0.041663 0.008610 -0.086642
C26   C     C_R   0.079123 0.046722 0.993912 -0.024331
C27   C     C_R   0.577617 0.558335 0.487434 -0.020313
C28   C     C_R   0.419557 0.557892 0.504357 -0.018826
C29   C     C_R   0.885885 0.101614 0.918262 -0.117491
C30   C     C_R   0.114827 0.063517 0.088557 -0.137770
C31   C     C_R   0.612549 0.612594 0.578473 -0.145834
C32   C     C_R   0.383312 0.573191 0.409838 -0.142348
C33   C     C_R   0.985105 0.058781 0.036900 -0.079007
C34   C     C_R   0.014946 0.075664 0.968553 -0.005105
C35   C     C_R   0.512922 0.576234 0.459939 -0.040939
C36   C     C_R   0.483552 0.590374 0.528870 -0.033673
C37   C     C_R   0.981158 0.145153 0.880225 0.330558
C38   C     C_R   0.020147 0.080663 0.130971 0.260340
C39   C     C_R   0.517673 0.659700 0.617005 0.333143
C40   C     C_R   0.477424 0.599816 0.366298 0.339547
C41   C     C_R   0.917283 0.169516 0.857923 0.325161
C42   C     C_R   0.084589 0.071780 0.157300 0.339677
C43   C     C_R   0.581644 0.682492 0.638953 0.328644
C44   C     C_R   0.413075 0.586691 0.340599 0.325713
C45   C     C_1   0.416753 0.007040 0.918716 -0.145074
C46   C     C_1   0.583237 0.992922 0.081317 -0.137195
C47   C     C_1   0.083245 0.506683 0.581313 -0.144683
C48   C     C_1   0.916752 0.493281 0.418710 -0.135861
C49   C     C_1   0.469139 0.002397 0.969971 0.028268
C50   C     C_1   0.530848 0.997517 0.030072 0.030174
C51   C     C_1   0.030854 0.502221 0.530065 0.028116
C52   C     C_1   0.969142 0.497695 0.469963 0.030135
O21   O     O_3   0.885954 0.271542 0.781396 -0.591185
H1    H     H_    0.913076 0.368527 0.770395 0.315500
O22   O     O_3   0.117812 0.056962 0.249896 -0.592895
H2    H     H_    0.092065 0.000553 0.284479 0.312364
O23   O     O_3   0.613622 0.783621 0.715427 -0.588563
H3    H     H_    0.586914 0.880977 0.726914 0.316363
O24   O     O_3   0.379601 0.573398 0.248057 -0.592615
H4    H     H_    0.405531 0.521454 0.212685 0.315481
O25   O     O_3   0.072638 0.919472 0.844172 -0.618264
H5    H     H_    0.098637 0.867324 0.809280 0.286720
O26   O     O_3   0.916290 0.858984 0.143899 -0.617834
H6    H     H_    0.951449 0.796791 0.132255 0.309210
O27   O     O_3   0.427717 0.430638 0.654920 -0.617136
H7    H     H_    0.402295 0.374324 0.689777 0.285744
O28   O     O_3   0.574369 0.381431 0.350994 -0.609801
H8    H     H_    0.601755 0.314351 0.323259 0.288633
O29   O     O_3   0.269857 0.058168 0.057496 -0.624370
H9    H     H_    0.290810 0.030246 0.123444 0.355066
O30   O     O_3   0.730495 0.095449 0.946078 -0.625252
H10   H     H_    0.714861 0.181127 0.893533 0.349050
O31   O     O_3   0.228878 0.550794 0.442577 -0.625073
H11   H     H_    0.207977 0.520743 0.376870 0.354660
O32   O     O_3   0.768567 0.576314 0.554625 -0.620959
H12   H     H_    0.785473 0.661005 0.607195 0.345523
Br1   Br    Br    0.769892 0.124943 0.765802 -0.363611
Br2   Br    Br    0.230599 0.158381 0.230896 -0.389052
Br3   Br    Br    0.727827 0.622803 0.732617 -0.369206
Br4   Br    Br    0.266117 0.658338 0.268406 -0.388284
O33   O     O_3   0.012005 0.213121 0.821879 -0.624901
H13   H     H_    0.986061 0.196230 0.756812 0.312001
O34   O     O_3   0.990878 0.132060 0.194514 -0.621768
H14   H     H_    0.019388 0.202758 0.245383 0.306112
O35   O     O_3   0.487133 0.727607 0.675651 -0.623098
H15   H     H_    0.513297 0.711260 0.740622 0.312140
O36   O     O_3   0.505961 0.659580 0.303108 -0.619203
H16   H     H_    0.476616 0.729338 0.252861 0.300754

loop_
_geom_bond_atom_site_label_1
_geom_bond_atom_site_label_2
_ccdc_geom_bond_type
O17   V3    S    
C13   Br1   S    
C4    C45   S    
O1    C5    A    
O29   H9    S    
O19   V1    S    
C18   O29   S    
C9    C21   A    
C49   C50   S    
O3    C7    A    
O30   H10   S    
C10   C18   A    
C1    C48   S    
O26   H6    S    
O15   V3    S    
O23   H3    S    
C3    C46   S    
C25   C33   A    
C33   C38   A    
O25   H5    S    
O7    C3    A    
C42   O22   S    
C35   C40   A    
C26   C30   A    
C36   C39   A    
C40   C44   A    
O9    V1    S    
C21   O26   S    
C19   O32   S    
C14   C18   A    
O4    C8    A    
O1    V3    S    
O13   V1    S    
O2    V4    S    
O3    V1    S    
C46   C50   T    
C28   C36   A    
C1    O15   A    
C15   C31   A    
O36   H16   S    
C2    O16   A    
C7    C9    S    
O2    C6    A    
O34   H14   S    
C45   C49   T    
C10   C22   A    
C11   C19   A    
C16   C20   A    
O21   H1    S    
C22   O25   S    
C13   C29   A    
C2    C47   S    
C34   C37   A    
O11   C7    A    
C11   C23   A    
C35   C36   A    
O12   C8    A    
O10   V2    S    
O31   H11   S    
O5    V1    S    
C39   C43   A    
C37   O33   S    
O7    V3    S    
C38   C42   A    
O8    V4    S    
C41   O21   S    
O28   H8    S    
O18   V4    S    
C40   O36   S    
C23   C27   A    
C38   O34   S    
C16   C32   A    
C32   C44   A    
C8    C10   S    
C26   C34   A    
C39   O35   S    
C51   C52   S    
O5    C1    A    
C16   Br4   S    
C20   O31   S    
C31   C43   A    
O24   H4    S    
C14   C30   A    
C21   C25   A    
O8    C4    A    
O9    C5    A    
C48   C52   T    
O11   V3    S    
O14   V2    S    
O6    V2    S    
C43   O23   S    
C24   O27   S    
C12   C20   A    
C27   C35   A    
C29   C41   A    
O16   V4    S    
C3    O13   A    
C44   O24   S    
C23   O28   S    
O6    C2    A    
C15   C19   A    
C15   Br3   S    
C5    C11   S    
O12   V4    S    
C6    C12   S    
O33   H13   S    
C22   C26   A    
O32   H12   S    
C9    C17   A    
O10   C6    A    
O20   V2    S    
C14   Br2   S    
O35   H15   S    
C47   C51   T    
C33   C34   A    
C17   O30   S    
C25   C29   A    
C12   C24   A    
C27   C31   A    
C13   C17   A    
O22   H2    S    
C37   C41   A    
C24   C28   A    
C4    O14   A    
O27   H7    S    
C30   C42   A    
O4    V2    S    
C28   C32   A    
