data_str_m9_o16_o24_f0_sra.sym.206
_audit_creation_date              2013-03-05T15:48:55-0500
_audit_creation_method            fapswitch 2.2
_symmetry_space_group_name_H-M    P1
_symmetry_Int_Tables_number       1
_space_group_crystal_system       triclinic
_cell_length_a                    6.950755
_cell_length_b                    13.562072
_cell_length_c                    20.070419
_cell_angle_alpha                 104.118719
_cell_angle_beta                  90.360467
_cell_angle_gamma                 90.07354
_cell_volume                      1834.77494485

loop_
_atom_site_label
_atom_site_type_symbol
_atom_site_description
_atom_site_fract_x
_atom_site_fract_y
_atom_site_fract_z
_atom_type_partial_charge
O1    O     O_R   0.506780 0.600060 0.449950 -0.594576
O2    O     O_R   0.179840 0.597110 0.589410 -0.601676
O3    O     O_R   0.004570 0.399940 0.550050 -0.565149
C1    C     C_R   0.347898 0.616348 0.617766 0.953631
O4    O     O_R   0.177380 0.612160 0.452890 -0.573621
O5    O     O_R   0.002100 0.415100 0.412560 -0.568921
C2    C     C_R   0.345654 0.639458 0.436816 0.966066
O6    O     O_R   0.509250 0.584900 0.587440 -0.597410
O7    O     O_3   0.337570 0.435330 0.486930 -0.265855
V1    V     V_3+5 0.064650 0.512000 0.502430 1.262733
O8    O     O_R   0.672090 0.402890 0.410590 -0.612878
C3    C     C_R   0.840204 0.381457 0.383053 1.052515
O9    O     O_R   0.674540 0.387840 0.547110 -0.609423
C4    C     C_R   0.844083 0.360949 0.563280 1.040681
V2    V     V_3+5 0.564040 0.488000 0.497570 1.223233
O10   O     O_3   0.840990 0.564670 0.513070 -0.276055
C5    C     C_R   0.913357 0.108396 0.606160 -0.177544
H1    H     H_    0.953004 0.031722 0.580130 0.201645
C6    C     C_R   0.857597 0.281473 0.600691 -0.291226
C7    C     C_R   0.864291 0.317004 0.931612 -0.233577
C8    C     C_R   0.882446 0.393420 0.897072 -0.180196
C9    C     C_R   0.896706 0.370486 0.825385 0.357660
C10   C     C_R   0.871612 0.267766 0.786076 -0.056863
C11   C     C_R   0.861158 0.189653 0.822467 0.037921
C12   C     C_R   0.863627 0.238825 0.712458 0.098625
C13   C     C_R   0.879218 0.134663 0.677440 -0.053295
C14   C     C_R   0.859915 0.058796 0.713996 0.351421
C15   C     C_R   0.851782 0.087151 0.785710 -0.339023
C16   C     C_R   0.832606 0.309040 0.671940 -0.154102
C17   C     C_R   0.906253 0.180919 0.567461 0.333742
C18   C     C_R   0.860411 0.215367 0.895372 -0.127692
H2    H     H_    0.785145 0.385559 0.694446 0.150561
H3    H     H_    0.862846 0.337081 0.987302 0.143281
H4    H     H_    0.898854 0.471162 0.926871 0.164262
H5    H     H_    0.835433 0.027790 0.812827 0.167153
C19   C     C_3   0.790576 0.157872 0.251336 -0.077662
C20   C     C_3   0.965696 0.212656 0.292890 -0.132563
H6    H     H_    0.056372 0.180912 0.328235 0.180310
H7    H     H_    0.736344 0.081228 0.252392 0.125870
C21   C     C_3   0.848019 0.312019 0.312268 -0.231341
C22   C     C_3   0.672872 0.257890 0.271142 -0.141159
C23   C     C_3   0.746425 0.288090 0.205812 -0.224893
C24   C     C_3   0.920245 0.340452 0.247558 0.414233
C25   C     C_3   0.040420 0.242812 0.227720 -0.238490
C26   C     C_3   0.864602 0.189080 0.187124 -0.125770
H8    H     H_    0.521583 0.263624 0.289089 0.138217
H9    H     H_    0.658065 0.319946 0.169830 0.138886
H10   H     H_    0.191689 0.237964 0.209771 0.142664
C27   C     C_3   0.450544 0.788398 0.708043 -0.109619
C28   C     C_3   0.271503 0.833421 0.749784 -0.101872
H11   H     H_    0.208692 0.908442 0.749570 0.160484
H12   H     H_    0.522324 0.821247 0.669648 0.211391
C29   C     C_3   0.359223 0.807226 0.813699 -0.200252
C30   C     C_3   0.539387 0.762837 0.772679 -0.027355
C31   C     C_3   0.441363 0.656968 0.753309 -0.094483
C32   C     C_3   0.261791 0.702080 0.795384 -0.108319
C33   C     C_3   0.173196 0.727580 0.730580 0.028612
C34   C     C_3   0.353244 0.683703 0.689407 -0.185606
H13   H     H_    0.690486 0.777220 0.790692 0.165107
H14   H     H_    0.511414 0.583743 0.754100 0.165197
H15   H     H_    0.184944 0.667746 0.832475 0.178534
H16   H     H_    0.022476 0.710443 0.712958 0.168161
C35   C     C_R   0.318982 0.894393 0.393172 -0.123730
H17   H     H_    0.306656 0.018980 0.310044 0.142832
H18   H     H_    0.299789 0.973891 0.419059 0.163460
C36   C     C_R   0.351409 0.718916 0.398763 -0.166299
C37   C     C_R   0.381995 0.682388 0.068183 -0.180973
C38   C     C_R   0.391711 0.606544 0.103682 -0.054508
C39   C     C_R   0.384269 0.631008 0.175178 -0.084388
C40   C     C_R   0.364786 0.733198 0.213379 0.079592
C41   C     C_R   0.352706 0.810596 0.176490 0.105183
C42   C     C_R   0.356737 0.761128 0.286777 0.077140
C43   C     C_R   0.333669 0.865156 0.321311 0.149256
C44   C     C_R   0.323340 0.939468 0.283991 -0.186143
C45   C     C_R   0.333321 0.912879 0.212823 -0.235367
C46   C     C_R   0.368641 0.689344 0.327247 -0.149935
C47   C     C_R   0.324908 0.821824 0.431934 0.007495
C48   C     C_R   0.362476 0.784061 0.103766 -0.165690
H19   H     H_    0.386766 0.609244 0.304890 0.131465
H20   H     H_    0.391445 0.661846 0.012622 0.118659
H21   H     H_    0.394372 0.567891 0.198719 0.144134
H22   H     H_    0.406969 0.527978 0.075575 0.130442
H23   H     H_    0.324428 0.973541 0.186475 0.129848
O11   O     O_R   0.203580 0.914920 0.912610 -0.591186
O12   O     O_R   0.535710 0.887810 0.047120 -0.593388
O13   O     O_R   0.710730 0.084950 0.087430 -0.599064
C49   C     C_R   0.367679 0.861556 0.064121 0.929557
O14   O     O_R   0.533010 0.902850 0.910600 -0.598741
O15   O     O_R   0.708010 0.100090 0.949930 -0.594547
C50   C     C_R   0.364564 0.879588 0.883585 0.945081
O16   O     O_R   0.206300 0.899780 0.050100 -0.594403
O17   O     O_3   0.375170 0.064580 0.013100 -0.275394
V3    V     V_3+5 0.648200 0.988020 0.997570 1.177403
O18   O     O_R   0.038030 0.112330 0.952840 -0.590862
C51   C     C_R   0.868919 0.137677 0.935153 0.938688
O19   O     O_R   0.040730 0.097300 0.089360 -0.599513
C52   C     C_R   0.872556 0.118838 0.116798 0.947865
V4    V     V_3+5 0.148780 0.012220 0.002360 1.177441
O20   O     O_3   0.871930 0.935430 0.986900 -0.273176
N1    N     N_R   0.941536 0.150034 0.494676 0.214050
O21   O     O_R   0.035263 0.208941 0.463850 -0.455466
O22   O     O_R   0.899725 0.057981 0.460363 -0.418533
N2    N     N_R   0.991337 0.439711 0.242971 0.215126
O23   O     O_R   0.049041 0.452628 0.184179 -0.441045
O24   O     O_R   0.990573 0.516546 0.296386 -0.439384
N3    N     N_R   0.831160 0.953560 0.679012 0.219435
O25   O     O_R   0.867051 0.882675 0.710639 -0.499605
O26   O     O_R   0.734194 0.929298 0.621611 -0.439003
C53   C     C_1   0.301612 0.854274 0.505528 0.126939
N4    N     N_1   0.282516 0.880247 0.564457 -0.059838
N5    N     N_R   0.962313 0.450423 0.795668 0.207267
O27   O     O_R   0.118736 0.438464 0.759287 -0.435455
O28   O     O_R   0.885088 0.540248 0.814116 -0.477045

loop_
_geom_bond_atom_site_label_1
_geom_bond_atom_site_label_2
_geom_bond_distance
_ccdc_geom_bond_type
C48   C49   1.465356 S    
C31   C32   1.551935 S    
C35   H18   1.085418 S    
O15   C51   1.294285 A    
C32   H15   1.108952 S    
C49   O16   1.294159 A    
C43   C44   1.396306 A    
O12   V3    2.028257 S    
N5    O27   1.301646 A    
C46   H19   1.077297 S    
C1    O6    1.301284 A    
O17   V4    1.716120 S    
C33   H16   1.109605 S    
C29   C30   1.543227 S    
C13   C14   1.408588 A    
C5    C13   1.409175 A    
C8    C9    1.400079 A    
C19   C20   1.552997 S    
C20   C21   1.545121 S    
O5    C3    1.297565 A    
N3    O25   1.298349 A    
O18   V4    2.018695 S    
V2    O10   2.170979 S    
V4    O20   2.171069 S    
C17   N1    1.440785 S    
C32   C33   1.549322 S    
C22   C23   1.555084 S    
O13   C52   1.296929 A    
O17   V3    2.152061 S    
O14   V3    2.004622 S    
O8    V2    1.994894 S    
C21   C24   1.529543 S    
C15   H5    1.082377 S    
C38   C39   1.393051 A    
O19   V4    1.995039 S    
C22   H8    1.110364 S    
C40   C41   1.426748 A    
O1    V2    2.021622 S    
O7    V1    2.152036 S    
V3    O20   1.704521 S    
C42   C46   1.414043 A    
C27   C30   1.547350 S    
C31   H14   1.110117 S    
C5    C17   1.394789 A    
C29   C50   1.503192 S    
C19   C22   1.552797 S    
O18   C51   1.296604 A    
C37   C48   1.396810 A    
O11   C50   1.301703 A    
C28   H11   1.108627 S    
C30   H13   1.109986 S    
O12   C49   1.292484 A    
C12   C16   1.410947 A    
C28   C29   1.535117 S    
C44   C45   1.387492 A    
C37   C38   1.388271 A    
N5    O28   1.301301 A    
O4    C2    1.292703 A    
C8    H4    1.083287 S    
C35   C43   1.403844 A    
C14   N3    1.441708 S    
C12   C13   1.420662 A    
C27   C34   1.532515 S    
C23   C26   1.542554 S    
C3    C21   1.502175 S    
O2    C1    1.294182 A    
C24   C25   1.536089 S    
C20   H6    1.108995 S    
O13   V3    2.000431 S    
C10   C11   1.427938 A    
C27   H12   1.101344 S    
C36   C46   1.398883 A    
O19   C52   1.298266 A    
N1    O22   1.301687 A    
C5    H1    1.080607 S    
C19   C26   1.542299 S    
N2    O24   1.300112 A    
C47   C53   1.444878 S    
O3    C4    1.290423 A    
C7    H3    1.084059 S    
C21   C22   1.546525 S    
O14   C50   1.293038 A    
C9    N5    1.434081 S    
O6    V2    1.994740 S    
O9    V2    2.018837 S    
C23   C24   1.536484 S    
C6    C16   1.399023 A    
C14   C15   1.397777 A    
C25   C26   1.543980 S    
C35   C47   1.395989 A    
C29   C32   1.538151 S    
C36   C47   1.404950 A    
C30   C31   1.548793 S    
O1    C2    1.294527 A    
C28   C33   1.549239 S    
C4    C6    1.458984 S    
C19   H7    1.110348 S    
C37   H20   1.083917 S    
C11   C15   1.407056 A    
C42   C43   1.421790 A    
O5    V1    2.000433 S    
O8    C3    1.298462 A    
C16   H2    1.078831 S    
C38   H22   1.082863 S    
C20   C25   1.554633 S    
O7    V2    1.718203 S    
C11   C18   1.419094 A    
O11   V4    1.995351 S    
O4    V1    2.028238 S    
O3    V1    2.027208 S    
C26   C52   1.499311 S    
C53   N4    1.157318 T    
C2    C36   1.465594 S    
C41   C45   1.407961 A    
C45   H23   1.082724 S    
C33   C34   1.542134 S    
V1    O10   1.704481 S    
N3    O26   1.301716 A    
C18   C51   1.470079 S    
N1    O21   1.300109 A    
C23   H9    1.110260 S    
C10   C12   1.433952 A    
O16   V4    2.028022 S    
O15   V3    2.027198 S    
C39   C40   1.417849 A    
C24   N2    1.457436 S    
C39   H21   1.076079 S    
C7    C8    1.386291 A    
C27   C28   1.545616 S    
C31   C34   1.539183 S    
C1    C34   1.503905 S    
N2    O23   1.300209 A    
H17   C44   1.084302 S    
C9    C10   1.433532 A    
C40   C42   1.430242 A    
O9    C4    1.296572 A    
C6    C17   1.406853 A    
C41   C48   1.417601 A    
C25   H10   1.110395 S    
C7    C18   1.392952 A    
O2    V1    2.004474 S    
