data_str_m3_o10_o17_f0_pcu.sym.77
_audit_creation_date              2012-12-10T16:52:09-0500
_audit_creation_method            fapswitch 2.2
_symmetry_space_group_name_H-M    P1
_symmetry_Int_Tables_number       1
_space_group_crystal_system       triclinic
_cell_length_a                    7.764196
_cell_length_b                    8.612389
_cell_length_c                    14.868974
_cell_angle_alpha                 91.164803
_cell_angle_beta                  86.053342
_cell_angle_gamma                 93.507369
_cell_volume                      989.917227001

loop_
_atom_site_label
_atom_site_type_symbol
_atom_type_description
_atom_site_fract_x
_atom_site_fract_y
_atom_site_fract_z
_atom_type_partial_charge
C1    C     C_R   0.545280 0.794273 0.497677 0.868770
C2    C     C_R   0.573122 0.630219 0.811814 -0.177961
C3    C     C_R   0.492547 0.501560 0.232344 -0.058623
C4    C     C_R   0.507453 0.498440 0.767656 -0.058623
C5    C     C_R   0.559484 0.632809 0.186613 -0.162161
C6    C     C_R   0.440516 0.367191 0.813387 -0.162161
C7    C     C_R   0.561597 0.634150 0.093451 0.004577
C8    C     C_R   0.438403 0.365850 0.906549 0.004576
C9    C     C_R   0.497712 0.500042 0.046911 -0.022783
C10   C     C_R   0.502287 0.499958 0.953089 -0.022783
C11   C     C_R   0.429933 0.366006 0.094458 0.026122
C12   C     C_R   0.454720 0.205727 0.502323 0.868770
C13   C     C_R   0.570067 0.633994 0.905541 0.026122
C14   C     C_R   0.627189 0.766796 0.046572 0.571092
C15   C     C_R   0.372810 0.233204 0.953428 0.571092
C16   C     C_1   0.697961 0.907853 0.906942 0.335960
C17   C     C_1   0.302038 0.092147 0.093057 0.335960
C18   C     C_R   0.631361 0.767796 0.952794 -0.145779
C19   C     C_R   0.368639 0.232204 0.047205 -0.145779
C20   C     C_2   0.569597 0.956649 0.496775 0.279708
C21   C     C_2   0.430403 0.043351 0.503225 0.279708
C22   C     C_R   0.502445 0.499941 0.672725 0.856146
C23   C     C_R   0.497555 0.500059 0.327275 0.856146
C24   C     C_R   0.426878 0.369781 0.188185 -0.177960
F1    F     F_    0.686879 0.895506 0.092167 -0.666088
F2    F     F_    0.313120 0.104494 0.907833 -0.666088
F3    F     F_    0.736751 0.016636 0.489656 -0.616633
F4    F     F_    0.263249 0.983363 0.510344 -0.616633
H1    H     H_    0.377096 0.270289 0.227584 0.138818
H2    H     H_    0.622904 0.729711 0.772416 0.138818
H3    H     H_    0.609518 0.733060 0.224191 0.192117
H4    H     H_    0.390482 0.266940 0.775809 0.192117
H5    H     H_    0.013872 0.382703 0.432184 0.219210
H6    H     H_    0.986128 0.617297 0.567816 0.219210
N1    N     N_2   0.950330 0.457950 0.475660 -0.143122
N2    N     N_2   0.049670 0.542050 0.524340 -0.143122
N3    N     N_1   0.751042 0.019970 0.870398 -0.148883
N4    N     N_1   0.248957 0.980030 0.129602 -0.148883
O1    O     O_R   0.389250 0.738570 0.505970 -0.570876
O2    O     O_R   0.610750 0.261430 0.494030 -0.570876
O3    O     O_R   0.678390 0.711620 0.490370 -0.585288
O4    O     O_R   0.321610 0.288380 0.509630 -0.585288
O5    O     O_R   0.355420 0.513510 0.639950 -0.607538
O6    O     O_R   0.644580 0.486490 0.360050 -0.607537
O7    O     O_R   0.644560 0.486560 0.624350 -0.624423
O8    O     O_R   0.355440 0.513440 0.375650 -0.624423
Zn1   Zn    Zn3+2 0.306940 0.517990 0.510420 1.037637
Zn2   Zn    Zn3+2 0.693060 0.482010 0.489580 1.037637

loop_
_geom_bond_atom_site_label_1
_geom_bond_atom_site_label_2
_ccdc_geom_bond_type
C12   O2    A    
C6    H4    S    
C20   F3    S    
C22   O5    A    
C4    C22   S    
C9    C10   A    
C14   C18   A    
C2    C4    A    
N1    N2    D    
C16   N3    T    
C2    H2    S    
C3    C5    A    
C23   O8    A    
C20   C21   D    
C15   C19   A    
C9    C11   A    
C11   C19   A    
C3    C24   A    
C13   C18   A    
N1    Zn2   S    
C16   C18   S    
C17   C19   S    
C21   F4    S    
C8    C15   A    
H6    N2    S    
O4    Zn1   S    
C14   F1    S    
C8    C10   A    
C5    H3    S    
C4    C6    A    
C1    O1    A    
C12   O4    A    
C7    C9    A    
C11   C24   A    
C22   O7    A    
C17   N4    T    
N2    Zn1   S    
O1    Zn1   S    
O7    Zn2   S    
C1    O3    A    
C5    C7    A    
C2    C13   A    
O2    Zn2   S    
C24   H1    S    
C15   F2    S    
C6    C8    A    
H5    N1    S    
C3    C23   S    
O8    Zn1   S    
O5    Zn1   S    
C12   C21   S    
O3    Zn2   S    
C7    C14   A    
C23   O6    A    
O6    Zn2   S    
C1    C20   S    
C10   C13   A    
