data_str_m3_o10_o29_f0_pcu.sym.97
_audit_creation_date              2012-12-10T16:59:23-0500
_audit_creation_method            fapswitch 2.2
_symmetry_space_group_name_H-M    P1
_symmetry_Int_Tables_number       1
_space_group_crystal_system       triclinic
_cell_length_a                    7.731678
_cell_length_b                    8.615483
_cell_length_c                    27.095361
_cell_angle_alpha                 91.470702
_cell_angle_beta                  86.626567
_cell_angle_gamma                 93.776062
_cell_volume                      1797.41082031

loop_
_atom_site_label
_atom_site_type_symbol
_atom_type_description
_atom_site_fract_x
_atom_site_fract_y
_atom_site_fract_z
_atom_type_partial_charge
C1    C     C_R   0.545919 0.794916 0.498893 1.044014
C2    C     C_R   0.802591 0.445783 0.127781 -0.005952
C3    C     C_R   0.517598 0.504967 0.648732 -0.302388
C4    C     C_R   0.489526 0.478092 0.351683 -0.315832
C5    C     C_R   0.843155 0.450903 0.023997 0.068320
C6    C     C_R   0.668558 0.218349 0.966736 0.059923
C7    C     C_R   0.647269 0.214965 0.019027 -0.011313
C8    C     C_R   0.831866 0.472375 0.972693 -0.007806
C9    C     C_R   0.734526 0.332337 0.047314 0.077389
C10   C     C_R   0.744597 0.355307 0.944282 0.079753
C11   C     C_R   0.950358 0.549174 0.053522 -0.226746
C12   C     C_R   0.454271 0.205296 0.502630 1.043569
C13   C     C_R   0.608370 0.094035 0.935932 -0.244601
C14   C     C_R   0.932191 0.544261 0.104799 -0.126795
C15   C     C_R   0.605112 0.111641 0.885164 -0.093661
C16   C     C_R   0.503852 0.502062 0.594642 1.011118
C17   C     C_R   0.496351 0.496380 0.405579 1.037163
C18   C     C_R   0.894825 0.611624 0.949698 -0.248591
C19   C     C_R   0.534729 0.103000 0.043867 -0.233934
C20   C     C_2   0.570236 0.958362 0.499276 -0.209465
C21   C     C_2   0.430259 0.041930 0.504476 -0.252731
C22   C     C_R   0.709730 0.551785 0.825806 0.509506
C23   C     C_R   0.725171 0.377982 0.893561 -0.083662
C24   C     C_R   0.516481 0.279695 0.171038 0.514804
C25   C     C_R   0.628124 0.282092 0.814438 0.555038
C26   C     C_R   0.764518 0.455706 0.178774 0.544193
C27   C     C_R   0.442870 0.393953 0.729502 -0.183982
C28   C     C_R   0.579598 0.570603 0.269764 -0.166842
C29   C     C_R   0.404254 0.409295 0.680046 0.374489
C30   C     C_R   0.556054 0.599113 0.320624 0.342199
C31   C     C_R   0.661320 0.589005 0.669254 0.314926
C32   C     C_R   0.445084 0.330354 0.330784 0.366295
C33   C     C_R   0.707592 0.555227 0.716347 -0.112435
C34   C     C_R   0.705538 0.337489 0.099179 -0.079277
C35   C     C_R   0.490751 0.299420 0.281180 -0.115584
C36   C     C_R   0.599126 0.459091 0.747144 0.149370
C37   C     C_R   0.559073 0.418344 0.250022 0.138312
C38   C     C_3   0.013171 0.907557 0.905370 -0.753116
C39   C     C_3   0.350507 0.845002 0.095245 -0.795286
C40   C     C_R   0.769853 0.524473 0.872751 -0.106707
C41   C     C_R   0.574473 0.239403 0.122334 -0.116561
C42   C     C_R   0.863971 0.640545 0.900215 0.250709
C43   C     C_R   0.499613 0.111267 0.095468 0.274936
C44   C     C_R   0.653418 0.255892 0.864144 -0.030713
H1    H     H_    0.011856 0.376105 0.465285 0.238022
H2    H     H_    0.565216 0.981207 0.950075 0.148368
H3    H     H_    0.960692 0.702199 0.970766 0.153710
H4    H     H_    0.466657 0.012882 0.023166 0.152795
H5    H     H_    0.702471 0.009425 0.494709 0.182475
H6    H     H_    0.298022 0.990869 0.509037 0.175032
H7    H     H_    0.693355 0.920082 0.694792 0.388063
H8    H     H_    0.206243 0.958235 0.352872 0.410835
H9    H     H_    0.996655 0.762643 0.842701 0.268426
H10   H     H_    0.040314 0.010378 0.881574 0.261429
H11   H     H_    0.137914 0.873839 0.918977 0.221251
H12   H     H_    0.988101 0.626270 0.533537 0.249324
H13   H     H_    0.924075 0.941587 0.936836 0.244289
H14   H     H_    0.437916 0.970250 0.156084 0.265544
H15   H     H_    0.284769 0.761490 0.121824 0.249855
H16   H     H_    0.467960 0.791982 0.078454 0.236297
H17   H     H_    0.258201 0.865696 0.066594 0.237320
H18   H     H_    0.746245 0.917767 0.284957 0.367264
H19   H     H_    0.173280 0.130846 0.599898 0.397038
H20   H     H_    0.827480 0.608397 0.729602 0.218056
H21   H     H_    0.477942 0.180802 0.267242 0.241340
H22   H     H_    0.624081 0.665550 0.245888 0.192604
H23   H     H_    0.354441 0.325828 0.754113 0.208316
H24   H     H_    0.011939 0.625088 0.126298 0.186557
H25   H     H_    0.555211 0.014274 0.862935 0.214409
H26   H     H_    0.049210 0.630703 0.037843 0.140915
N1    N     N_R   0.646721 0.430296 0.796720 -0.324222
N2    N     N_R   0.614251 0.383583 0.199110 -0.322390
N3    N     N_2   0.950320 0.457960 0.486880 -0.163447
N4    N     N_2   0.049680 0.542040 0.513120 -0.146121
N5    N     N_2   0.933509 0.780639 0.876775 -0.250707
N6    N     N_2   0.398485 0.989207 0.121148 -0.247212
O1    O     O_R   0.389250 0.738570 0.503220 -0.629783
O2    O     O_2   0.358666 0.223362 0.188740 -0.530888
O3    O     O_2   0.875606 0.538586 0.207479 -0.543699
O4    O     O_2   0.582920 0.160706 0.784353 -0.525773
O5    O     O_2   0.953339 0.699946 0.621185 -0.244739
O6    O     O_2   0.684314 0.810595 0.599337 -0.347080
O7    O     O_3   0.811297 0.892009 0.683144 -0.452167
O8    O     O_2   0.492230 0.125727 0.397838 -0.265512
O9    O     O_2   0.204027 0.229475 0.399602 -0.337722
O10   O     O_3   0.280937 0.026847 0.330541 -0.467284
O11   O     O_2   0.491999 0.824113 0.386285 -0.263258
O12   O     O_R   0.610750 0.261430 0.496780 -0.624443
O13   O     O_2   0.796316 0.778346 0.365640 -0.286303
O14   O     O_3   0.628622 0.920048 0.301446 -0.503513
O15   O     O_2   0.134695 0.199660 0.699172 -0.242933
O16   O     O_2   0.091170 0.407637 0.642280 -0.253037
O17   O     O_3   0.282234 0.184106 0.610954 -0.564087
O18   O     O_R   0.678390 0.711630 0.494810 -0.604392
O19   O     O_R   0.321610 0.288370 0.505190 -0.607724
O20   O     O_R   0.355440 0.513440 0.575450 -0.552606
O21   O     O_R   0.644560 0.486560 0.424550 -0.588327
O22   O     O_R   0.644590 0.486500 0.567040 -0.600383
O23   O     O_R   0.355410 0.513500 0.432960 -0.590315
O24   O     O_2   0.705539 0.699212 0.810488 -0.542028
S1    S     S_3+6 0.779126 0.748886 0.640631 0.061837
S2    S     S_3+6 0.352868 0.176033 0.366797 0.073021
S3    S     S_3+6 0.620471 0.783870 0.345077 0.077178
S4    S     S_3+6 0.219964 0.299464 0.658769 0.071901
Zn1   Zn    Zn3+2 0.306940 0.517990 0.505620 1.082833
Zn2   Zn    Zn3+2 0.693060 0.482010 0.494380 1.073746

loop_
_geom_bond_atom_site_label_1
_geom_bond_atom_site_label_2
_ccdc_geom_bond_type
O20   Zn1   S    
C27   C29   A    
C25   O4    S    
C26   N2    A    
N3    N4    D    
O15   S4    D    
C18   H3    S    
C11   H26   S    
H14   N6    S    
O5    S1    D    
C42   N5    S    
C31   S1    S    
C35   C37   A    
C15   C44   A    
C5    C11   A    
C18   C42   A    
C13   H2    S    
C11   C14   A    
C35   H21   S    
C23   C40   A    
C33   C36   A    
C1    O1    A    
O17   S4    S    
H1    N3    S    
C3    C29   A    
O19   Zn1   S    
C38   H11   S    
C1    O18   A    
C30   S3    S    
C31   C33   A    
C12   O19   A    
C25   N1    A    
C36   N1    S    
O8    S2    D    
C2    C34   A    
C40   C42   A    
C22   C40   A    
O13   S3    D    
C24   C41   A    
C41   C43   A    
H9    N5    S    
C34   C41   A    
C15   H25   S    
C25   C44   A    
C21   H6    S    
C19   C43   A    
C38   N5    S    
C39   H17   S    
C16   O20   A    
H12   N4    S    
C12   O12   A    
C32   C35   A    
C22   O24   S    
C19   H4    S    
C12   C21   S    
O9    S2    D    
C8    C18   A    
C23   C44   A    
C29   S4    S    
C28   H22   S    
C5    C9    A    
C20   H5    S    
C38   H13   S    
O12   Zn2   S    
C38   H10   S    
C39   H15   S    
C2    C26   A    
C39   N6    S    
C3    C31   A    
C17   O23   A    
C4    C32   A    
O11   S3    D    
C4    C17   S    
C24   O2    S    
C7    C19   A    
C13   C15   A    
C9    C34   A    
C10   C23   A    
C32   S2    S    
O21   Zn2   S    
O10   S2    S    
H7    O7    S    
C22   N1    A    
C24   N2    A    
C43   N6    S    
C7    C9    A    
O18   Zn2   S    
C1    C20   S    
O7    S1    S    
O1    Zn1   S    
C6    C10   A    
C5    C8    A    
C6    C7    A    
C27   C36   A    
H19   O17   S    
C26   O3    S    
O22   Zn2   S    
H8    O10   S    
N4    Zn1   S    
C16   O22   A    
N3    Zn2   S    
C28   C37   A    
C33   H20   S    
C39   H16   S    
H18   O14   S    
C28   C30   A    
O6    S1    D    
C2    C14   A    
O23   Zn1   S    
O14   S3    S    
C27   H23   S    
O16   S4    D    
C20   C21   D    
C8    C10   A    
C37   N2    S    
C14   H24   S    
C17   O21   A    
C4    C30   A    
C3    C16   S    
C6    C13   A    
