data_str_m9_o17_o20_f0_sra.sym.84
_audit_creation_date              2012-12-11T15:20:43-0500
_audit_creation_method            fapswitch 2.2
_symmetry_space_group_name_H-M    P1
_symmetry_Int_Tables_number       1
_space_group_crystal_system       triclinic
_cell_length_a                    21.592254
_cell_length_b                    7.258906
_cell_length_c                    19.885384
_cell_angle_alpha                 89.988157
_cell_angle_beta                  87.72595
_cell_angle_gamma                 90.004888
_cell_volume                      3114.30374811

loop_
_atom_site_label
_atom_site_type_symbol
_atom_type_description
_atom_site_fract_x
_atom_site_fract_y
_atom_site_fract_z
_atom_type_partial_charge
O1    O     O_R   0.688010 0.379840 0.189360 -0.540917
O2    O     O_R   0.311990 0.620160 0.810640 -0.524000
O3    O     O_R   0.811990 0.879840 0.310640 -0.540740
O4    O     O_R   0.188010 0.120160 0.689360 -0.523998
O5    O     O_R   0.808630 0.708850 0.184280 -0.529327
O6    O     O_R   0.191370 0.291150 0.815720 -0.518639
O7    O     O_R   0.691370 0.208850 0.315720 -0.529550
O8    O     O_R   0.308630 0.791150 0.684280 -0.518700
C1    C     C_R   0.830366 0.541008 0.166649 0.692204
C2    C     C_R   0.169659 0.459028 0.833380 0.695503
C3    C     C_R   0.669645 0.040975 0.333362 0.691354
C4    C     C_R   0.330322 0.959064 0.666601 0.695437
O9    O     O_R   0.688260 0.709510 0.181570 -0.529655
O10   O     O_R   0.311740 0.290490 0.818430 -0.543495
O11   O     O_R   0.811740 0.209510 0.318430 -0.529345
O12   O     O_R   0.188260 0.790490 0.681570 -0.543297
O13   O     O_R   0.690760 0.880550 0.307920 -0.516939
O14   O     O_R   0.309240 0.119450 0.692080 -0.527948
O15   O     O_R   0.809240 0.380550 0.192080 -0.516700
O16   O     O_R   0.190760 0.619450 0.807920 -0.527924
C5    C     C_R   0.666638 0.541128 0.168263 0.732179
C6    C     C_R   0.332686 0.458768 0.832519 0.726587
C7    C     C_R   0.833250 0.041131 0.331880 0.732921
C8    C     C_R   0.167319 0.958809 0.667462 0.727122
O17   O     O_3   0.750960 0.546580 0.291460 -0.366866
O18   O     O_3   0.249040 0.453420 0.708540 -0.366593
O19   O     O_3   0.749040 0.046580 0.208540 -0.366874
O20   O     O_3   0.250960 0.953420 0.791460 -0.366555
V1    V     V_3+5 0.749820 0.821150 0.242310 1.427569
V2    V     V_3+5 0.250180 0.178850 0.757690 1.431827
V3    V     V_3+5 0.750180 0.321150 0.257690 1.428110
V4    V     V_3+5 0.249820 0.678850 0.742310 1.431907
C9    C     C_R   0.053698 0.963942 0.641117 0.417480
C10   C     C_R   0.946649 0.009092 0.358096 0.417757
C11   C     C_R   0.446298 0.463963 0.858929 0.417118
C12   C     C_R   0.553219 0.506523 0.142118 0.416888
C13   C     C_R   0.116864 0.968319 0.619390 -0.191458
C14   C     C_R   0.883893 0.031184 0.379845 -0.192122
C15   C     C_R   0.383117 0.468010 0.880603 -0.190874
C16   C     C_R   0.615914 0.530995 0.120388 -0.191451
C17   C     C_R   0.132658 0.991346 0.551216 -0.186345
C18   C     C_R   0.868721 0.046102 0.448464 -0.187948
C19   C     C_R   0.367254 0.489185 0.948817 -0.186963
C20   C     C_R   0.631024 0.547213 0.051812 -0.188071
C21   C     C_R   0.086953 0.007081 0.502975 0.020318
C22   C     C_R   0.914420 0.034259 0.496877 0.017889
C23   C     C_R   0.412899 0.504085 0.997145 0.018546
C24   C     C_R   0.585384 0.534588 0.003393 0.016449
C25   C     C_R   0.023634 0.003229 0.524078 -0.096297
C26   C     C_R   0.977405 0.016397 0.475566 -0.098476
C27   C     C_R   0.476239 0.502055 0.976071 -0.096198
C28   C     C_R   0.522419 0.515337 0.024661 -0.097894
C29   C     C_R   0.006651 0.992492 0.593819 -0.095746
C30   C     C_R   0.994222 0.017513 0.405740 -0.090005
C31   C     C_R   0.493287 0.492329 0.906309 -0.097566
C32   C     C_R   0.505579 0.514653 0.094514 -0.092897
C33   C     C_R   0.103508 0.035087 0.434403 0.288188
C34   C     C_R   0.898419 0.046632 0.566121 0.290604
C35   C     C_R   0.396221 0.528910 0.065831 0.290118
C36   C     C_R   0.601456 0.546812 0.934165 0.291511
C37   C     C_R   0.057934 0.030513 0.385201 0.347516
C38   C     C_R   0.943310 0.015161 0.614679 0.347965
C39   C     C_R   0.441752 0.524752 0.115011 0.349402
C40   C     C_R   0.556668 0.515092 0.885590 0.349392
H1    H     H_    0.181424 0.994504 0.536383 0.184970
H2    H     H_    0.820267 0.061501 0.463475 0.185953
H3    H     H_    0.318471 0.491484 0.963588 0.185100
H4    H     H_    0.679433 0.564022 0.036830 0.186121
C41   C     C_1   0.382650 0.969212 0.614562 -0.192713
C42   C     C_1   0.617282 0.031040 0.385361 -0.192901
C43   C     C_1   0.117326 0.469121 0.885414 -0.192331
C44   C     C_1   0.882725 0.531117 0.114643 -0.192778
C45   C     C_1   0.426285 0.980104 0.571817 0.010908
C46   C     C_1   0.573629 0.020390 0.428092 0.010374
C47   C     C_1   0.073693 0.480019 0.928160 0.010972
C48   C     C_1   0.926372 0.520445 0.071906 0.010438
C49   C     C_1   0.478097 0.994258 0.521263 0.006531
C50   C     C_1   0.521806 0.006399 0.478641 0.006760
C51   C     C_1   0.021887 0.494212 0.978720 0.006971
C52   C     C_1   0.978185 0.506400 0.021348 0.007058
O21   O     O_3   0.037103 0.943063 0.708849 -0.560276
C53   C     C_3   0.046759 0.760834 0.732718 0.065747
H5    H     H_    0.016708 0.744529 0.778972 0.146143
H6    H     H_    0.094413 0.745648 0.749949 0.139443
C54   C     C_3   0.031355 0.603917 0.683429 -0.421003
H7    H     H_    0.986191 0.629718 0.660428 0.196884
H8    H     H_    0.067627 0.596338 0.642269 0.200918
C55   C     C_3   0.028442 0.418154 0.719011 -0.686840
H9    H     H_    0.074397 0.382092 0.738367 0.215651
H10   H     H_    0.015137 0.311671 0.682531 0.267979
H11   H     H_    0.993181 0.420170 0.761228 0.228113
O22   O     O_3   0.962551 0.987624 0.290281 -0.562196
C56   C     C_3   0.952753 0.804235 0.267533 0.063912
H12   H     H_    0.979847 0.788819 0.219220 0.142540
H13   H     H_    0.904215 0.784734 0.254211 0.143620
C57   C     C_3   0.972282 0.648964 0.315628 -0.419851
H14   H     H_    0.019333 0.675124 0.333837 0.195050
H15   H     H_    0.939412 0.642554 0.360030 0.199608
C58   C     C_3   0.972296 0.462033 0.280806 -0.699240
H16   H     H_    0.924831 0.425953 0.265793 0.220699
H17   H     H_    0.988347 0.356167 0.316221 0.270109
H18   H     H_    0.004281 0.462733 0.235658 0.227357
O23   O     O_3   0.462968 0.443144 0.791214 -0.560656
C59   C     C_3   0.452808 0.261350 0.767143 0.064777
H19   H     H_    0.483149 0.244344 0.721147 0.146006
H20   H     H_    0.405295 0.247994 0.749333 0.139701
C60   C     C_3   0.467108 0.103533 0.816561 -0.421531
H21   H     H_    0.511639 0.128970 0.840938 0.196211
H22   H     H_    0.429930 0.095288 0.856735 0.201415
C61   C     C_3   0.470998 0.918304 0.780704 -0.687249
H23   H     H_    0.425532 0.881863 0.760247 0.215775
H24   H     H_    0.483793 0.811481 0.817303 0.266976
H25   H     H_    0.507029 0.921378 0.739270 0.227859
O24   O     O_3   0.537418 0.483343 0.209883 -0.562466
C62   C     C_3   0.548200 0.300122 0.232312 0.062581
H26   H     H_    0.521095 0.282645 0.280520 0.141471
H27   H     H_    0.596694 0.282933 0.245985 0.144756
C63   C     C_3   0.529889 0.144536 0.183730 -0.420605
H28   H     H_    0.483336 0.170251 0.164129 0.193968
H29   H     H_    0.563755 0.138398 0.140195 0.200118
C64   C     C_3   0.529058 0.957680 0.218656 -0.700109
H30   H     H_    0.576219 0.920883 0.234441 0.221756
H31   H     H_    0.513220 0.852076 0.183034 0.267400
H32   H     H_    0.496481 0.958906 0.263316 0.227221
Cl1   Cl    Cl    0.180714 0.096231 0.410085 -0.699682
Cl2   Cl    Cl    0.823002 0.118229 0.593248 -0.705774
Cl3   Cl    Cl    0.318622 0.583649 0.090691 -0.696373
Cl4   Cl    Cl    0.677021 0.616749 0.906875 -0.703589
O25   O     O_3   0.074123 0.075886 0.318896 -0.534636
C65   C     C_3   0.110460 0.936061 0.286927 0.176429
H33   H     H_    0.080158 0.845227 0.258011 0.119912
H34   H     H_    0.135724 0.846708 0.322290 0.131611
C66   C     C_3   0.156683 0.026042 0.236817 -0.294298
H35   H     H_    0.131052 0.094482 0.196343 0.198657
H36   H     H_    0.183472 0.133030 0.262877 0.241981
C67   C     C_3   0.201511 0.885006 0.205439 -0.754916
H37   H     H_    0.228938 0.820029 0.245108 0.238168
H38   H     H_    0.233899 0.954592 0.168850 0.259209
H39   H     H_    0.175730 0.776803 0.178663 0.242696
O26   O     O_3   0.927278 0.040763 0.682341 -0.532635
C68   C     C_3   0.888986 0.895789 0.707548 0.179550
H40   H     H_    0.918027 0.788159 0.729913 0.116919
H41   H     H_    0.861016 0.827885 0.668641 0.134984
C69   C     C_3   0.845647 0.972211 0.763382 -0.300293
H42   H     H_    0.873450 0.019637 0.805960 0.198946
H43   H     H_    0.820138 0.092505 0.743999 0.239173
C70   C     C_3   0.799079 0.827690 0.788738 -0.752809
H44   H     H_    0.769800 0.783029 0.747088 0.237242
H45   H     H_    0.768638 0.887752 0.829363 0.270735
H46   H     H_    0.823508 0.706335 0.809053 0.241328
O27   O     O_3   0.424919 0.566204 0.181495 -0.532608
C71   C     C_3   0.390897 0.420107 0.212689 0.178981
H47   H     H_    0.422668 0.333895 0.241452 0.126673
H48   H     H_    0.367351 0.327800 0.176846 0.124348
C72   C     C_3   0.342662 0.500187 0.262867 -0.303363
H49   H     H_    0.365975 0.590791 0.299176 0.206447
H50   H     H_    0.308945 0.584565 0.235603 0.241041
C73   C     C_3   0.307889 0.348099 0.301560 -0.754050
H51   H     H_    0.285774 0.252910 0.266026 0.238937
H52   H     H_    0.271319 0.409924 0.335296 0.267036
H53   H     H_    0.340248 0.268830 0.332601 0.237039
O28   O     O_3   0.573118 0.539077 0.817965 -0.531497
C74   C     C_3   0.610129 0.390602 0.793335 0.179407
H54   H     H_    0.580117 0.284409 0.771701 0.120823
H55   H     H_    0.637819 0.322323 0.832418 0.131747
C75   C     C_3   0.653977 0.461469 0.736991 -0.304070
H56   H     H_    0.626542 0.522275 0.696372 0.203770
H57   H     H_    0.684037 0.570751 0.757090 0.238026
C76   C     C_3   0.694624 0.307251 0.707612 -0.753472
H58   H     H_    0.722188 0.244558 0.747609 0.237295
H59   H     H_    0.726858 0.364301 0.668016 0.275009
H60   H     H_    0.665586 0.199299 0.684876 0.237286

loop_
_geom_bond_atom_site_label_1
_geom_bond_atom_site_label_2
_ccdc_geom_bond_type
C34   C38   A    
C73   H52   S    
C4    C41   S    
O1    C5    A    
C56   H12   S    
O19   V1    S    
O13   V1    S    
C76   H58   S    
O3    C7    A    
C70   H44   S    
C1    C44   S    
C44   C48   T    
C12   O24   S    
C63   H29   S    
C59   H20   S    
O21   C53   S    
C3    C42   S    
C49   C50   T    
O7    C3    A    
C21   C33   A    
O5    C1    A    
C26   C30   A    
O9    V1    S    
C74   H55   S    
C14   C18   A    
C11   O23   S    
C68   H41   S    
C33   Cl1   S    
C11   C15   A    
O4    C8    A    
C72   H50   S    
C35   Cl3   S    
C62   H26   S    
C57   C58   S    
O1    V3    S    
O2    V4    S    
C18   C22   A    
C33   C37   A    
O3    V1    S    
C61   H23   S    
C64   H32   S    
C73   H53   S    
C63   H28   S    
C1    O15   A    
C74   H54   S    
C2    O16   A    
C62   H27   S    
C57   H15   S    
C42   C46   T    
C66   C67   S    
C60   H21   S    
C55   H11   S    
C41   C45   T    
O14   V2    S    
C16   C20   A    
C37   O25   S    
C2    C43   S    
O11   C7    A    
O27   C71   S    
O15   V3    S    
O12   C8    A    
C22   C34   A    
C72   C73   S    
C75   H57   S    
C60   H22   S    
O10   V2    S    
C69   C70   S    
C59   H19   S    
O16   V4    S    
C24   C36   A    
O5    V1    S    
C54   H8    S    
C9    C29   A    
O7    V3    S    
C11   C31   A    
C27   C28   A    
O8    V4    S    
C12   C16   A    
C70   H46   S    
O26   C68   S    
C40   O28   S    
C68   C69   S    
O18   V4    S    
C69   H42   S    
C23   C27   A    
C54   H7    S    
C53   H5    S    
C9    C13   A    
C63   C64   S    
C67   H39   S    
C65   H34   S    
C57   H14   S    
O2    C6    A    
C12   C32   A    
C66   H35   S    
C29   C38   A    
C58   H16   S    
C71   C72   S    
C21   C25   A    
O8    C4    A    
C62   C63   S    
C31   C40   A    
C74   C75   S    
C8    C13   S    
C32   C39   A    
O9    C5    A    
C19   H3    S    
C71   H47   S    
O11   V3    S    
C61   H25   S    
C39   O27   S    
C64   H30   S    
C69   H43   S    
O6    V2    S    
C55   H10   S    
C34   Cl2   S    
C56   C57   S    
C53   H6    S    
C75   H56   S    
C60   C61   S    
C20   H4    S    
C65   C66   S    
C53   C54   S    
C72   H49   S    
C67   H38   S    
C18   H2    S    
O28   C74   S    
C76   H59   S    
C54   C55   S    
C3    O13   A    
C45   C49   S    
C70   H45   S    
C10   C14   A    
O17   V3    S    
C48   C52   S    
C36   Cl4   S    
C71   H48   S    
C67   H37   S    
O6    C2    A    
C17   H1    S    
C9    O21   S    
O24   C62   S    
C30   C37   A    
O12   V4    S    
C7    C14   S    
C22   C26   A    
C35   C39   A    
C36   C40   A    
O10   C6    A    
O20   V2    S    
C65   H33   S    
O25   C65   S    
C68   H40   S    
C43   C47   T    
C10   C30   A    
C73   H51   S    
C5    C16   S    
C19   C23   A    
C25   C29   A    
C6    C15   S    
O22   C56   S    
C76   H60   S    
C27   C31   A    
C13   C17   A    
C61   H24   S    
C64   H31   S    
C23   C35   A    
C51   C52   T    
C28   C32   A    
C24   C28   A    
C58   H18   S    
C55   H9    S    
C15   C19   A    
C75   C76   S    
C56   H13   S    
C25   C26   A    
C46   C50   S    
C4    O14   A    
O23   C59   S    
C66   H36   S    
C17   C21   A    
C38   O26   S    
C47   C51   S    
C58   H17   S    
C59   C60   S    
O4    V2    S    
C20   C24   A    
C10   O22   S    
