data_str_m2_o10_o18_f0_pcu.sym.130
_audit_creation_date              2012-12-10T16:45:21-0500
_audit_creation_method            fapswitch 2.2
_symmetry_space_group_name_H-M    P1
_symmetry_Int_Tables_number       1
_space_group_crystal_system       triclinic
_cell_length_a                    7.406681
_cell_length_b                    8.748621
_cell_length_c                    15.834333
_cell_angle_alpha                 94.218018
_cell_angle_beta                  74.510201
_cell_angle_gamma                 102.970783
_cell_volume                      963.439333759

loop_
_atom_site_label
_atom_site_type_symbol
_atom_type_description
_atom_site_fract_x
_atom_site_fract_y
_atom_site_fract_z
_atom_type_partial_charge
C1    C     C_R   0.542058 0.799547 0.505338 0.810800
C2    C     C_R   0.457942 0.200453 0.494662 0.810801
C3    C     C_R   0.289561 0.380403 0.077393 -0.167670
C4    C     C_R   0.710439 0.619598 0.922607 -0.167670
C5    C     C_R   0.156190 0.339755 0.027942 0.377750
C6    C     C_R   0.843810 0.660245 0.972058 0.377750
C7    C     C_2   0.554578 0.966010 0.517431 0.168210
C8    C     C_2   0.445422 0.033990 0.482569 0.168210
C9    C     C_R   0.382269 0.489613 0.666868 0.799952
C10   C     C_R   0.617731 0.510387 0.333132 0.799951
C11   C     C_R   0.308059 0.475224 0.763301 -0.154133
C12   C     C_R   0.691941 0.524776 0.236699 -0.154133
C13   C     C_R   0.064992 0.369432 0.892932 -0.158981
C14   C     C_R   0.935008 0.630568 0.107068 -0.158981
C15   C     C_R   0.113688 0.414148 0.805630 0.430512
C16   C     C_R   0.886312 0.585852 0.194370 0.430512
C17   C     C_R   0.442221 0.510883 0.813529 -0.224245
C18   C     C_R   0.557778 0.489117 0.186471 -0.224245
C19   C     C_R   0.392022 0.478953 0.903619 0.078249
C20   C     C_R   0.607978 0.521047 0.096381 0.078249
C21   C     C_R   0.203142 0.394790 0.941658 -0.036299
C22   C     C_R   0.796858 0.605210 0.058341 -0.036299
C23   C     C_R   0.526532 0.523980 0.955704 -0.009183
C24   C     C_R   0.473468 0.476020 0.044296 -0.009182
Cu1   Cu    Cu3+1 0.322120 0.483240 0.490330 1.010671
Cu2   Cu    Cu3+1 0.677880 0.516760 0.509670 1.010671
H1    H     H_    0.411350 0.442486 0.220471 0.166909
H2    H     H_    0.588650 0.557514 0.779529 0.166910
H3    H     H_    0.915716 0.319327 0.922638 0.164600
H4    H     H_    0.084284 0.680673 0.077362 0.164600
H5    H     H_    0.244777 0.329392 0.141448 0.161528
H6    H     H_    0.755223 0.670609 0.858552 0.161528
H7    H     H_    0.003912 0.614343 0.568681 0.222203
H8    H     H_    0.996088 0.385657 0.431319 0.222202
N1    N     N_2   0.945180 0.542040 0.524240 -0.185288
N2    N     N_2   0.054820 0.457960 0.475760 -0.185288
O1    O     O_R   0.384450 0.714270 0.493720 -0.534132
O2    O     O_R   0.615550 0.285730 0.506280 -0.534132
O3    O     O_R   0.684880 0.742590 0.510050 -0.591584
O4    O     O_R   0.315120 0.257410 0.489950 -0.591584
O5    O     O_R   0.265540 0.477900 0.617090 -0.583866
O6    O     O_R   0.734460 0.522100 0.382910 -0.583865
O7    O     O_R   0.565970 0.506210 0.633420 -0.575733
O8    O     O_R   0.434030 0.493790 0.366580 -0.575733
O9    O     O_3   0.982317 0.244064 0.066822 -0.737884
H9    H     H_    0.937268 0.173505 0.021444 0.325027
O10   O     O_3   0.017683 0.755937 0.933178 -0.737884
H10   H     H_    0.062731 0.826495 0.978556 0.325027
O11   O     O_3   0.031255 0.609366 0.236200 -0.710321
H11   H     H_    0.011952 0.514135 0.270446 0.328324
O12   O     O_3   0.968745 0.390634 0.763800 -0.710321
H12   H     H_    0.988047 0.485864 0.729554 0.328324
O13   O     O_3   0.669651 0.051991 0.568241 -0.715736
H13   H     H_    0.725793 0.980545 0.594394 0.340319
O14   O     O_3   0.330349 0.948009 0.431759 -0.715737
H14   H     H_    0.274208 0.019455 0.405606 0.340319

loop_
_geom_bond_atom_site_label_1
_geom_bond_atom_site_label_2
_ccdc_geom_bond_type
C19   C23   A    
C23   C24   A    
C17   C19   A    
C15   O12   S    
C10   O6    A    
C2    O2    A    
C9    O5    A    
N1    N2    D    
C1    O1    A    
O14   H14   S    
Cu1   O1    S    
C14   C22   A    
C13   C21   A    
C7    C8    D    
C5    O9    S    
Cu1   O5    S    
O9    H9    S    
C3    H5    S    
C9    C11   S    
Cu2   O6    S    
C3    C24   A    
C4    H6    S    
C10   C12   S    
C14   H4    S    
C8    O14   S    
C13   H3    S    
C19   C21   A    
C20   C22   A    
Cu2   O7    S    
H8    N2    S    
C13   C15   A    
Cu1   O4    S    
C14   C16   A    
Cu2   O3    S    
C9    O7    A    
C6    O10   S    
C1    O3    A    
Cu1   N2    S    
C10   O8    A    
O12   H12   S    
C6    C22   A    
O10   H10   S    
C2    O4    A    
Cu2   N1    S    
C5    C21   A    
C16   O11   S    
Cu1   O8    S    
C18   C20   A    
C4    C6    A    
O11   H11   S    
C12   C18   A    
C4    C23   A    
C7    O13   S    
Cu2   O2    S    
C1    C7    S    
H7    N1    S    
Cu1   Cu2   S    
O13   H13   S    
C17   H2    S    
C11   C15   A    
C20   C24   A    
C2    C8    S    
C18   H1    S    
C12   C16   A    
C3    C5    A    
C11   C17   A    
