data_str_m2_o10_o28_f0_pcu.sym.23
_audit_creation_date              2013-03-05T15:41:54-0500
_audit_creation_method            fapswitch 2.2
_symmetry_space_group_name_H-M    P1
_symmetry_Int_Tables_number       1
_space_group_crystal_system       triclinic
_cell_length_a                    23.528757
_cell_length_b                    8.742572
_cell_length_c                    7.438268
_cell_angle_alpha                 102.013887
_cell_angle_beta                  94.846038
_cell_angle_gamma                 93.135633
_cell_volume                      1487.09593219

loop_
_atom_site_label
_atom_site_type_symbol
_atom_site_description
_atom_site_fract_x
_atom_site_fract_y
_atom_site_fract_z
_atom_type_partial_charge
O1    O     O_R   0.504120 0.286130 0.619770 -0.587425
O2    O     O_R   0.495880 0.713870 0.380230 -0.604256
O3    O     O_R   0.493410 0.256770 0.308360 -0.585619
O4    O     O_R   0.506590 0.743230 0.691640 -0.572823
C1    C     C_R   0.496136 0.200696 0.455581 0.893665
C2    C     C_R   0.503556 0.799365 0.544545 0.880719
O5    O     O_R   0.423230 0.514630 0.655730 -0.559179
O6    O     O_R   0.576770 0.485370 0.344270 -0.594265
O7    O     O_R   0.412530 0.485280 0.344320 -0.567892
O8    O     O_R   0.587470 0.514720 0.655680 -0.541726
C3    C     C_R   0.391038 0.495451 0.500681 0.849889
C4    C     C_R   0.609157 0.504877 0.499459 0.830522
Cu1   Cu    Cu3+1 0.506340 0.517380 0.684380 1.023266
Cu2   Cu    Cu3+1 0.493660 0.482620 0.315620 0.993795
C5    C     C_R   0.885053 0.642873 0.527520 0.606820
C6    C     C_R   0.114889 0.351111 0.426566 0.607685
N1    N     N_R   0.851811 0.505106 0.477131 -0.470873
N2    N     N_R   0.148102 0.488064 0.485599 -0.474343
C7    C     C_R   0.875083 0.365369 0.425100 0.591418
C8    C     C_R   0.125104 0.627678 0.540152 0.592267
C9    C     C_R   0.934178 0.360696 0.407524 -0.140363
C10   C     C_R   0.065737 0.633228 0.551827 -0.144066
C11   C     C_R   0.969961 0.499559 0.477009 -0.086788
C12   C     C_R   0.029970 0.494515 0.480026 -0.088425
C13   C     C_R   0.945514 0.642986 0.544453 -0.036361
C14   C     C_R   0.054347 0.351142 0.410785 -0.034623
C15   C     C_R   0.957869 0.221120 0.324092 0.340456
C16   C     C_R   0.041759 0.773136 0.633514 0.342889
C17   C     C_R   0.017750 0.215365 0.324636 0.022750
C18   C     C_R   0.981850 0.779073 0.630349 0.023994
O9    O     O_2   0.859086 0.778284 0.557871 -0.469089
O10   O     O_2   0.141014 0.216665 0.384261 -0.478565
O11   O     O_2   0.841009 0.231530 0.395816 -0.435562
O12   O     O_2   0.160057 0.760356 0.581069 -0.434347
C19   C     C_R   0.237681 0.548656 0.360876 -0.060818
C20   C     C_R   0.753821 0.450038 0.323531 -0.014467
H1    H     H_    0.213915 0.597005 0.257346 0.170221
H2    H     H_    0.770681 0.404283 0.193576 0.182506
C21   C     C_R   0.296892 0.550616 0.366721 -0.192812
C22   C     C_R   0.694904 0.451332 0.330587 -0.193172
H3    H     H_    0.318147 0.602301 0.267592 0.192585
H4    H     H_    0.667229 0.403861 0.205146 0.196814
C23   C     C_R   0.328496 0.488579 0.500057 -0.158629
C24   C     C_R   0.671961 0.511462 0.497298 -0.178432
C25   C     C_R   0.299578 0.421193 0.627660 0.306546
C26   C     C_R   0.709737 0.572751 0.658800 0.315920
C27   C     C_R   0.239953 0.423597 0.622798 -0.131717
C28   C     C_R   0.768724 0.566267 0.650297 -0.145308
H5    H     H_    0.217156 0.373240 0.719778 0.196319
H6    H     H_    0.797772 0.611593 0.773220 0.190440
C29   C     C_R   0.209090 0.486151 0.489365 0.257788
C30   C     C_R   0.790954 0.506857 0.483462 0.248125
C31   C     C_2   0.485749 0.035341 0.438337 -0.024460
C32   C     C_2   0.513489 0.964942 0.562493 -0.038549
N3    N     N_2   0.484110 0.456420 0.038520 -0.215851
N4    N     N_2   0.515890 0.543580 0.961480 -0.216316
H7    H     H_    0.455466 0.377498 0.948711 0.272823
H8    H     H_    0.544689 0.622181 0.051309 0.248824
N5    N     N_R   0.920890 0.089096 0.224187 0.140109
O13   O     O_R   0.887772 0.102145 0.079765 -0.325227
O14   O     O_R   0.918958 0.957649 0.280138 -0.332009
N6    N     N_R   0.078343 0.905896 0.733362 0.140351
O15   O     O_R   0.110139 0.895166 0.881459 -0.323655
O16   O     O_R   0.080793 0.036164 0.674907 -0.342544
C33   C     C_3   0.041579 0.069007 0.218801 -0.595106
H9    H     H_    0.008981 0.981851 0.134128 0.222265
H10   H     H_    0.070152 0.102729 0.120195 0.269981
H11   H     H_    0.064908 0.007698 0.315199 0.287675
C34   C     C_3   0.957632 0.925611 0.734756 -0.597429
H12   H     H_    0.990003 0.012117 0.821717 0.222379
H13   H     H_    0.935270 0.987622 0.637200 0.290050
H14   H     H_    0.928012 0.892422 0.830914 0.264707
N7    N     N_R   0.329262 0.342540 0.754624 0.126211
O17   O     O_R   0.365851 0.241647 0.696423 -0.375397
O18   O     O_R   0.312501 0.349825 0.918302 -0.354341
N8    N     N_R   0.689659 0.648270 0.829634 0.141750
O19   O     O_R   0.656792 0.763419 0.832442 -0.359052
O20   O     O_R   0.713635 0.625951 0.985274 -0.360844
C35   C     C_3   0.439013 0.953046 0.290410 -0.755576
H15   H     H_    0.413892 0.038421 0.232039 0.246119
H16   H     H_    0.458047 0.878617 0.174355 0.251191
H17   H     H_    0.408206 0.881166 0.349725 0.230560
C36   C     C_3   0.559504 0.048069 0.712545 -0.766647
H18   H     H_    0.583986 0.963643 0.774034 0.269019
H19   H     H_    0.590916 0.119140 0.654465 0.228869
H20   H     H_    0.539860 0.123079 0.826718 0.254663

loop_
_geom_bond_atom_site_label_1
_geom_bond_atom_site_label_2
_geom_bond_distance
_ccdc_geom_bond_type
N3    N4    1.288407 D    
C15   C17   1.412273 A    
N7    O17   1.301415 A    
C26   N8    1.435287 S    
C27   H5    1.083344 S    
C31   C32   1.355147 D    
O5    C3    1.299973 A    
O1    C1    1.284846 A    
C1    C31   1.429996 S    
C31   C35   1.522157 S    
N8    O20   1.300888 A    
C5    C13   1.417434 A    
C25   N7    1.436645 S    
O4    Cu1   1.963651 S    
C34   H13   1.108047 S    
N6    O16   1.301003 A    
C33   H10   1.108375 S    
C11   C12   1.413465 A    
C3    C23   1.469061 S    
C22   C24   1.406491 A    
C20   C30   1.398644 A    
Cu1   N4    2.017635 S    
C8    O12   1.349382 S    
C28   H6    1.083573 S    
Cu2   N3    2.017635 S    
C9    C15   1.415086 A    
N5    O13   1.301352 A    
C10   C16   1.416895 A    
Cu1   Cu2   2.685118 S    
N7    O18   1.301317 A    
O2    C2    1.285588 A    
C2    C32   1.430095 S    
N1    C30   1.437442 S    
C32   C36   1.522548 S    
C24   C26   1.421169 A    
N2    C29   1.433959 S    
C25   C27   1.401751 A    
C9    C11   1.415368 A    
C6    C14   1.419409 A    
C26   C28   1.398354 A    
N5    O14   1.300950 A    
C20   C22   1.392232 A    
N8    O19   1.300394 A    
O4    C2    1.287339 A    
C7    O11   1.349476 S    
C35   H16   1.110185 S    
C21   C23   1.405061 A    
C34   H14   1.109053 S    
C19   C21   1.389209 A    
O7    Cu2   1.939489 S    
N6    O15   1.301321 A    
O7    C3    1.295200 A    
C36   H18   1.108297 S    
O5    Cu1   1.947352 S    
O6    C4    1.302874 A    
C33   H11   1.108339 S    
C23   C25   1.417357 A    
O3    Cu2   1.963651 S    
O8    C4    1.296688 A    
C17   C33   1.518232 S    
C36   H19   1.111044 S    
C8    C10   1.409680 A    
N3    H7    1.028456 S    
C19   C29   1.396574 A    
C10   C12   1.416650 A    
O1    Cu1   1.975037 S    
C18   C34   1.519706 S    
C13   C18   1.426402 A    
C5    N1    1.364688 A    
O6    Cu2   1.947352 S    
C19   H1    1.083052 S    
C12   C14   1.423085 A    
C22   H4    1.083249 S    
O3    C1    1.287896 A    
O8    Cu1   1.939489 S    
C35   H17   1.111125 S    
C27   C29   1.399672 A    
C5    O9    1.347920 S    
C6    O10   1.347654 S    
C16   C18   1.411775 A    
C4    C24   1.477262 S    
C15   N5    1.437125 S    
C20   H2    1.083031 S    
N1    C7    1.361696 A    
N4    H8    1.029186 S    
N2    C8    1.360313 A    
C11   C13   1.421491 A    
C34   H12   1.104783 S    
O2    Cu2   1.975037 S    
C35   H15   1.111215 S    
C28   C30   1.398002 A    
C36   H20   1.110190 S    
C21   H3    1.083631 S    
C14   C17   1.428082 A    
C6    N2    1.363042 A    
C33   H9    1.104633 S    
C7    C9    1.409529 A    
C16   N6    1.436487 S    
