data_str_m2_o24_o28_f0_pcu.sym.34
_audit_creation_date              2012-10-26T20:25:34-0400
_audit_creation_method            fapswitch 2.2
_symmetry_space_group_name_H-M    P1
_symmetry_Int_Tables_number       1
_space_group_crystal_system       triclinic
_cell_length_a                    23.48944
_cell_length_b                    10.688191
_cell_length_c                    9.496122
_cell_angle_alpha                 89.69832
_cell_angle_beta                  91.595289
_cell_angle_gamma                 86.03097
_cell_volume                      2377.39113145

loop_
_atom_site_label
_atom_site_type_symbol
_atom_type_description
_atom_site_fract_x
_atom_site_fract_y
_atom_site_fract_z
_atom_type_partial_charge
C1    C     C_R   0.500038 0.259830 0.500521 0.553237
C2    C     C_R   0.695620 0.616001 0.491780 0.046316
C3    C     C_R   0.237758 0.437527 0.578441 0.167387
C4    C     C_R   0.755886 0.617533 0.489080 0.147387
C5    C     C_R   0.207668 0.521920 0.484207 0.196602
C6    C     C_R   0.789673 0.505444 0.455419 0.170240
C7    C     C_3   0.485118 0.043833 0.631083 -0.119217
C8    C     C_3   0.512302 0.957581 0.372242 -0.109085
C9    C     C_3   0.536041 0.952669 0.595933 0.106355
C10   C     C_3   0.461219 0.048200 0.408551 0.095560
C11   C     C_3   0.497901 0.877560 0.500728 0.056113
C12   C     C_R   0.498951 0.740453 0.499939 0.553330
C13   C     C_3   0.499723 0.123260 0.502396 0.051419
C14   C     C_3   0.445942 0.967667 0.534776 -0.161933
C15   C     C_3   0.551776 0.033090 0.469628 -0.146232
C16   C     C_R   0.391079 0.501042 0.498154 0.540191
C17   C     C_R   0.608687 0.497208 0.501280 0.612322
C18   C     C_3   0.535030 0.576355 0.052099 0.374759
C19   C     C_3   0.465303 0.423318 0.948508 0.373414
C20   C     C_3   0.485202 0.611903 0.946561 -0.039736
C21   C     C_3   0.515270 0.388253 0.053725 -0.038613
C22   C     C_3   0.549597 0.466568 0.956163 0.160694
C23   C     C_R   0.237622 0.599126 0.398650 -0.074674
C24   C     C_3   0.450705 0.533334 0.043501 0.138517
C25   C     C_R   0.875226 0.615747 0.393996 0.467283
C26   C     C_R   0.123553 0.413502 0.425285 0.434105
C27   C     C_R   0.883298 0.397288 0.385742 0.391165
C28   C     C_R   0.112714 0.629392 0.485575 0.421730
C29   C     C_R   0.943935 0.395211 0.397126 -0.006968
C30   C     C_R   0.052900 0.630778 0.461560 0.022004
C31   C     C_R   0.968738 0.510292 0.422213 -0.115765
C32   C     C_R   0.028535 0.515059 0.437024 -0.119981
C33   C     C_R   0.933690 0.622126 0.422468 0.011938
C34   C     C_R   0.763916 0.391875 0.480941 -0.100371
C35   C     C_R   0.064126 0.404597 0.423168 0.002713
C36   C     C_R   0.980535 0.283518 0.387647 0.096064
C37   C     C_R   0.016962 0.742995 0.463338 0.104943
C38   C     C_R   0.039771 0.288230 0.406827 0.311494
C39   C     C_R   0.957280 0.737514 0.449609 0.274482
C40   C     C_3   0.586397 0.750913 0.025524 -0.027894
C41   C     C_3   0.635430 0.820685 0.087373 -0.366706
C42   C     C_3   0.416667 0.246307 0.983389 -0.014218
C43   C     C_3   0.366855 0.173470 0.932136 -0.358927
C44   C     C_3   0.089223 0.143792 0.549848 0.021503
C45   C     C_R   0.296939 0.596143 0.407864 0.213795
C46   C     C_3   0.142639 0.054176 0.552452 -0.320287
C47   C     C_3   0.908770 0.852217 0.613282 0.002947
C48   C     C_3   0.868307 0.966933 0.638533 -0.356048
C49   C     C_3   0.338020 0.783786 0.403568 -0.011864
C50   C     C_3   0.290909 0.889058 0.388135 -0.388538
C51   C     C_3   0.702549 0.229017 0.666034 -0.014945
C52   C     C_3   0.669060 0.118639 0.706018 -0.383510
C53   C     C_R   0.705724 0.389365 0.508603 0.190728
C54   C     C_R   0.328045 0.505313 0.493668 -0.002863
C55   C     C_R   0.670934 0.500725 0.501429 0.044201
C56   C     C_R   0.297953 0.422346 0.576526 0.057325
Cu1   Cu    Cu3+1 0.500010 0.499990 0.643150 0.990762
Cu2   Cu    Cu3+1 0.499990 0.500010 0.356850 0.998475
H1    H     H_    0.471322 0.704177 0.898165 0.110560
H2    H     H_    0.930581 0.143379 0.439189 0.259895
H3    H     H_    0.058927 0.878098 0.373280 0.256692
H4    H     H_    0.010087 0.935559 0.484013 0.275942
H5    H     H_    0.548276 0.818365 0.013562 0.122833
H6    H     H_    0.598971 0.715222 0.920104 0.159351
H7    H     H_    0.673858 0.755126 0.103915 0.182442
H8    H     H_    0.645746 0.896629 0.014027 0.103092
H9    H     H_    0.623345 0.863030 0.189722 0.143497
H10   H     H_    0.406548 0.283027 0.090066 0.154561
H11   H     H_    0.455282 0.179889 0.990967 0.122172
H12   H     H_    0.529502 0.296358 0.102545 0.112409
H13   H     H_    0.375762 0.132284 0.827304 0.149710
H14   H     H_    0.360436 0.096092 0.007254 0.103522
H15   H     H_    0.327194 0.236324 0.925465 0.189418
H16   H     H_    0.601044 0.356266 0.832995 0.243411
H17   H     H_    0.623678 0.501685 0.860725 0.248926
H18   H     H_    0.400149 0.647884 0.160432 0.280671
H19   H     H_    0.377048 0.501016 0.141441 0.269771
H20   H     H_    0.053829 0.097146 0.598865 0.138059
H21   H     H_    0.098859 0.225778 0.616436 0.132691
H22   H     H_    0.137579 0.976072 0.478142 0.214618
H23   H     H_    0.214596 0.663053 0.324817 0.157062
H24   H     H_    0.180182 0.103785 0.520377 0.165375
H25   H     H_    0.150968 0.015555 0.660431 0.120919
H26   H     H_    0.948131 0.860693 0.679798 0.130496
H27   H     H_    0.887604 0.767693 0.648020 0.155902
H28   H     H_    0.832022 0.971024 0.560877 0.185160
H29   H     H_    0.851323 0.962367 0.746271 0.104940
H30   H     H_    0.891287 0.053611 0.629664 0.134505
H31   H     H_    0.377453 0.817740 0.359632 0.145524
H32   H     H_    0.347606 0.762695 0.517396 0.119454
H33   H     H_    0.251656 0.862085 0.439536 0.166700
H34   H     H_    0.788211 0.303136 0.486778 0.181158
H35   H     H_    0.305015 0.975338 0.439162 0.093321
H36   H     H_    0.281157 0.909463 0.274893 0.172228
H37   H     H_    0.697474 0.301034 0.750100 0.143215
H38   H     H_    0.748282 0.194877 0.661682 0.127116
H39   H     H_    0.676493 0.042686 0.628059 0.144947
H40   H     H_    0.683313 0.082789 0.812100 0.106324
H41   H     H_    0.622828 0.148270 0.707375 0.159402
H42   H     H_    0.369838 0.307606 0.631928 0.268055
H43   H     H_    0.310325 0.236712 0.616970 0.197127
H44   H     H_    0.631376 0.728515 0.404126 0.260426
H45   H     H_    0.475426 0.080209 0.737627 0.124187
H46   H     H_    0.681485 0.809283 0.478753 0.211726
H47   H     H_    0.221503 0.384582 0.777240 0.251322
H48   H     H_    0.214518 0.271506 0.655266 0.230699
H49   H     H_    0.767118 0.739899 0.648504 0.217114
H50   H     H_    0.772079 0.802849 0.485550 0.262426
H51   H     H_    0.615126 0.883027 0.662828 0.248245
H52   H     H_    0.577782 0.960300 0.786219 0.204344
H53   H     H_    0.399286 0.030501 0.258240 0.217688
H54   H     H_    0.389110 0.157462 0.360110 0.224105
H55   H     H_    0.521779 0.921815 0.265320 0.127584
H56   H     H_    0.402767 0.943033 0.563687 0.085567
H57   H     H_    0.595031 0.060956 0.444752 0.133005
H58   H     H_    0.939889 0.162443 0.262004 0.287386
N1    N     N_R   0.850000 0.505572 0.413977 -0.374425
N2    N     N_3   0.658980 0.729746 0.492262 -0.645823
N3    N     N_3   0.206495 0.366938 0.675091 -0.596731
N4    N     N_3   0.782526 0.723195 0.547570 -0.600741
N5    N     N_3   0.574697 0.895850 0.704534 -0.628094
N6    N     N_3   0.419935 0.103750 0.305186 -0.646626
N7    N     N_R   0.146532 0.521783 0.466299 -0.381922
N8    N     N_3   0.500040 0.499970 0.858290 -0.257440
N9    N     N_3   0.499960 0.500030 0.141710 -0.261468
N10   N     N_3   0.959529 0.162711 0.362067 -0.570266
N11   N     N_3   0.041246 0.862537 0.471141 -0.572256
N12   N     N_3   0.606116 0.425648 0.908389 -0.613251
N13   N     N_3   0.394317 0.575308 0.089691 -0.574422
N14   N     N_3   0.326645 0.319217 0.654272 -0.603123
O1    O     O_R   0.500030 0.316850 0.620870 -0.497927
O2    O     O_2   0.158392 0.315688 0.384039 -0.465501
O3    O     O_2   0.858740 0.296247 0.335153 -0.529637
O4    O     O_2   0.136982 0.733359 0.529911 -0.506434
O5    O     O_3   0.574967 0.652076 0.117041 -0.525121
O6    O     O_3   0.425485 0.344572 0.887946 -0.516311
O7    O     O_3   0.073780 0.176925 0.408460 -0.497859
O8    O     O_3   0.921792 0.844844 0.468772 -0.519866
O9    O     O_3   0.324082 0.678089 0.324343 -0.569498
O10   O     O_3   0.681904 0.276840 0.533742 -0.562244
O11   O     O_R   0.499970 0.683150 0.379130 -0.496738
O12   O     O_R   0.500000 0.316860 0.379090 -0.496363
O13   O     O_R   0.500000 0.683140 0.620910 -0.489851
O14   O     O_R   0.417890 0.499960 0.620920 -0.459988
O15   O     O_R   0.582110 0.500040 0.379080 -0.447381
O16   O     O_R   0.417870 0.499970 0.379140 -0.506476
O17   O     O_R   0.582130 0.500030 0.620860 -0.515898
O18   O     O_2   0.845604 0.714991 0.332955 -0.432442

loop_
_geom_bond_atom_site_label_1
_geom_bond_atom_site_label_2
_ccdc_geom_bond_type
C43   H15   S    
C46   H22   S    
C44   O7    S    
C23   C45   A    
H48   N3    S    
C27   C29   A    
C53   O10   S    
H50   N4    S    
C2    C4    A    
C49   H32   S    
C2    N2    S    
Cu2   O15   S    
C41   H9    S    
C29   C36   A    
C33   C39   A    
C40   H5    S    
H47   N3    S    
C28   O4    S    
C47   H27   S    
C42   O6    S    
C19   C21   S    
C2    C55   A    
C18   N9    S    
H4    N11   S    
C11   C14   S    
H42   N14   S    
C52   H39   S    
C45   O9    S    
C12   O11   A    
C17   O17   A    
C16   O16   A    
H17   N12   S    
C3    C56   A    
C52   H40   S    
C1    O12   A    
C46   H24   S    
C24   N13   S    
C7    C14   S    
H16   N12   S    
C31   C32   A    
C9    N5    S    
C48   H30   S    
C17   C55   S    
C6    N1    S    
H44   N2    S    
C51   H38   S    
H43   N14   S    
C27   N1    A    
C39   O8    S    
H58   N10   S    
C21   C22   S    
H53   N6    S    
C42   H10   S    
C44   C46   S    
H46   N2    S    
C53   C55   A    
C40   O5    S    
C54   C56   A    
C19   N8    S    
C28   N7    A    
Cu1   O13   S    
C51   C52   S    
C27   O3    S    
C32   C35   A    
C20   C24   S    
C35   C38   A    
C4    C6    A    
C10   C14   S    
C50   H36   S    
C48   H28   S    
C41   H7    S    
C10   N6    S    
C19   O6    S    
C14   H56   S    
C42   H11   S    
C6    C34   A    
C30   C37   A    
C17   O15   A    
C44   H20   S    
H54   N6    S    
H18   N13   S    
Cu2   O12   S    
C22   N12   S    
C47   C48   S    
C5    C23   A    
C13   C15   S    
C31   C33   A    
C48   H29   S    
C18   O5    S    
H3    N11   S    
H19   N13   S    
C47   H26   S    
C20   H1    S    
C9    C11   S    
C3    N3    S    
C8    H55   S    
Cu2   N9    S    
C8    C10   S    
C40   C41   S    
C45   C54   A    
C8    C15   S    
Cu1   O17   S    
C24   N9    S    
C15   H57   S    
C1    C13   S    
C42   C43   S    
C21   N9    S    
C36   C38   A    
H49   N4    S    
C26   O2    S    
C7    C9    S    
C43   H14   S    
C43   H13   S    
C23   H23   S    
Cu1   O14   S    
C16   O14   A    
C18   C22   S    
Cu1   O1    S    
C44   H21   S    
C36   N10   S    
C49   H31   S    
C3    C5    A    
C10   C13   S    
C25   N1    A    
C11   C12   S    
Cu2   O16   S    
C50   H35   S    
C22   N8    S    
C41   H8    S    
H52   N5    S    
C5    N7    S    
C52   H41   S    
C40   H6    S    
C12   O13   A    
C21   H12   S    
C49   O9    S    
C19   C24   S    
C9    C15   S    
C28   C30   A    
C29   C31   A    
C51   O10   S    
Cu1   N8    S    
C30   C32   A    
Cu2   O11   S    
H51   N5    S    
Cu1   Cu2   S    
C8    C11   S    
C1    O1    A    
C47   O8    S    
H2    N10   S    
C38   O7    S    
C25   O18   S    
C18   C20   S    
C16   C54   S    
C20   N8    S    
C46   H25   S    
C26   C35   A    
C7    C13   S    
C34   C53   A    
C37   C39   A    
C49   C50   S    
C26   N7    A    
C51   H37   S    
C4    N4    S    
C7    H45   S    
C50   H33   S    
C56   N14   S    
C25   C33   A    
C37   N11   S    
C34   H34   S    
