data_str_m12_o9_o11_f0_bcu.sym.55
_audit_creation_date              2012-12-11T17:39:36-0500
_audit_creation_method            fapswitch 2.2
_symmetry_space_group_name_H-M    P1
_symmetry_Int_Tables_number       1
_space_group_crystal_system       triclinic
_cell_length_a                    15.094553
_cell_length_b                    15.030676
_cell_length_c                    14.846056
_cell_angle_alpha                 108.562665
_cell_angle_beta                  110.189589
_cell_angle_gamma                 110.030202
_cell_volume                      2580.57267262

loop_
_atom_site_label
_atom_site_type_symbol
_atom_type_description
_atom_site_fract_x
_atom_site_fract_y
_atom_site_fract_z
_atom_type_partial_charge
C1    C     C_R   0.912247 0.909980 0.714658 -0.149671
C2    C     C_R   0.908289 0.685021 0.438430 -0.134970
C3    C     C_R   0.701419 0.787993 0.195444 -0.119039
C4    C     C_R   0.091750 0.296678 0.492937 -0.174160
C5    C     C_R   0.301610 0.002480 0.594641 -0.172715
C6    C     C_R   0.643346 0.690108 0.188758 0.156708
C7    C     C_R   0.361149 0.057507 0.558826 0.068117
C8    C     C_R   0.000526 0.676947 0.451706 0.043129
C9    C     C_R   0.001534 0.947067 0.176540 0.060426
C10   C     C_R   0.501521 0.687820 0.367497 -0.109129
C11   C     C_R   0.509520 0.789741 0.402009 -0.090889
C12   C     C_R   0.001994 0.300111 0.433101 0.052397
C13   C     C_R   0.535912 0.852078 0.510604 0.093279
C14   C     C_R   0.551019 0.810001 0.582988 -0.184754
C15   C     C_R   0.545170 0.709116 0.548821 -0.078343
C16   C     C_R   0.245222 0.220639 0.813111 -0.134211
C17   C     C_R   0.520468 0.648030 0.441174 -0.142009
C18   C     C_R   0.469434 0.974190 0.562358 -0.223355
C19   C     C_R   0.463949 0.067566 0.574504 0.065671
C20   C     C_R   0.547156 0.157375 0.584901 0.033965
C21   C     C_R   0.635520 0.149829 0.582054 -0.224809
C22   C     C_R   0.636203 0.052671 0.562174 0.067235
C23   C     C_R   0.269843 0.322589 0.823592 0.135219
C24   C     C_R   0.550988 0.962951 0.549813 0.016102
C25   C     C_R   0.527885 0.279343 0.504121 0.095592
C26   C     C_R   0.492513 0.353089 0.496803 -0.314309
C27   C     C_R   0.465670 0.401249 0.573060 0.035571
C28   C     C_R   0.745923 0.059812 0.468695 -0.136232
C29   C     C_R   0.480839 0.380148 0.660975 -0.085473
C30   C     C_R   0.519048 0.309374 0.670930 -0.208586
C31   C     C_R   0.537973 0.254178 0.590081 0.049942
C32   C     C_R   0.809642 0.114583 0.075547 -0.112300
C33   C     C_R   0.883700 0.211578 0.176199 -0.139175
C34   C     C_R   0.719968 0.041191 0.544250 0.042637
C35   C     C_R   0.848626 0.280586 0.221425 0.115376
C36   C     C_R   0.738141 0.250913 0.162727 -0.164580
C37   C     C_R   0.664694 0.154448 0.061209 -0.117073
C38   C     C_R   0.700268 0.086165 0.017924 -0.081011
C39   C     C_R   0.928595 0.480877 0.338504 -0.231084
C40   C     C_R   0.248118 0.312651 0.721075 -0.155277
C41   C     C_R   0.009259 0.580486 0.435504 0.069225
C42   C     C_R   0.095643 0.586059 0.519955 0.002615
C43   C     C_R   0.095610 0.492454 0.508565 -0.199177
C44   C     C_R   0.009579 0.392025 0.418020 0.043477
C45   C     C_R   0.703124 0.695146 0.285997 -0.147563
C46   C     C_R   0.928546 0.384795 0.327676 0.027381
C47   C     C_R   0.290365 0.734782 0.656400 -0.087289
C48   C     C_R   0.367157 0.835939 0.751983 -0.059263
C49   C     C_R   0.333940 0.886814 0.819153 -0.108278
C50   C     C_R   0.224704 0.834707 0.792628 -0.084780
C51   C     C_R   0.148748 0.732543 0.699667 -0.102832
C52   C     C_R   0.757027 0.975566 0.568979 -0.104095
C53   C     C_R   0.179994 0.684597 0.628187 0.082792
C54   C     C_2   0.353196 0.522392 0.940787 0.013669
C55   C     C_2   0.319442 0.421406 0.928320 -0.336917
C56   C     C_R   0.299904 0.088489 0.497323 -0.059821
C57   C     C_2   0.456845 0.615752 0.041397 -0.110361
C58   C     C_2   0.534259 0.600827 0.101770 -0.280328
C59   C     C_R   0.414094 0.151205 0.101350 -0.215807
C60   C     C_R   0.317107 0.056301 0.061306 0.003329
C61   C     C_R   0.218825 0.059011 0.038463 0.030321
C62   C     C_R   0.222442 0.158802 0.060228 -0.171340
C63   C     C_R   0.320032 0.253057 0.101127 -0.214855
C64   C     C_R   0.909759 0.209805 0.405336 -0.118822
C65   C     C_R   0.415733 0.249170 0.120958 0.153210
C66   C     C_R   0.106505 0.934285 0.081395 -0.089734
C67   C     C_R   0.089847 0.780729 0.516520 -0.097050
C68   C     C_R   0.004996 0.893348 0.075789 0.068044
C69   C     C_R   0.909334 0.828301 0.971267 -0.006189
C70   C     C_R   0.915417 0.837800 0.882741 -0.248126
C71   C     C_R   0.013351 0.916397 0.900335 0.072801
C72   C     C_R   0.113409 0.963432 0.001821 -0.061581
C73   C     C_R   0.819396 0.667869 0.988704 -0.096804
C74   C     C_R   0.729256 0.585708 0.976253 -0.099012
C75   C     C_R   0.626916 0.575758 0.927676 -0.169221
C76   C     C_R   0.093436 0.000359 0.801966 -0.140305
C77   C     C_R   0.614036 0.647838 0.891324 -0.047154
C78   C     C_R   0.909937 0.933633 0.187008 -0.143715
C79   C     C_R   0.703998 0.731523 0.902951 -0.032247
C80   C     C_R   0.808534 0.741472 0.952466 0.002283
C81   C     C_R   0.006682 0.945688 0.812244 0.064253
C82   C     C_1   0.543623 0.223556 0.417134 0.025955
C83   C     C_2   0.417033 0.469059 0.556791 0.423042
C84   C     C_2   0.291106 0.542595 0.855186 0.523525
C85   C     C_1   0.516707 0.346052 0.163813 -0.037830
C86   C     C_1   0.323284 0.960008 0.051108 0.021860
C87   C     C_2   0.203403 0.951768 0.173836 0.492001
C88   C     C_2   0.688342 0.810527 0.869375 0.414667
C89   C     C_R   0.092413 0.030278 0.279171 -0.081468
H1    H     H_    0.829058 0.851501 0.685916 0.095450
H2    H     H_    0.481773 0.640193 0.284041 0.123324
H3    H     H_    0.496988 0.820919 0.345041 0.120503
H4    H     H_    0.175386 0.346859 0.515448 0.135383
H5    H     H_    0.571348 0.857307 0.666806 0.151377
H6    H     H_    0.561008 0.678993 0.606270 0.147968
H7    H     H_    0.402859 0.903787 0.549734 0.134030
H8    H     H_    0.700911 0.217249 0.589823 0.133587
H9    H     H_    0.481111 0.369206 0.428629 0.127354
H10   H     H_    0.457912 0.414168 0.718861 0.141376
H11   H     H_    0.525215 0.290692 0.736807 0.129873
H12   H     H_    0.324869 0.140120 0.464090 0.094894
H13   H     H_    0.643232 0.011631 0.939460 0.136199
H14   H     H_    0.254115 0.200293 0.877845 0.119781
H15   H     H_    0.837522 0.062098 0.041905 0.105808
H16   H     H_    0.968650 0.233166 0.218320 0.114140
H17   H     H_    0.708657 0.301986 0.195558 0.123858
H18   H     H_    0.580214 0.132757 0.015746 0.101248
H19   H     H_    0.866315 0.478683 0.272113 0.132762
H20   H     H_    0.158010 0.498168 0.578171 0.164347
H21   H     H_    0.315657 0.697946 0.602166 0.140452
H22   H     H_    0.451468 0.876240 0.772124 0.132608
H23   H     H_    0.173481 0.804055 0.539424 0.111145
H24   H     H_    0.392572 0.966625 0.891236 0.102782
H25   H     H_    0.197062 0.873373 0.842102 0.113158
H26   H     H_    0.725796 0.105067 0.429346 0.112838
H27   H     H_    0.064045 0.694276 0.679140 0.114620
H28   H     H_    0.348610 0.411925 0.000464 0.153512
H29   H     H_    0.474453 0.697932 0.059919 0.164950
H30   H     H_    0.521115 0.520509 0.085225 0.158502
H31   H     H_    0.489278 0.149411 0.120012 0.128289
H32   H     H_    0.149317 0.163684 0.046254 0.133904
H33   H     H_    0.320864 0.329010 0.117715 0.122490
H34   H     H_    0.825242 0.879704 0.123550 0.114306
H35   H     H_    0.261146 0.375390 0.698503 0.118484
H36   H     H_    0.841903 0.787817 0.802118 0.121646
H37   H     H_    0.898393 0.674173 0.026889 0.138442
H38   H     H_    0.738833 0.529716 0.004518 0.118301
H39   H     H_    0.557145 0.511787 0.918131 0.130953
H40   H     H_    0.533538 0.638732 0.855292 0.209655
H41   H     H_    0.750774 0.946478 0.625380 0.110720
H42   H     H_    0.825342 0.182220 0.350030 0.107989
H43   H     H_    0.177215 0.021977 0.848882 0.108914
H44   H     H_    0.673998 0.639805 0.314561 0.109197
H45   H     H_    0.176914 0.071334 0.302482 0.080186
H46   H     H_    0.397901 0.477427 0.483564 0.017582
H47   H     H_    0.206787 0.481209 0.790986 0.008273
H48   H     H_    0.283972 0.022024 0.213215 0.021505
H49   H     H_    0.757212 0.880161 0.884380 0.013126
H50   H     H_    0.824589 0.618933 0.394166 0.110939
H51   H     H_    0.671626 0.816328 0.139592 0.104358
H52   H     H_    0.330304 0.978231 0.654979 0.102467
H53   H     H_    0.516134 0.569961 0.414849 0.101284
N1    N     N_R   0.941940 0.944580 0.650780 -0.039039
N2    N     N_R   0.204460 0.150250 0.707090 -0.045316
N3    N     N_R   0.794270 0.003240 0.446420 -0.044297
N4    N     N_R   0.204920 0.207570 0.650770 -0.043773
N5    N     N_R   0.793810 0.945920 0.502740 -0.042109
N6    N     N_R   0.943620 0.152590 0.446420 -0.040383
N7    N     N_R   0.055110 0.000900 0.707100 -0.041210
N8    N     N_R   0.795080 0.792430 0.349230 -0.040589
N9    N     N_1   0.556334 0.178784 0.347564 -0.094640
N10   N     N_1   0.598318 0.423535 0.198353 -0.119982
N11   N     N_1   0.328817 0.883321 0.043859 -0.042860
N12   N     N_R   0.206190 0.054080 0.497260 -0.041166
N13   N     N_R   0.056380 0.847410 0.553580 -0.045167
N14   N     N_R   0.944890 0.999100 0.292900 -0.042524
N15   N     N_R   0.058060 0.055420 0.349220 -0.048975
N16   N     N_R   0.943200 0.791100 0.497260 -0.041046
N17   N     N_R   0.795540 0.849750 0.292910 -0.045466
N18   N     N_R   0.205730 0.996760 0.553580 -0.036420
N19   N     N_R   0.056800 0.208900 0.502740 -0.038780
Ni1   Ni    Ni4+2 0.869690 0.869690 0.500000 0.219908
Ni2   Ni    Ni4+2 0.130310 0.130310 0.500000 0.217890
Ni3   Ni    Ni4+2 0.129250 0.998840 0.629170 0.213402
Ni4   Ni    Ni4+2 0.870750 0.001160 0.370830 0.219174
O1    O     O_2   0.396829 0.515586 0.624075 -0.595503
O2    O     O_2   0.332795 0.628911 0.856739 -0.571510
O3    O     O_2   0.192736 0.888085 0.209248 -0.572940
O4    O     O_2   0.597464 0.799293 0.825094 -0.598211

loop_
_geom_bond_atom_site_label_1
_geom_bond_atom_site_label_2
_ccdc_geom_bond_type
C25   C31   A    
C66   C68   A    
C63   C65   A    
C59   H31   S    
C6    C45   A    
C27   C29   A    
C18   H7    S    
C41   C42   A    
C6    C58   S    
C49   H24   S    
C35   C36   A    
C3    C6    A    
C78   N14   A    
C54   C57   S    
C54   C84   S    
C39   C41   A    
N3    Ni4   S    
N14   Ni4   S    
C26   C27   A    
C37   C38   A    
C18   C24   A    
C2    H50   S    
N18   Ni3   S    
C36   C37   A    
C16   N2    A    
C86   N11   T    
C56   H12   S    
C37   H18   S    
C42   C53   S    
C15   H6    S    
C30   C31   A    
C12   C64   A    
C10   C17   A    
C1    C81   A    
C73   H37   S    
C30   H11   S    
C11   C13   A    
C67   N13   A    
C75   H39   S    
C73   C74   A    
N3    N5    A    
C11   H3    S    
C66   C72   A    
C87   O3    D    
C68   C69   A    
C32   H15   S    
C70   C71   A    
C88   O4    D    
C32   C38   A    
C4    C12   A    
C29   C30   A    
N15   Ni2   S    
N1    Ni1   S    
C83   H46   S    
C82   N9    T    
C47   C53   A    
C28   C34   A    
C59   C60   A    
C13   C14   A    
C64   N6    A    
N13   N16   A    
C3    N17   A    
N6    Ni4   S    
C61   C62   A    
C7    C56   A    
C87   H48   S    
C74   H38   S    
N8    Ni1   S    
C79   C88   S    
N19   Ni2   S    
C44   C46   A    
C77   C79   A    
C39   H19   S    
C22   C34   S    
C83   O1    D    
C74   C75   A    
C29   H10   S    
C36   H17   S    
N12   Ni2   S    
C33   H16   S    
C8    C41   S    
C56   N12   A    
N8    N17   A    
C9    C89   A    
C66   C87   S    
C5    C7    A    
C60   C86   S    
C18   C19   A    
C25   C26   A    
N17   Ni4   S    
C13   C24   S    
C17   H53   S    
C50   H25   S    
N14   N15   A    
C43   C44   A    
N12   N18   A    
C62   C63   A    
C1    N1    A    
C28   H26   S    
C21   H8    S    
C16   H14   S    
C5    H52   S    
C47   C48   A    
C64   H42   S    
C2    N16   A    
C5    N18   A    
C50   C51   A    
C28   N3    A    
N7    Ni3   S    
C77   H40   S    
C40   H35   S    
C23   C55   S    
C78   H34   S    
C75   C77   A    
C88   H49   S    
C26   H9    S    
C39   C46   A    
C61   C72   S    
N2    N4    A    
C48   C49   A    
C10   H2    S    
C52   N5    A    
C7    C19   S    
C25   C82   S    
C22   C24   A    
C79   C80   A    
C42   C43   A    
N6    N19   A    
C1    H1    S    
C63   H33   S    
C70   H36   S    
C55   H28   S    
C15   C17   A    
C54   C55   D    
C84   H47   S    
C89   H45   S    
C4    N19   A    
C45   H44   S    
C2    C8    A    
N5    Ni1   S    
C76   C81   A    
C89   N15   A    
N13   Ni3   S    
C16   C23   A    
C47   H21   S    
N4    Ni2   S    
C34   C52   A    
C51   H27   S    
C40   N4    A    
C52   H41   S    
C32   C33   A    
C19   C20   A    
C27   C83   S    
C85   N10   T    
C71   C72   A    
C38   H13   S    
C84   O2    D    
C59   C65   A    
C76   H43   S    
C45   N8    A    
C57   C58   D    
C76   N7    A    
C58   H30   S    
C33   C35   A    
C73   C80   A    
C9    C78   A    
C69   C70   A    
C65   C85   S    
C9    C68   S    
C10   C11   A    
N16   Ni1   S    
C4    H4    S    
C67   H23   S    
N1    N7    A    
C48   H22   S    
C20   C21   A    
C8    C67   A    
C12   C44   S    
C49   C50   A    
C14   C15   A    
C60   C61   A    
C69   C80   S    
C3    H51   S    
C43   H20   S    
C51   C53   A    
C21   C22   A    
C35   C46   S    
C14   H5    S    
C62   H32   S    
N2    Ni3   S    
C23   C40   A    
C57   H29   S    
C71   C81   S    
C20   C31   S    
