data_str_m3_o10_o18_f0_pcu.sym.15
_audit_creation_date              2012-12-10T16:52:38-0500
_audit_creation_method            fapswitch 2.2
_symmetry_space_group_name_H-M    P1
_symmetry_Int_Tables_number       1
_space_group_crystal_system       triclinic
_cell_length_a                    7.978903
_cell_length_b                    8.562004
_cell_length_c                    13.753828
_cell_angle_alpha                 95.779304
_cell_angle_beta                  93.319193
_cell_angle_gamma                 93.385408
_cell_volume                      931.260933293

loop_
_atom_site_label
_atom_site_type_symbol
_atom_type_description
_atom_site_fract_x
_atom_site_fract_y
_atom_site_fract_z
_atom_type_partial_charge
C1    C     C_R   0.044246 0.794048 0.499540 0.955528
C2    C     C_R   0.937230 0.489035 0.318095 0.854674
C3    C     C_R   0.099342 0.541268 0.787241 -0.064334
C4    C     C_R   0.906913 0.480894 0.212329 -0.053556
C5    C     C_R   0.076430 0.701325 0.939958 -0.185751
C6    C     C_R   0.959107 0.372001 0.049129 -0.186150
C7    C     C_R   0.011899 0.647969 0.845455 -0.205047
C8    C     C_R   0.010079 0.400649 0.148199 -0.202273
C9    C     C_R   0.245418 0.482884 0.824999 -0.269558
C10   C     C_R   0.761710 0.543484 0.176445 -0.280408
C11   C     C_R   0.322248 0.547102 0.915080 0.087370
C12   C     C_R   0.956064 0.206175 0.502687 0.955469
C13   C     C_R   0.706935 0.515796 0.077684 0.087643
C14   C     C_R   0.232777 0.654425 0.974358 0.174637
C15   C     C_R   0.805245 0.423685 0.014260 0.179318
C16   C     C_R   0.486289 0.509787 0.946548 0.066829
C17   C     C_R   0.551171 0.567399 0.042380 0.065595
C18   C     C_3   0.488939 0.362360 0.388002 -0.140140
C19   C     C_3   0.373098 0.215594 0.359545 -0.887419
C20   C     C_3   0.514701 0.686655 0.581015 -0.140794
C21   C     C_3   0.620654 0.719886 0.677235 -0.873361
C22   C     C_R   0.458255 0.674371 0.099703 -0.237292
C23   C     C_R   0.589637 0.421090 0.884373 -0.247639
C24   C     C_R   0.302106 0.716857 0.065955 -0.226222
C25   C     C_R   0.747037 0.380894 0.917590 -0.222897
C26   C     C_2   0.067670 0.958237 0.503783 -0.388832
C27   C     C_2   0.932553 0.042500 0.503257 -0.386225
C28   C     C_R   0.063337 0.513279 0.681916 0.851846
H1    H     H_    0.235885 0.800222 0.111620 0.146934
H2    H     H_    0.804056 0.991480 0.500982 0.176927
H3    H     H_    0.687156 0.604472 0.228848 0.152031
H4    H     H_    0.300288 0.391750 0.779843 0.152971
H5    H     H_    0.371827 0.141900 0.421123 0.255349
H6    H     H_    0.244818 0.244262 0.336373 0.288839
H7    H     H_    0.422576 0.145619 0.296282 0.212620
H8    H     H_    0.489641 0.435177 0.325572 0.168825
H9    H     H_    0.611593 0.315840 0.400179 0.231238
H10   H     H_    0.623469 0.612301 0.715850 0.264483
H11   H     H_    0.749834 0.764149 0.664569 0.277493
H12   H     H_    0.821933 0.312616 0.867799 0.150727
H13   H     H_    0.564942 0.812755 0.725159 0.217529
H14   H     H_    0.533395 0.787172 0.536779 0.154735
H15   H     H_    0.385625 0.680956 0.601465 0.232517
H16   H     H_    0.124702 0.353362 0.175190 0.154610
H17   H     H_    0.898279 0.694615 0.816994 0.159927
H18   H     H_    0.007898 0.784189 0.984501 0.139052
H19   H     H_    0.036557 0.304525 0.000518 0.140773
H20   H     H_    0.505250 0.732723 0.169846 0.145493
H21   H     H_    0.554900 0.383712 0.808440 0.152829
H22   H     H_    0.195814 0.009200 0.508373 0.170729
N1    N     N_2   0.440860 0.456490 0.474790 -0.027533
N2    N     N_2   0.559140 0.543510 0.525210 -0.029370
O1    O     O_R   0.891570 0.738930 0.506190 -0.609177
O2    O     O_R   0.108430 0.261070 0.493810 -0.601512
O3    O     O_R   0.174650 0.711050 0.490030 -0.654069
O4    O     O_R   0.825350 0.288950 0.509970 -0.641659
O5    O     O_R   0.909850 0.521900 0.644940 -0.611173
O6    O     O_R   0.090150 0.478100 0.355060 -0.614325
O7    O     O_R   0.192930 0.494020 0.628780 -0.629031
O8    O     O_R   0.807070 0.505980 0.371220 -0.651484
Zn1   Zn    Zn3+2 0.810990 0.518620 0.510790 0.917990
Zn2   Zn    Zn3+2 0.189010 0.481380 0.489210 0.923704

loop_
_geom_bond_atom_site_label_1
_geom_bond_atom_site_label_2
_ccdc_geom_bond_type
O6    Zn2   S    
C20   H14   S    
C2    O6    A    
O5    Zn1   S    
C3    C9    A    
C18   N1    S    
C5    C14   A    
C5    H18   S    
C2    C4    S    
C17   C22   A    
C21   H11   S    
C13   C17   A    
C4    C8    A    
C26   H22   S    
C13   C15   A    
C1    O3    A    
C20   N2    S    
C19   H7    S    
C28   O5    A    
C27   H2    S    
C9    C11   A    
C26   C27   D    
C12   O4    A    
N1    Zn2   S    
O1    Zn1   S    
C21   H13   S    
C7    H17   S    
C3    C28   S    
C18   H9    S    
C22   H20   S    
C16   C23   A    
C3    C7    A    
N2    Zn1   S    
C23   C25   A    
C25   H12   S    
C1    C26   S    
C11   C14   A    
C22   C24   A    
C15   C25   A    
C11   C16   A    
C23   H21   S    
C6    H19   S    
C12   C27   S    
C4    C10   A    
N1    N2    D    
O3    Zn2   S    
C20   H15   S    
C20   C21   S    
C18   C19   S    
C19   H5    S    
C28   O7    A    
C14   C24   A    
C5    C7    A    
C1    O1    A    
C24   H1    S    
C16   C17   A    
O7    Zn2   S    
C6    C8    A    
O2    Zn2   S    
C9    H4    S    
C6    C15   A    
O4    Zn1   S    
C18   H8    S    
C10   H3    S    
C10   C13   A    
C12   O2    A    
C21   H10   S    
C8    H16   S    
O8    Zn1   S    
C2    O8    A    
C19   H6    S    
