data_str_m2_o1_o10_f0_pcu.sym.59
_audit_creation_date              2012-10-26T20:20:47-0400
_audit_creation_method            fapswitch 2.2
_symmetry_space_group_name_H-M    P1
_symmetry_Int_Tables_number       1
_space_group_crystal_system       triclinic
_cell_length_a                    8.719301
_cell_length_b                    10.821227
_cell_length_c                    9.508791
_cell_angle_alpha                 90.13544
_cell_angle_beta                  97.964361
_cell_angle_gamma                 90.489778
_cell_volume                      888.496005267

loop_
_atom_site_label
_atom_site_type_symbol
_atom_type_description
_atom_site_fract_x
_atom_site_fract_y
_atom_site_fract_z
_atom_type_partial_charge
C1    C     C_R   0.504086 0.262265 0.500547 0.546659
C2    C     C_R   0.569801 0.062128 0.623685 -0.031821
C3    C     C_R   0.492361 0.871650 0.498714 -0.003150
C4    C     C_R   0.507642 0.128350 0.501286 -0.003149
C5    C     C_R   0.396365 0.428904 0.061057 0.011213
C6    C     C_R   0.603636 0.571095 0.938943 0.011215
C7    C     C_R   0.396405 0.428934 0.912181 0.018084
C8    C     C_R   0.603596 0.571066 0.087819 0.018085
C9    C     C_R   0.350225 0.876802 0.246347 0.053576
C10   C     C_R   0.413810 0.883484 0.118699 -0.103416
C11   C     C_R   0.341979 0.821778 0.997434 -0.114134
C12   C     C_R   0.495915 0.737735 0.499453 0.546658
C13   C     C_R   0.206264 0.753277 0.002797 -0.093461
C14   C     C_R   0.141606 0.746970 0.129210 -0.095809
C15   C     C_R   0.212943 0.808714 0.250648 -0.055435
C16   C     C_R   0.649781 0.123198 0.753651 0.053573
C17   C     C_R   0.787064 0.191285 0.749349 -0.055438
C18   C     C_R   0.858402 0.253034 0.870784 -0.095808
C19   C     C_R   0.793743 0.246734 0.997195 -0.093460
C20   C     C_R   0.658026 0.178233 0.002561 -0.114132
C21   C     C_R   0.586196 0.116522 0.881299 -0.103415
C22   C     C_R   0.203675 0.500052 0.463658 0.545344
C23   C     C_R   0.796325 0.499948 0.536342 0.545344
C24   C     C_2   0.037819 0.500379 0.443601 -0.163318
C25   C     C_2   0.962181 0.499621 0.556399 -0.163318
C26   C     C_R   0.440333 0.065886 0.378736 -0.158599
C27   C     C_R   0.559671 0.934114 0.621264 -0.158599
C28   C     C_R   0.430203 0.937872 0.376314 -0.031821
Cu1   Cu    Cu3+1 0.500000 0.500020 0.640660 0.933962
Cu2   Cu    Cu3+1 0.500000 0.499980 0.359340 0.933960
H1    H     H_    0.977773 0.501313 0.335450 0.115849
H2    H     H_    0.392300 0.826103 0.899659 0.113175
H3    H     H_    0.151463 0.704844 0.909125 0.107033
H4    H     H_    0.036646 0.693724 0.133322 0.087207
H5    H     H_    0.162544 0.802322 0.348324 0.092927
H6    H     H_    0.837465 0.197672 0.651674 0.092927
H7    H     H_    0.963362 0.306280 0.866670 0.087206
H8    H     H_    0.848543 0.295173 0.090864 0.107030
H9    H     H_    0.607704 0.173914 0.100335 0.113177
H10   H     H_    0.479532 0.065696 0.885850 0.096161
H11   H     H_    0.022226 0.498687 0.664550 0.115849
H12   H     H_    0.390484 0.117104 0.285780 0.121599
H13   H     H_    0.609522 0.882895 0.714220 0.121598
H14   H     H_    0.313702 0.371664 0.106521 0.100734
H15   H     H_    0.686300 0.628335 0.893480 0.100734
H16   H     H_    0.313794 0.371665 0.845376 0.104081
H17   H     H_    0.686207 0.628335 0.154624 0.104081
H18   H     H_    0.520473 0.934312 0.114149 0.096162
N1    N     N_R   0.500040 0.500030 0.852080 -0.219402
N2    N     N_R   0.499960 0.499970 0.147920 -0.219403
O1    O     O_R   0.499990 0.319660 0.618740 -0.486470
O2    O     O_R   0.500010 0.680340 0.381260 -0.486470
O3    O     O_R   0.499990 0.319630 0.381170 -0.515239
O4    O     O_R   0.500010 0.680370 0.618830 -0.515238
O5    O     O_R   0.274840 0.500010 0.591370 -0.506114
O6    O     O_R   0.725160 0.499990 0.408630 -0.506114
O7    O     O_R   0.274830 0.499980 0.353800 -0.501237
O8    O     O_R   0.725170 0.500020 0.646200 -0.501236

loop_
_geom_bond_atom_site_label_1
_geom_bond_atom_site_label_2
_ccdc_geom_bond_type
C8    H17   S    
C14   H4    S    
C23   O8    A    
C2    C4    A    
C24   C25   D    
Cu2   O7    S    
C13   H3    S    
C16   C21   A    
C17   H6    S    
C27   H13   S    
C2    C16   S    
C9    C10   A    
C26   C28   A    
C19   C20   A    
C1    C4    S    
C22   O7    A    
C3    C27   A    
C17   C18   A    
C9    C15   A    
C22   O5    A    
C23   O6    A    
C6    N1    A    
Cu1   N1    S    
C13   C14   A    
Cu1   O8    S    
C1    O1    A    
C7    N1    A    
Cu1   Cu2   S    
C21   H10   S    
C6    C8    A    
C15   H5    S    
C3    C28   A    
C19   H8    S    
C5    H14   S    
C11   H2    S    
C23   C25   S    
C2    C27   A    
C10   H18   S    
Cu2   N2    S    
Cu2   O3    S    
C22   C24   S    
C4    C26   A    
C24   H1    S    
C10   C11   A    
C6    H15   S    
C7    H16   S    
C8    N2    A    
C5    N2    A    
C11   C13   A    
C20   C21   A    
C26   H12   S    
C18   C19   A    
Cu1   O1    S    
Cu1   O4    S    
C25   H11   S    
C5    C7    A    
C20   H9    S    
Cu2   O2    S    
C14   C15   A    
C1    O3    A    
C3    C12   S    
Cu1   O5    S    
C12   O2    A    
Cu2   O6    S    
C18   H7    S    
C12   O4    A    
C9    C28   S    
C16   C17   A    
