data_str_m2_o1_o14_f0_pcu.sym.169
_audit_creation_date              2012-12-10T17:56:44-0500
_audit_creation_method            fapswitch 2.2
_symmetry_space_group_name_H-M    P1
_symmetry_Int_Tables_number       1
_space_group_crystal_system       triclinic
_cell_length_a                    10.836117
_cell_length_b                    9.784371
_cell_length_c                    10.86008
_cell_angle_alpha                 90.161415
_cell_angle_beta                  93.516479
_cell_angle_gamma                 88.494604
_cell_volume                      1148.87009084

loop_
_atom_site_label
_atom_site_type_symbol
_atom_type_description
_atom_site_fract_x
_atom_site_fract_y
_atom_site_fract_z
_atom_type_partial_charge
C1    C     C_R   0.262840 0.500744 0.504328 0.794484
C2    C     C_R   0.736384 0.497584 0.489876 0.854531
C3    C     C_R   0.931221 0.608743 0.445032 -0.204978
C4    C     C_R   0.058528 0.610016 0.452751 -0.131108
C5    C     C_R   0.401536 0.077006 0.449949 0.239587
C6    C     C_R   0.596059 0.070318 0.553399 0.233972
C7    C     C_R   0.394152 0.933381 0.472822 0.190245
C8    C     C_R   0.605054 0.927532 0.527200 0.205966
C9    C     C_R   0.492839 0.500197 0.262161 0.835118
C10   C     C_R   0.509258 0.499758 0.737536 0.823075
C11   C     C_R   0.444211 0.750628 0.101805 -0.014406
C12   C     C_R   0.598789 0.737971 0.903624 -0.042599
C13   C     C_R   0.500714 0.870271 0.064776 0.141493
C14   C     C_R   0.578707 0.864515 0.964797 0.146742
C15   C     C_R   0.538067 0.620348 0.942980 0.011125
C16   C     C_R   0.488226 0.624085 0.058749 0.011235
C17   C     C_R   0.485253 0.500802 0.126003 -0.023223
C18   C     C_R   0.522532 0.498547 0.873287 -0.026794
C19   C     C_R   0.492369 0.376865 0.062220 -0.187796
C20   C     C_R   0.501480 0.376339 0.935310 -0.208273
C21   C     C_R   0.065224 0.380792 0.537809 -0.088202
C22   C     C_R   0.941238 0.369086 0.494765 0.040906
C23   C     C_R   0.870317 0.490941 0.474789 -0.039507
C24   C     C_R   0.127610 0.499445 0.504208 -0.110639
Cu1   Cu    Cu3+1 0.500000 0.640660 0.500000 0.969372
Cu2   Cu    Cu3+1 0.500000 0.359340 0.500000 0.973364
H1    H     H_    0.487422 0.281207 0.110069 0.166818
H2    H     H_    0.492807 0.280356 0.886209 0.163082
H3    H     H_    0.881854 0.697341 0.408596 0.155598
H4    H     H_    0.100647 0.697940 0.417891 0.166511
N1    N     N_R   0.500000 0.852070 0.500000 -0.190650
N2    N     N_R   0.500000 0.147940 0.500000 -0.181864
O1    O     O_R   0.319640 0.618740 0.499990 -0.576081
O2    O     O_R   0.680360 0.618740 0.500010 -0.589327
O3    O     O_R   0.319620 0.381170 0.499990 -0.603978
O4    O     O_R   0.680380 0.381170 0.500010 -0.545317
O5    O     O_R   0.500000 0.618810 0.319650 -0.572572
O6    O     O_R   0.500000 0.618810 0.680350 -0.574803
O7    O     O_R   0.499970 0.381240 0.319640 -0.583950
O8    O     O_R   0.500030 0.381240 0.680360 -0.604963
C25   C     C_2   0.322855 0.760097 0.159715 0.379648
H5    H     H_    0.281139 0.858758 0.179840 0.065250
O9    O     O_2   0.263716 0.658370 0.178238 -0.563942
C26   C     C_2   0.698738 0.725333 0.815450 0.425630
H6    H     H_    0.727107 0.813541 0.765862 0.064185
O10   O     O_2   0.754013 0.616635 0.800956 -0.556465
C27   C     C_3   0.483682 0.999637 0.137621 -0.886076
H7    H     H_    0.452408 0.976427 0.229587 0.224307
H8    H     H_    0.573163 0.050159 0.157715 0.264077
H9    H     H_    0.415017 0.068191 0.087221 0.230880
C28   C     C_3   0.633089 0.992663 0.916408 -0.882400
H10   H     H_    0.593147 0.007226 0.821203 0.222652
H11   H     H_    0.610282 0.087220 0.966618 0.253799
H12   H     H_    0.735462 0.982551 0.918582 0.239236
C29   C     C_2   0.123813 0.276477 0.624491 0.325283
H13   H     H_    0.215118 0.291194 0.668161 0.119079
O11   O     O_2   0.068031 0.176034 0.654061 -0.571664
C30   C     C_2   0.905954 0.240122 0.430307 0.338097
H14   H     H_    0.959519 0.146328 0.448043 0.106143
O12   O     O_2   0.821104 0.238407 0.350947 -0.536338
C31   C     C_3   0.302402 0.146111 0.365588 -0.775709
H15   H     H_    0.337230 0.232998 0.315567 0.270485
H16   H     H_    0.268046 0.074707 0.292576 0.184846
H17   H     H_    0.221864 0.178560 0.417211 0.229543
C32   C     C_3   0.694219 0.131649 0.639404 -0.752438
H18   H     H_    0.653183 0.200888 0.707081 0.247629
H19   H     H_    0.747694 0.050745 0.692277 0.194741
H20   H     H_    0.762969 0.184201 0.589745 0.260218
C33   C     C_3   0.267472 0.878194 0.471081 -0.774403
H21   H     H_    0.191808 0.956498 0.463622 0.206119
H22   H     H_    0.256248 0.813130 0.388749 0.243799
H23   H     H_    0.253954 0.829319 0.561051 0.256987
C34   C     C_3   0.729323 0.879941 0.489654 -0.774872
H24   H     H_    0.716192 0.827070 0.399541 0.244566
H25   H     H_    0.789901 0.966259 0.470738 0.215231
H26   H     H_    0.778804 0.818968 0.563770 0.239682

loop_
_geom_bond_atom_site_label_1
_geom_bond_atom_site_label_2
_ccdc_geom_bond_type
Cu1   N1    S    
C15   C18   A    
C6    N2    A    
C29   H13   S    
Cu2   N2    S    
C31   H17   S    
C34   H25   S    
C34   H24   S    
C3    C23   A    
C19   C20   A    
C1    O1    A    
C27   H8    S    
C10   O8    A    
C4    C24   A    
Cu2   O7    S    
C30   O12   D    
C15   C16   A    
C9    O7    A    
C33   H22   S    
C25   H5    S    
C3    H3    S    
Cu1   O5    S    
C13   C27   S    
C6    C32   S    
C27   H7    S    
C16   C17   A    
C32   H19   S    
C19   H1    S    
Cu1   O2    S    
C5    N2    A    
C2    O2    A    
C21   C22   A    
C25   O9    D    
C33   H21   S    
C26   O10   D    
C27   H9    S    
C7    N1    A    
C28   H10   S    
C5    C7    A    
C6    C8    A    
C20   H2    S    
Cu1   Cu2   S    
Cu2   O4    S    
C28   H11   S    
C33   H23   S    
C22   C30   S    
Cu1   O6    S    
C11   C16   A    
C14   C28   S    
C12   C15   A    
C32   H20   S    
C9    O5    A    
C5    C31   S    
C9    C17   S    
C12   C14   A    
C29   O11   D    
C34   H26   S    
C3    C4    A    
C26   H6    S    
C1    O3    A    
C21   C29   S    
C2    O4    A    
C8    N1    A    
C31   H16   S    
C7    C33   S    
C10   O6    A    
C28   H12   S    
C30   H14   S    
C12   C26   S    
C11   C13   A    
Cu2   O8    S    
C10   C18   S    
C8    C34   S    
C17   C19   A    
C11   C25   S    
C18   C20   A    
C31   H15   S    
Cu2   O3    S    
C1    C24   S    
C32   H18   S    
C21   C24   A    
C2    C23   S    
C22   C23   A    
C13   C14   A    
C4    H4    S    
Cu1   O1    S    
