data_str_m3_o10_o25_f0_pcu.sym.149
_audit_creation_date              2012-12-10T16:56:30-0500
_audit_creation_method            fapswitch 2.2
_symmetry_space_group_name_H-M    P1
_symmetry_Int_Tables_number       1
_space_group_crystal_system       triclinic
_cell_length_a                    7.818273
_cell_length_b                    8.592798
_cell_length_c                    15.695299
_cell_angle_alpha                 91.692882
_cell_angle_beta                  84.983372
_cell_angle_gamma                 93.45736
_cell_volume                      1048.1602004

loop_
_atom_site_label
_atom_site_type_symbol
_atom_type_description
_atom_site_fract_x
_atom_site_fract_y
_atom_site_fract_z
_atom_type_partial_charge
C1    C     C_R   0.544803 0.794208 0.498204 0.911592
C2    C     C_3   0.405558 0.372205 0.029893 -0.327274
C3    C     C_1   0.502360 0.500160 0.750740 -0.145446
C4    C     C_1   0.497640 0.499840 0.249259 -0.145446
C5    C     C_3   0.335675 0.502776 0.978490 -0.327241
C6    C     C_3   0.664325 0.497224 0.021510 -0.327239
C7    C     C_3   0.500613 0.500911 0.917046 0.056920
C8    C     C_3   0.499387 0.499089 0.082954 0.056920
C9    C     C_1   0.502217 0.500270 0.826092 0.015083
C10   C     C_1   0.497783 0.499730 0.173908 0.015083
C11   C     C_3   0.298805 0.853621 0.012358 -0.317831
C12   C     C_R   0.455197 0.205791 0.501797 0.911596
C13   C     C_3   0.701186 0.146375 0.987642 -0.317825
C14   C     C_2   0.689981 0.007855 0.575233 0.410788
C15   C     C_2   0.310018 0.992145 0.424768 0.410793
C16   C     C_3   0.953262 0.307110 0.359530 -0.165670
C17   C     C_3   0.046738 0.692890 0.640470 -0.165673
C18   C     C_R   0.500866 0.500302 0.661881 0.904225
C19   C     C_R   0.499134 0.499697 0.338119 0.904226
C20   C     C_2   0.562077 0.956136 0.513054 -0.234168
C21   C     C_2   0.437923 0.043864 0.486947 -0.234169
C22   C     C_3   0.430894 0.627202 0.032377 0.649492
C23   C     C_3   0.569106 0.372798 0.967623 0.649492
C24   C     C_3   0.594442 0.627795 0.970106 -0.327272
H1    H     H_    0.668950 0.732159 0.943684 0.154279
H2    H     H_    0.748073 0.038884 0.954983 0.192329
H3    H     H_    0.813310 0.955431 0.571900 0.106978
H4    H     H_    0.186686 0.044562 0.428105 0.106978
H5    H     H_    0.948247 0.414007 0.321723 0.166406
H6    H     H_    0.824673 0.247210 0.372216 0.179401
H7    H     H_    0.033470 0.225737 0.319752 0.135945
H8    H     H_    0.175327 0.752789 0.627784 0.179401
H9    H     H_    0.051753 0.585992 0.678277 0.166408
H10   H     H_    0.966530 0.774262 0.680248 0.135944
H11   H     H_    0.331050 0.267841 0.056315 0.154279
H12   H     H_    0.796956 0.493597 0.041237 0.159845
H13   H     H_    0.203043 0.506403 0.958763 0.159845
H14   H     H_    0.188454 0.793138 0.982512 0.159243
H15   H     H_    0.402130 0.889967 0.962426 0.172573
H16   H     H_    0.251930 0.961117 0.045016 0.192329
H17   H     H_    0.597852 0.110020 0.037568 0.172577
H18   H     H_    0.811527 0.206858 0.017497 0.159239
N1    N     N_2   0.950320 0.457950 0.477300 0.204314
N2    N     N_2   0.049680 0.542050 0.522700 0.204314
O1    O     O_R   0.389250 0.738570 0.505570 -0.603592
O2    O     O_3   0.639505 0.240249 0.926308 -0.592021
O3    O     O_2   0.654996 0.101572 0.633264 -0.554096
O4    O     O_2   0.345006 0.898433 0.366735 -0.554098
O5    O     O_3   0.031020 0.340337 0.435609 -0.540505
O6    O     O_3   0.968980 0.659662 0.564391 -0.540506
O7    O     O_R   0.610750 0.261430 0.494430 -0.603589
O8    O     O_R   0.678390 0.711630 0.491020 -0.599381
O9    O     O_R   0.321610 0.288370 0.508980 -0.599382
O10   O     O_R   0.355460 0.513480 0.630490 -0.665755
O11   O     O_R   0.644540 0.486520 0.369510 -0.665754
O12   O     O_R   0.644600 0.486540 0.615950 -0.561155
O13   O     O_R   0.355400 0.513460 0.384050 -0.561156
O14   O     O_3   0.360497 0.759752 0.073691 -0.592020
Zn1   Zn    Zn3+2 0.306940 0.517990 0.509710 1.054713
Zn2   Zn    Zn3+2 0.693060 0.482010 0.490290 1.054715

loop_
_geom_bond_atom_site_label_1
_geom_bond_atom_site_label_2
_ccdc_geom_bond_type
C17   O6    S    
C2    H11   S    
C11   H14   S    
C8    C22   S    
N1    N2    D    
C22   O14   S    
C14   O3    D    
C3    C9    T    
C5    H13   S    
C14   H3    S    
C11   O14   S    
C12   O9    A    
C18   O12   A    
C6    C24   S    
C20   C21   D    
C13   H17   S    
O9    Zn1   S    
C23   O2    S    
O11   Zn2   S    
C24   H1    S    
C16   H7    S    
C11   H15   S    
C1    O1    A    
C15   H4    S    
C13   O2    S    
C17   H9    S    
N1    Zn2   S    
C7    C23   S    
C6    C23   S    
C15   O4    D    
C13   H18   S    
C6    H12   S    
C7    C9    S    
O10   Zn1   S    
C11   H16   S    
C1    O8    A    
C22   C24   S    
C13   H2    S    
O13   Zn1   S    
C2    C5    S    
C17   H10   S    
C18   O10   A    
N2    Zn1   S    
C4    C10   T    
C7    C24   S    
C14   C20   S    
C15   C21   S    
C12   O7    A    
C16   O5    S    
C3    C18   S    
C8    C10   S    
N2    O6    S    
C2    C23   S    
C5    C7    S    
C17   H8    S    
C19   O11   A    
N1    O5    S    
C1    C20   S    
C6    C8    S    
O7    Zn2   S    
O8    Zn2   S    
C2    C8    S    
C16   H5    S    
C4    C19   S    
C16   H6    S    
C12   C21   S    
C19   O13   A    
O1    Zn1   S    
C5    C22   S    
O12   Zn2   S    
