data_str_m3_o10_o17_f0_pcu.sym.129
_audit_creation_date              2012-12-10T16:52:03-0500
_audit_creation_method            fapswitch 2.2
_symmetry_space_group_name_H-M    P1
_symmetry_Int_Tables_number       1
_space_group_crystal_system       triclinic
_cell_length_a                    7.801848
_cell_length_b                    8.656849
_cell_length_c                    14.888222
_cell_angle_alpha                 91.590231
_cell_angle_beta                  85.991304
_cell_angle_gamma                 93.394961
_cell_volume                      1001.03989026

loop_
_atom_site_label
_atom_site_type_symbol
_atom_type_description
_atom_site_fract_x
_atom_site_fract_y
_atom_site_fract_z
_atom_type_partial_charge
C1    C     C_R   0.545670 0.793882 0.507173 0.959916
C2    C     C_R   0.541575 0.638000 0.813198 0.410517
C3    C     C_R   0.491822 0.504178 0.232577 -0.147049
C4    C     C_R   0.507964 0.497991 0.767800 -0.128127
C5    C     C_R   0.518711 0.644547 0.188564 0.052762
C6    C     C_R   0.478287 0.358415 0.812435 0.061365
C7    C     C_R   0.548222 0.640009 0.094587 0.009600
C8    C     C_R   0.447263 0.364050 0.906237 0.007906
C9    C     C_R   0.494907 0.502739 0.047352 -0.075237
C10   C     C_R   0.500972 0.501309 0.953312 -0.078813
C11   C     C_R   0.435951 0.366783 0.094465 -0.094927
C12   C     C_R   0.455902 0.206911 0.511467 0.960317
C13   C     C_R   0.561046 0.636800 0.906060 -0.092118
C14   C     C_R   0.635108 0.763956 0.046953 0.324771
C15   C     C_R   0.359383 0.240643 0.953895 0.327246
C16   C     C_3   0.497029 0.794420 0.241821 -0.644887
C17   C     C_3   0.498987 0.207695 0.760191 -0.669325
C18   C     C_3   0.759634 0.016765 0.531803 -0.719483
C19   C     C_3   0.252948 0.989818 0.568474 -0.710695
C20   C     C_R   0.640696 0.762866 0.952904 0.391405
C21   C     C_R   0.355129 0.241203 0.047843 0.388732
C22   C     C_2   0.572588 0.956643 0.525669 0.003406
C23   C     C_2   0.433857 0.046775 0.534231 -0.077930
C24   C     C_R   0.502061 0.498184 0.672462 0.918774
C25   C     C_R   0.498069 0.502860 0.327687 0.955740
C26   C     C_R   0.457838 0.364593 0.186979 0.410092
Cl1   Cl    Cl    0.462234 0.191293 0.247407 -0.524741
Cl2   Cl    Cl    0.539277 0.810721 0.752136 -0.568007
Cl3   Cl    Cl    0.765567 0.907614 0.101843 -0.418712
Cl4   Cl    Cl    0.226922 0.098309 0.899185 -0.429916
Cl5   Cl    Cl    0.774705 0.907828 0.896581 -0.385274
Cl6   Cl    Cl    0.221703 0.096277 0.104507 -0.379303
Cl7   Cl    Cl    0.040361 0.333697 0.395636 -0.415230
Cl8   Cl    Cl    0.960180 0.655773 0.609790 -0.467793
H1    H     H_    0.615498 0.828794 0.276378 0.254927
H2    H     H_    0.179402 0.084818 0.600835 0.236231
H3    H     H_    0.179749 0.940998 0.511891 0.266065
H4    H     H_    0.258204 0.903810 0.622051 0.300144
H5    H     H_    0.463133 0.886505 0.197355 0.314754
H6    H     H_    0.386998 0.782180 0.293075 0.222642
H7    H     H_    0.380409 0.173859 0.725798 0.248821
H8    H     H_    0.609294 0.218903 0.709254 0.211042
H9    H     H_    0.531616 0.115758 0.805124 0.319356
H10   H     H_    0.841492 0.926441 0.553023 0.273221
H11   H     H_    0.814695 0.057318 0.465224 0.276040
H12   H     H_    0.771275 0.109153 0.584526 0.246360
N1    N     N_2   0.950330 0.457950 0.475660 0.123036
N2    N     N_2   0.049670 0.542050 0.524340 0.119795
O1    O     O_R   0.389250 0.738570 0.505970 -0.633601
O2    O     O_R   0.610750 0.261430 0.494030 -0.620400
O3    O     O_R   0.678390 0.711620 0.490370 -0.602597
O4    O     O_R   0.321610 0.288380 0.509630 -0.585613
O5    O     O_R   0.355420 0.513510 0.639950 -0.586192
O6    O     O_R   0.644580 0.486490 0.360050 -0.569886
O7    O     O_R   0.644560 0.486560 0.624350 -0.588737
O8    O     O_R   0.355440 0.513440 0.375650 -0.579277
Zn1   Zn    Zn3+2 0.306940 0.517990 0.510420 1.097073
Zn2   Zn    Zn3+2 0.693060 0.482010 0.489580 1.101815

loop_
_geom_bond_atom_site_label_1
_geom_bond_atom_site_label_2
_ccdc_geom_bond_type
C2    C4    A    
C17   H9    S    
C1    C22   S    
C20   Cl5   S    
C19   H4    S    
C18   H10   S    
C6    C17   S    
C3    C26   A    
C1    O3    A    
C9    C10   A    
C19   C23   S    
N1    N2    D    
C11   C26   A    
C25   O8    A    
C15   C21   A    
C2    Cl2   S    
N2    Zn1   S    
O3    Zn2   S    
C25   O6    A    
N1    Zn2   S    
C9    C11   A    
C12   C23   S    
C26   Cl1   S    
C16   H6    S    
Cl7   N1    S    
C18   H12   S    
C4    C6    A    
C12   O4    A    
C8    C15   A    
C5    C7    A    
C19   H2    S    
C22   C23   D    
C16   H1    S    
C4    C24   S    
C21   Cl6   S    
C17   H7    S    
C16   H5    S    
Cl8   N2    S    
O4    Zn1   S    
C14   Cl3   S    
O2    Zn2   S    
C18   H11   S    
C14   C20   A    
C3    C25   S    
O1    Zn1   S    
O8    Zn1   S    
C15   Cl4   S    
C8    C10   A    
O6    Zn2   S    
O7    Zn2   S    
C7    C9    A    
C2    C13   A    
O5    Zn1   S    
C17   H8    S    
C5    C16   S    
C6    C8    A    
C19   H3    S    
C13   C20   A    
C3    C5    A    
C24   O5    A    
C18   C22   S    
C1    O1    A    
C11   C21   A    
C7    C14   A    
C12   O2    A    
C24   O7    A    
C10   C13   A    
