data_str_m4_o4_o11_f0_acs.sym.90
_audit_creation_date              2013-03-05T15:51:04-0500
_audit_creation_method            fapswitch 2.2
_symmetry_space_group_name_H-M    P1
_symmetry_Int_Tables_number       1
_space_group_crystal_system       triclinic
_cell_length_a                    19.204377
_cell_length_b                    10.990262
_cell_length_c                    18.797616
_cell_angle_alpha                 90.013722
_cell_angle_beta                  89.692437
_cell_angle_gamma                 90.021447
_cell_volume                      3967.38861282

loop_
_atom_site_label
_atom_site_type_symbol
_atom_site_description
_atom_site_fract_x
_atom_site_fract_y
_atom_site_fract_z
_atom_type_partial_charge
O1    O     O_R   0.784290 0.290360 0.830540 -0.452096
O2    O     O_R   0.215710 0.290360 0.169460 -0.452355
O3    O     O_R   0.284290 0.790360 0.830540 -0.452435
O4    O     O_R   0.715710 0.790360 0.169460 -0.451831
O5    O     O_R   0.762610 0.041070 0.825230 -0.446698
O6    O     O_R   0.237390 0.041070 0.174770 -0.447140
O7    O     O_R   0.262610 0.541070 0.825230 -0.447201
O8    O     O_R   0.737390 0.541070 0.174770 -0.446591
C1    C     C_R   0.724340 0.961193 0.855379 0.570263
C2    C     C_R   0.275664 0.961196 0.144622 0.570199
C3    C     C_R   0.224337 0.461203 0.855383 0.570223
C4    C     C_R   0.775664 0.461194 0.144623 0.570742
O9    O     O_R   0.667390 0.924160 0.829970 -0.521451
O10   O     O_R   0.332610 0.924160 0.170030 -0.521267
O11   O     O_R   0.167390 0.424160 0.829970 -0.521328
O12   O     O_R   0.832610 0.424160 0.170030 -0.521359
O13   O     O_R   0.553980 0.081420 0.821780 -0.510951
O14   O     O_R   0.446020 0.081420 0.178220 -0.511970
O15   O     O_R   0.053980 0.581420 0.821780 -0.511648
O16   O     O_R   0.946020 0.581420 0.178220 -0.511068
C5    C     C_R   0.529570 0.177492 0.850685 0.582318
C6    C     C_R   0.470431 0.177498 0.149315 0.581144
C7    C     C_R   0.029566 0.677491 0.850683 0.581496
C8    C     C_R   0.970429 0.677498 0.149314 0.582560
O17   O     O_R   0.543210 0.283170 0.826740 -0.441866
O18   O     O_R   0.456790 0.283170 0.173260 -0.442184
O19   O     O_R   0.043210 0.783170 0.826740 -0.441895
O20   O     O_R   0.956790 0.783170 0.173260 -0.441615
O21   O     O_R   0.678350 0.375000 0.822720 -0.511768
O22   O     O_R   0.321650 0.375000 0.177280 -0.510985
O23   O     O_R   0.178350 0.875000 0.822720 -0.510837
O24   O     O_R   0.821650 0.875000 0.177280 -0.510563
C9    C     C_R   0.737508 0.364056 0.852311 0.551681
C10   C     C_R   0.262496 0.364062 0.147688 0.552221
C11   C     C_R   0.237508 0.864054 0.852312 0.552090
C12   C     C_R   0.762498 0.864059 0.147686 0.553212
O25   O     O_R   0.785060 0.289300 0.670580 -0.525146
O26   O     O_R   0.214940 0.289300 0.329420 -0.519683
O27   O     O_R   0.285060 0.789300 0.670580 -0.519066
O28   O     O_R   0.714940 0.789300 0.329420 -0.519770
O29   O     O_R   0.763330 0.040090 0.676940 -0.503347
O30   O     O_R   0.236670 0.040090 0.323060 -0.500903
O31   O     O_R   0.263330 0.540090 0.676940 -0.499718
O32   O     O_R   0.736670 0.540090 0.323060 -0.500772
C13   C     C_R   0.728411 0.952975 0.648430 0.547871
C14   C     C_R   0.272182 0.955569 0.352493 0.552616
C15   C     C_R   0.227688 0.455099 0.647631 0.551402
C16   C     C_R   0.773628 0.459128 0.354081 0.548657
O33   O     O_R   0.668160 0.923110 0.670000 -0.523114
O34   O     O_R   0.331840 0.923110 0.330000 -0.522901
O35   O     O_R   0.168160 0.423110 0.670000 -0.522547
O36   O     O_R   0.831840 0.423110 0.330000 -0.516677
O37   O     O_R   0.554690 0.080440 0.673480 -0.512639
O38   O     O_R   0.445310 0.080440 0.326520 -0.513759
O39   O     O_R   0.054690 0.580440 0.673480 -0.514648
O40   O     O_R   0.945310 0.580440 0.326520 -0.510928
C17   C     C_R   0.532225 0.176641 0.643242 0.550726
C18   C     C_R   0.471390 0.176349 0.354061 0.556061
C19   C     C_R   0.028473 0.676518 0.646061 0.552360
C20   C     C_R   0.966373 0.676424 0.357487 0.550603
O41   O     O_R   0.543980 0.282110 0.666770 -0.506795
O42   O     O_R   0.456020 0.282110 0.333230 -0.514891
O43   O     O_R   0.043980 0.782110 0.666770 -0.514451
O44   O     O_R   0.956020 0.782110 0.333230 -0.507485
O45   O     O_R   0.679070 0.374030 0.674430 -0.510830
O46   O     O_R   0.320930 0.374030 0.325570 -0.513339
O47   O     O_R   0.179070 0.874030 0.674430 -0.514132
O48   O     O_R   0.820930 0.874030 0.325570 -0.512438
C21   C     C_R   0.739818 0.362712 0.646775 0.537826
C22   C     C_R   0.261191 0.359374 0.354657 0.537091
C23   C     C_R   0.238934 0.859772 0.645517 0.536178
C24   C     C_R   0.762733 0.854217 0.356538 0.537170
Cr1   Cr    Cr6+3 0.769260 0.163750 0.750730 1.101762
Cr2   Cr    Cr6+3 0.230740 0.163750 0.249270 1.105178
Cr3   Cr    Cr6+3 0.269260 0.663750 0.750730 1.105170
Cr4   Cr    Cr6+3 0.730740 0.663750 0.249270 1.105146
Cr5   Cr    Cr6+3 0.612640 0.009910 0.748780 1.034894
Cr6   Cr    Cr6+3 0.387360 0.009910 0.251220 1.033994
Cr7   Cr    Cr6+3 0.112640 0.509910 0.748780 1.033803
Cr8   Cr    Cr6+3 0.887360 0.509910 0.251220 1.037497
Cr9   Cr    Cr6+3 0.614190 0.322400 0.747710 1.071244
Cr10  Cr    Cr6+3 0.385810 0.322400 0.252290 1.068170
Cr11  Cr    Cr6+3 0.114190 0.822400 0.747710 1.068063
Cr12  Cr    Cr6+3 0.885810 0.822400 0.252290 1.071257
O49   O     O_3   0.665360 0.165350 0.749070 -0.281011
O50   O     O_3   0.334640 0.165350 0.250930 -0.280865
O51   O     O_3   0.165360 0.665350 0.749070 -0.281006
O52   O     O_3   0.834640 0.665350 0.250930 -0.285502
C25   C     C_2   0.497594 0.168720 0.921425 -0.095422
C26   C     C_2   0.502410 0.168740 0.078576 -0.095047
C27   C     C_2   0.997583 0.668717 0.921419 -0.095156
C28   C     C_2   0.002401 0.668740 0.078571 -0.095458
C29   C     C_2   0.496122 0.067472 0.039103 -0.190992
C30   C     C_2   0.503901 0.067474 0.960883 -0.191100
C31   C     C_2   0.996112 0.567471 0.039098 -0.191202
C32   C     C_2   0.003891 0.567472 0.960878 -0.190947
H1    H     H_    0.483943 0.981451 0.064545 0.172205
H2    H     H_    0.516098 0.981469 0.935428 0.172196
H3    H     H_    0.983938 0.481450 0.064541 0.172098
H4    H     H_    0.016092 0.481468 0.935423 0.172233
H5    H     H_    0.520572 0.252248 0.054443 0.142273
H6    H     H_    0.479411 0.252206 0.945566 0.142196
H7    H     H_    0.020560 0.752248 0.054435 0.142222
H8    H     H_    0.979398 0.752201 0.945559 0.142205
C33   C     C_R   0.764004 0.433639 0.070654 0.053158
C34   C     C_R   0.235998 0.433677 0.929351 0.053387
C35   C     C_R   0.264005 0.933653 0.070653 0.053364
C36   C     C_R   0.736001 0.933655 0.929346 0.053372
C37   C     C_R   0.697979 0.415301 0.043271 0.032288
C38   C     C_R   0.302018 0.415327 0.956723 0.032362
C39   C     C_R   0.197981 0.915293 0.043272 0.032277
C40   C     C_R   0.802021 0.915307 0.956716 0.032417
C41   C     C_R   0.688384 0.394774 0.971219 -0.046140
C42   C     C_R   0.311613 0.394807 0.028772 -0.046042
C43   C     C_R   0.188386 0.894762 0.971220 -0.046141
C44   C     C_R   0.811618 0.894795 0.028766 -0.046295
C45   C     C_R   0.811089 0.431523 0.950550 -0.051587
C46   C     C_R   0.188926 0.431518 0.049466 -0.051689
C47   C     C_R   0.311088 0.931540 0.950548 -0.051663
C48   C     C_R   0.688931 0.931512 0.049461 -0.051659
C49   C     C_R   0.820855 0.439327 0.023573 -0.073639
C50   C     C_R   0.179155 0.439346 0.976444 -0.073553
C51   C     C_R   0.320854 0.939358 0.023570 -0.073488
C52   C     C_R   0.679159 0.939326 0.976440 -0.073540
C53   C     C_3   0.634171 0.492954 0.048606 0.366334
C54   C     C_3   0.365863 0.492968 0.951402 0.366268
C55   C     C_3   0.134167 0.992932 0.048604 0.366275
C56   C     C_3   0.865865 0.992942 0.951381 0.366312
C57   C     C_3   0.619605 0.458852 0.971743 -0.191678
C58   C     C_3   0.380415 0.458895 0.028261 -0.191703
C59   C     C_3   0.119603 0.958825 0.971742 -0.191667
C60   C     C_3   0.880421 0.958882 0.028242 -0.191841
C61   C     C_R   0.744354 0.410574 0.923602 0.054888
C62   C     C_R   0.255656 0.410578 0.076403 0.054789
C63   C     C_R   0.244353 0.910572 0.923602 0.054764
C64   C     C_R   0.755661 0.910575 0.076399 0.054508
H9    H     H_    0.855889 0.436670 0.915382 0.153063
H10   H     H_    0.144132 0.436653 0.084640 0.153024
H11   H     H_    0.355886 0.936697 0.915380 0.153032
H12   H     H_    0.644138 0.936654 0.084636 0.153014
H13   H     H_    0.872506 0.454282 0.043245 0.132819
H14   H     H_    0.127506 0.454303 0.956784 0.132919
H15   H     H_    0.372504 0.954332 0.043242 0.132956
H16   H     H_    0.627510 0.954281 0.956780 0.132873
H17   H     H_    0.576411 0.392736 0.965827 0.147293
H18   H     H_    0.423583 0.392783 0.034168 0.147430
H19   H     H_    0.076412 0.892701 0.965826 0.147343
H20   H     H_    0.923589 0.892770 0.034149 0.147299
H21   H     H_    0.617909 0.537065 0.934230 0.191676
H22   H     H_    0.382140 0.537121 0.065788 0.191676
H23   H     H_    0.117901 0.037036 0.934227 0.191736
H24   H     H_    0.882151 0.037116 0.065763 0.191674
C65   C     C_R   0.508331 0.167603 0.420493 0.022608
C66   C     C_R   0.516581 0.171363 0.568480 0.023539
C67   C     C_R   0.979645 0.669764 0.432662 0.018689
C68   C     C_R   0.990435 0.669897 0.580194 0.023097
C69   C     C_R   0.528968 0.273709 0.455800 0.027848
C70   C     C_R   0.532534 0.274590 0.528398 0.041798
C71   C     C_R   0.971756 0.776948 0.471192 0.039094
C72   C     C_R   0.976109 0.778006 0.543538 0.034741
C73   C     C_R   0.507568 0.060440 0.533078 -0.174996
C74   C     C_R   0.506200 0.057970 0.458837 -0.172071
C75   C     C_R   0.983489 0.558676 0.544027 -0.164492
C76   C     C_R   0.979106 0.558624 0.469763 -0.161897
C77   C     C_3   0.501219 0.401660 0.454846 -0.266709
C78   C     C_3   0.504174 0.400338 0.535000 -0.270844
C79   C     C_3   0.007683 0.896082 0.461914 -0.275145
C80   C     C_3   0.012396 0.899534 0.541923 -0.267796
H25   H     H_    0.499541 0.977326 0.562679 0.115941
H26   H     H_    0.497013 0.972776 0.432053 0.120703
H27   H     H_    0.988179 0.473039 0.571929 0.122455
H28   H     H_    0.978170 0.472961 0.441559 0.128958
H29   H     H_    0.973529 0.967919 0.439798 0.139095
H30   H     H_    0.067010 0.895605 0.560099 0.169880
H31   H     H_    0.447159 0.409101 0.435617 0.166096
H32   H     H_    0.542021 0.466040 0.557072 0.136164
H33   H     H_    0.538440 0.466833 0.430235 0.131029
H34   H     H_    0.452021 0.401996 0.560885 0.143403
H35   H     H_    0.059094 0.886760 0.434987 0.147872
H36   H     H_    0.980483 0.973001 0.566347 0.132820
C81   C     C_R   0.761821 0.436357 0.429190 0.018136
C82   C     C_R   0.248067 0.408601 0.578227 0.019821
C83   C     C_R   0.250628 0.911090 0.422032 0.017589
C84   C     C_R   0.751391 0.898222 0.581479 0.019717
C85   C     C_R   0.818431 0.395313 0.468626 0.040868
C86   C     C_R   0.202923 0.330669 0.541592 0.023583
C87   C     C_R   0.290911 0.823687 0.457043 0.021493
C88   C     C_R   0.706930 0.818623 0.544933 0.030168
C89   C     C_R   0.815290 0.386604 0.541347 0.027141
C90   C     C_R   0.205960 0.322105 0.468811 0.036427
C91   C     C_R   0.288928 0.814962 0.529977 0.040301
C92   C     C_R   0.710475 0.809380 0.472095 0.038581
C93   C     C_R   0.701231 0.477815 0.540365 -0.149864
C94   C     C_R   0.304837 0.456258 0.465776 -0.161587
C95   C     C_R   0.199402 0.967626 0.536178 -0.169845
C96   C     C_R   0.812363 0.935570 0.469991 -0.160117
C97   C     C_R   0.704619 0.485658 0.465988 -0.152212
C98   C     C_R   0.302790 0.463548 0.540147 -0.161501
C99   C     C_R   0.200928 0.976789 0.461904 -0.164883
C100  C     C_R   0.809430 0.944480 0.544492 -0.161608
C101  C     C_3   0.858802 0.280301 0.460331 -0.275783
C102  C     C_3   0.124857 0.324260 0.541016 -0.268608
C103  C     C_3   0.368043 0.802678 0.455815 -0.267239
C104  C     C_3   0.629079 0.808404 0.543680 -0.268380
C105  C     C_3   0.855935 0.270213 0.540372 -0.270246
C106  C     C_3   0.128816 0.315850 0.460969 -0.276922
C107  C     C_3   0.365554 0.796485 0.535886 -0.269835
C108  C     C_3   0.633608 0.801024 0.463558 -0.273535
C109  C     C_R   0.754275 0.417871 0.577988 0.019556
C110  C     C_R   0.253599 0.390129 0.429270 0.022540
C111  C     C_R   0.246508 0.890644 0.570961 0.021588
C112  C     C_R   0.758635 0.876363 0.432750 0.017048
H37   H     H_    0.655086 0.509339 0.567632 0.123365
H38   H     H_    0.344712 0.505065 0.436817 0.116917
H39   H     H_    0.163194 0.023056 0.566329 0.122142
H40   H     H_    0.854602 0.978961 0.441580 0.127496
H41   H     H_    0.661946 0.525706 0.437201 0.123246
H42   H     H_    0.340324 0.519544 0.567251 0.124942
H43   H     H_    0.167606 0.042753 0.436541 0.134725
H44   H     H_    0.848885 0.996063 0.572052 0.123637
H45   H     H_    0.912228 0.295342 0.439341 0.137397
H46   H     H_    0.100194 0.409975 0.559053 0.166989
H47   H     H_    0.397423 0.882468 0.436696 0.165590
H48   H     H_    0.603115 0.892150 0.562023 0.170560
H49   H     H_    0.828745 0.208085 0.432645 0.139698
H50   H     H_    0.104674 0.240032 0.566572 0.130833
H51   H     H_    0.382385 0.715006 0.430265 0.130569
H52   H     H_    0.610050 0.723083 0.568852 0.128874
H53   H     H_    0.824220 0.191997 0.558355 0.163575
H54   H     H_    0.110527 0.227134 0.439991 0.135881
H55   H     H_    0.380104 0.706374 0.557273 0.137026
H56   H     H_    0.615919 0.712566 0.441978 0.134648
H57   H     H_    0.907692 0.279579 0.566001 0.132080
H58   H     H_    0.107160 0.396955 0.433495 0.140213
H59   H     H_    0.391621 0.874455 0.562282 0.137315
H60   H     H_    0.612023 0.881939 0.436075 0.143487
N1    N     N_R   0.149245 0.122963 0.056247 0.099461
O53   O     O_R   0.104903 0.194341 0.088108 -0.285318
O54   O     O_R   0.200357 0.170876 0.020166 -0.403072
N2    N     N_R   0.850838 0.122966 0.943739 0.099523
O55   O     O_R   0.895170 0.194313 0.911832 -0.285220
O56   O     O_R   0.799747 0.170907 0.979818 -0.402978
N3    N     N_R   0.649256 0.622983 0.056247 0.099443
O57   O     O_R   0.604843 0.694407 0.087949 -0.285465
O58   O     O_R   0.700422 0.670850 0.020230 -0.403167
N4    N     N_R   0.350833 0.622992 0.943766 0.099443
O59   O     O_R   0.395151 0.694339 0.911844 -0.285271
O60   O     O_R   0.299749 0.670930 0.979856 -0.403046
N5    N     N_R   0.583132 0.448546 0.100543 0.067949
O61   O     O_R   0.602547 0.378384 0.152581 -0.354216
O62   O     O_R   0.520917 0.494982 0.101897 -0.324130
N6    N     N_R   0.416888 0.448524 0.899469 0.067984
O63   O     O_R   0.397454 0.378296 0.847439 -0.354425
O64   O     O_R   0.479120 0.494974 0.898118 -0.324161
N7    N     N_R   0.083130 0.948513 0.100539 0.067951
O65   O     O_R   0.102549 0.878356 0.152577 -0.354316
O66   O     O_R   0.020914 0.994946 0.101894 -0.324172
N8    N     N_R   0.916883 0.948485 0.899443 0.068007
O67   O     O_R   0.897435 0.878282 0.847405 -0.354197
O68   O     O_R   0.979119 0.994917 0.898089 -0.324080

loop_
_geom_bond_atom_site_label_1
_geom_bond_atom_site_label_2
_geom_bond_distance
_ccdc_geom_bond_type
C18   O42   1.262218 A    
C79   H35   1.111843 S    
O4    C12   1.275390 A    
O47   Cr11  1.937354 S    
C29   C30   1.477121 S    
O39   C19   1.279676 A    
C25   H6    1.080768 S    
C54   N4    1.465198 S    
C42   C58   1.497057 S    
C102  H46   1.106875 S    
C66   C73   1.399876 A    
C59   H23   1.112553 S    
C31   C32   1.477126 S    
C82   C98   1.404690 A    
C101  H45   1.109622 S    
C27   H8    1.080761 S    
C96   C100  1.404667 A    
C45   C61   1.399579 A    
C43   C63   1.405787 A    
C103  H51   1.110625 S    
C73   C74   1.396192 A    
C80   H30   1.105674 S    
C107  H59   1.110506 S    
C102  H50   1.111697 S    
C43   C59   1.497075 S    
C1    C36   1.441715 S    
O7    C3    1.275633 A    
O20   Cr12  2.056535 S    
C93   H37   1.078581 S    
N5    O61   1.301903 A    
C77   C78   1.508159 S    
C41   C57   1.497079 S    
O36   Cr8   2.054949 S    
C55   N7    1.463437 S    
O24   C12   1.273185 A    
C66   C70   1.395096 A    
O25   C21   1.269237 A    
C65   C69   1.399838 A    
C82   C86   1.401796 A    
C4    C33   1.441611 S    
C96   H40   1.079735 S    
C31   H3    1.084444 S    
C40   C44   1.386337 A    
C58   H18   1.108611 S    
C54   C58   1.519979 S    
N3    O57   1.301384 A    
C87   C103  1.499297 S    
O8    Cr4   1.947478 S    
O23   Cr11  1.964241 S    
C86   C102  1.500927 S    
C54   N6    1.463442 S    
C46   C50   1.389083 A    
C94   C98   1.400606 A    
C85   C101  1.490795 S    
C25   C30   1.343292 D    
O32   Cr4   1.945944 S    
C1    O9    1.262981 A    
C92   C112  1.391674 A    
C45   C49   1.389032 A    
C28   H7    1.080748 S    
C27   C32   1.343291 D    
C3    O11   1.262994 A    
C90   C106  1.491153 S    
C69   C70   1.366790 A    
O11   Cr7   2.083638 S    
C4    O12   1.263242 A    
O21   C9    1.273387 A    
C89   C105  1.498822 S    
C78   H32   1.106585 S    
N3    O58   1.301277 A    
C44   C60   1.497080 S    
C58   H22   1.112553 S    
O47   C23   1.278684 A    
C59   H19   1.108596 S    
C78   H34   1.111309 S    
C101  C105  1.509410 S    
C7    O19   1.272362 A    
C15   O35   1.265671 A    
C80   H36   1.111527 S    
C75   H27   1.081578 S    
C105  H53   1.105310 S    
C108  H60   1.110099 S    
C87   C91   1.374667 A    
C46   C62   1.399599 A    
C37   C41   1.386279 A    
C79   H29   1.108968 S    
C73   H25   1.080265 S    
N7    O66   1.299531 A    
O2    C10   1.275373 A    
C72   C80   1.506501 S    
O42   Cr10  2.086093 S    
C81   C97   1.403896 A    
O18   Cr10  2.056535 S    
C41   C61   1.405797 A    
N1    O53   1.301554 A    
C104  H48   1.101361 S    
C84   C88   1.404203 A    
C92   C108  1.488529 S    
C2    C35   1.441599 S    
C98   H42   1.077661 S    
C35   C39   1.385674 A    
C36   C52   1.403158 A    
C15   C82   1.452838 S    
C97   H41   1.078548 S    
C12   C64   1.441010 S    
O13   Cr5   1.937336 S    
C106  H54   1.109306 S    
C47   C63   1.399582 A    
C14   O34   1.270306 A    
O6    Cr2   1.947478 S    
C95   C99   1.399987 A    
O31   Cr3   1.945418 S    
O4    Cr4   2.067892 S    
O24   Cr12  1.964710 S    
O16   Cr8   1.937265 S    
N4    O60   1.301268 A    
O30   Cr2   1.945944 S    
N5    O62   1.299534 A    
O22   C10   1.273197 A    
O26   C22   1.269234 A    
C67   C71   1.390583 A    
O48   Cr12  1.937434 S    
Cr5   O49   1.985506 S    
C49   H13   1.073066 S    
C68   C72   1.401733 A    
C99   H43   1.079890 S    
C68   C75   1.405198 A    
C2    O10   1.263251 A    
C69   C77   1.504127 S    
C79   C80   1.507660 S    
C81   C85   1.394324 A    
O15   C7    1.275607 A    
C5    C25   1.464883 S    
O26   Cr2   2.064060 S    
C84   C100  1.405565 A    
O27   C23   1.269504 A    
Cr10  O50   1.986064 S    
C103  C107  1.507198 S    
C35   C51   1.403121 A    
C88   C104  1.499551 S    
C28   C31   1.343240 D    
C83   C99   1.409493 A    
Cr4   O52   1.995819 S    
O40   C20   1.271683 A    
O43   Cr11  2.085723 S    
O48   C24   1.276054 A    
C48   C64   1.399595 A    
C56   N8    1.463452 S    
C14   C83   1.453730 S    
C86   C90   1.372240 A    
N8    O68   1.299534 A    
C26   H5    1.080753 S    
O5    C1    1.275645 A    
C77   H31   1.104215 S    
C18   C65   1.442758 S    
C53   C57   1.519961 S    
C94   C110  1.404926 A    
O39   Cr7   1.964940 S    
C95   C111  1.403163 A    
C93   C109  1.407240 A    
C71   C72   1.362995 A    
C74   H26   1.077916 S    
C10   C62   1.440979 S    
C13   O33   1.267177 A    
C77   H33   1.110959 S    
O8    C4    1.275855 A    
C34   C50   1.403158 A    
C3    C34   1.441727 S    
N2    O56   1.301276 A    
C6    C26   1.464858 S    
C33   C49   1.403128 A    
C91   C107  1.490318 S    
O29   C13   1.287121 A    
Cr2   O50   1.995819 S    
C17   O41   1.261263 A    
O35   Cr7   2.054995 S    
Cr1   O49   1.995832 S    
Cr7   O51   1.985506 S    
C45   H9    1.083646 S    
C108  H56   1.107310 S    
C48   H12   1.083642 S    
C37   C53   1.496467 S    
O14   Cr6   1.937265 S    
C101  H49   1.112042 S    
C38   C54   1.496453 S    
O21   Cr9   1.964241 S    
C55   N1    1.465180 S    
O27   Cr3   2.064387 S    
N1    O54   1.301326 A    
O9    Cr5   2.083638 S    
O30   C14   1.280176 A    
O37   Cr5   1.964940 S    
C100  H44   1.080586 S    
C8    C28   1.464873 S    
C7    C27   1.464875 S    
C19   O43   1.260045 A    
C76   H28   1.080557 S    
C21   C109  1.453568 S    
C50   H14   1.073089 S    
O3    C11   1.275561 A    
N7    O65   1.301898 A    
C29   H1    1.084447 S    
C38   C42   1.386332 A    
O34   Cr6   2.054949 S    
C8    O20   1.272277 A    
O3    Cr3   2.067265 S    
C104  C108  1.510298 S    
C70   C78   1.490546 S    
C26   C29   1.343236 D    
N6    O64   1.299534 A    
C34   C38   1.385696 A    
Cr3   O51   1.995832 S    
O45   C21   1.280743 A    
O15   Cr7   1.937336 S    
C5    O17   1.272356 A    
N4    O59   1.301363 A    
C56   C60   1.519994 S    
O37   C17   1.276834 A    
O22   Cr10  1.964710 S    
O28   C24   1.271081 A    
C102  C106  1.509019 S    
O14   C6    1.275596 A    
C60   H20   1.108606 S    
C95   H39   1.082481 S    
C9    C61   1.440841 S    
C11   C63   1.440837 S    
Cr12  O52   1.986064 S    
O17   Cr9   2.056469 S    
O2    Cr2   2.067892 S    
Cr11  O51   1.986714 S    
C94   H38   1.079735 S    
O7    Cr3   1.947876 S    
C19   C68   1.442747 S    
C85   C89   1.371354 A    
O6    C2    1.275844 A    
C44   C64   1.405828 A    
C47   C51   1.389027 A    
C67   C76   1.406695 A    
C56   N2    1.465201 S    
C17   C66   1.439827 S    
C103  H47   1.101858 S    
O25   Cr1   2.064387 S    
O40   Cr8   1.964345 S    
C88   C92   1.374234 A    
C65   C74   1.404646 A    
C20   O44   1.264098 A    
C47   H11   1.083644 S    
C71   C79   1.489592 S    
C60   H24   1.112551 S    
C105  H57   1.111623 S    
N8    O67   1.301907 A    
C90   C110  1.393139 A    
C20   C67   1.439146 S    
O1    Cr1   2.067265 S    
Cr8   O52   1.986159 S    
O32   C16   1.280886 A    
O41   Cr9   2.085723 S    
C39   C55   1.496462 S    
C107  H55   1.105479 S    
C24   C112  1.454781 S    
C104  H52   1.111226 S    
C33   C37   1.385674 A    
C106  H58   1.112202 S    
C93   C97   1.401946 A    
C32   H4    1.084441 S    
C53   N5    1.463447 S    
N2    O55   1.301397 A    
C42   C62   1.405797 A    
O33   Cr5   2.054995 S    
C53   N3    1.465182 S    
O23   C11   1.273387 A    
C57   H17   1.108595 S    
O10   Cr6   2.082951 S    
O5    Cr1   1.947876 S    
C55   C59   1.519956 S    
C40   C56   1.496428 S    
C75   C76   1.398959 A    
C48   C52   1.389082 A    
O1    C9    1.275566 A    
O29   Cr1   1.945418 S    
O19   Cr11  2.056469 S    
C96   C112  1.408957 A    
C36   C40   1.385676 A    
C16   O36   1.267344 A    
O38   C18   1.277521 A    
O46   C22   1.278372 A    
O44   Cr12  2.086093 S    
Cr6   O50   1.986159 S    
C6    O18   1.272277 A    
O28   Cr4   2.064060 S    
C51   H15   1.073068 S    
C16   C81   1.450564 S    
C30   H2    1.084439 S    
O45   Cr9   1.937354 S    
C52   H16   1.073086 S    
C23   C111  1.448603 S    
C39   C43   1.386280 A    
C89   C109  1.398935 A    
C22   C110  1.449221 S    
O12   Cr8   2.082951 S    
C57   H21   1.112556 S    
C46   H10   1.083640 S    
O31   C15   1.283691 A    
O16   C8    1.275592 A    
Cr9   O49   1.986714 S    
C83   C87   1.400230 A    
O46   Cr10  1.937434 S    
C13   C84   1.461021 S    
C91   C111  1.393711 A    
N6    O63   1.301898 A    
O38   Cr6   1.964345 S    
O13   C5    1.275608 A    
