data_str_m9_o2_o18_f0_sra.sym.68
_audit_creation_date              2012-12-11T16:27:31-0500
_audit_creation_method            fapswitch 2.2
_symmetry_space_group_name_H-M    P1
_symmetry_Int_Tables_number       1
_space_group_crystal_system       triclinic
_cell_length_a                    21.672931
_cell_length_b                    6.914153
_cell_length_c                    14.771769
_cell_angle_alpha                 90.000052
_cell_angle_beta                  105.455251
_cell_angle_gamma                 89.99998
_cell_volume                      2133.50458928

loop_
_atom_site_label
_atom_site_type_symbol
_atom_type_description
_atom_site_fract_x
_atom_site_fract_y
_atom_site_fract_z
_atom_type_partial_charge
O1    O     O_R   0.835850 0.638310 0.002120 -0.533655
O2    O     O_R   0.164150 0.361690 0.997880 -0.533656
O3    O     O_R   0.664150 0.138310 0.997880 -0.533656
O4    O     O_R   0.335850 0.861690 0.002120 -0.533656
O5    O     O_R   0.717530 0.306070 0.861970 -0.544366
O6    O     O_R   0.282470 0.693930 0.138030 -0.544367
O7    O     O_R   0.782470 0.806070 0.138030 -0.544366
O8    O     O_R   0.217530 0.193930 0.861970 -0.544366
C1    C     C_R   0.704653 0.478282 0.824339 0.690207
C2    C     C_R   0.295347 0.521718 0.175661 0.690207
C3    C     C_R   0.795347 0.978283 0.175661 0.690207
C4    C     C_R   0.204653 0.021717 0.824339 0.690206
O9    O     O_R   0.838690 0.308440 0.993250 -0.542354
O10   O     O_R   0.161310 0.691560 0.006750 -0.542354
O11   O     O_R   0.661310 0.808440 0.006750 -0.542354
O12   O     O_R   0.338690 0.191560 0.993250 -0.542354
O13   O     O_R   0.786170 0.140510 0.130090 -0.536869
O14   O     O_R   0.213830 0.859490 0.869910 -0.536869
O15   O     O_R   0.713830 0.640510 0.869910 -0.536869
O16   O     O_R   0.286170 0.359490 0.130090 -0.536869
C5    C     C_R   0.865196 0.476968 0.997399 0.696899
C6    C     C_R   0.134804 0.523032 0.002601 0.696899
C7    C     C_R   0.634804 0.976968 0.002602 0.696898
C8    C     C_R   0.365196 0.023032 0.997398 0.696898
O17   O     O_3   0.732630 0.472520 0.044740 -0.364839
O18   O     O_3   0.267370 0.527480 0.955260 -0.364838
O19   O     O_3   0.767370 0.972520 0.955260 -0.364838
O20   O     O_3   0.232630 0.027480 0.044740 -0.364839
V1    V     V_3+5 0.753220 0.196740 0.991700 1.462975
V2    V     V_3+5 0.246780 0.803260 0.008300 1.462974
V3    V     V_3+5 0.746780 0.696740 0.008300 1.462975
V4    V     V_3+5 0.253220 0.303260 0.991700 1.462975
H1    H     H_    0.610542 0.905384 0.321578 0.117465
H2    H     H_    0.389458 0.094611 0.678422 0.117465
H3    H     H_    0.889458 0.405366 0.678423 0.117465
H4    H     H_    0.110542 0.594635 0.321577 0.117465
C9    C     C_R   0.535707 0.024848 0.829394 -0.154485
C10   C     C_R   0.464293 0.975151 0.170606 -0.154486
C11   C     C_R   0.964293 0.524859 0.170606 -0.154486
C12   C     C_R   0.035707 0.475139 0.829394 -0.154485
C13   C     C_R   0.489210 0.050781 0.744794 -0.138167
C14   C     C_R   0.510790 0.949217 0.255206 -0.138166
C15   C     C_R   0.010790 0.550798 0.255205 -0.138165
C16   C     C_R   0.989210 0.449200 0.744794 -0.138167
C17   C     C_R   0.425481 0.075140 0.744275 -0.084627
C18   C     C_R   0.574519 0.924856 0.255724 -0.084626
C19   C     C_R   0.074519 0.575159 0.255723 -0.084627
C20   C     C_R   0.925481 0.424841 0.744276 -0.084629
C21   C     C_R   0.407602 0.071052 0.828148 -0.088783
C22   C     C_R   0.592398 0.928944 0.171852 -0.088782
C23   C     C_R   0.092398 0.571065 0.171851 -0.088781
C24   C     C_R   0.907602 0.428936 0.828149 -0.088782
C25   C     C_R   0.453124 0.034916 0.914490 0.063115
C26   C     C_R   0.546876 0.965083 0.085510 0.063115
C27   C     C_R   0.046876 0.534922 0.085510 0.063116
C28   C     C_R   0.953124 0.465078 0.914490 0.063116
C29   C     C_R   0.518785 0.016124 0.915461 0.067036
C30   C     C_R   0.481215 0.983876 0.084539 0.067036
C31   C     C_R   0.981215 0.516130 0.084539 0.067035
C32   C     C_R   0.018785 0.483870 0.915461 0.067036
C33   C     C_R   0.434110 0.015038 0.998745 -0.177202
C34   C     C_R   0.565890 0.984961 0.001255 -0.177203
C35   C     C_R   0.065890 0.515039 0.001255 -0.177203
C36   C     C_R   0.934110 0.484961 0.998745 -0.177203
H5    H     H_    0.584754 0.008118 0.826299 0.110204
H6    H     H_    0.415246 0.991883 0.173701 0.110204
H7    H     H_    0.915246 0.508128 0.173701 0.110204
H8    H     H_    0.084754 0.491869 0.826299 0.110203
H9    H     H_    0.502772 0.053106 0.679364 0.132094
H10   H     H_    0.497227 0.946892 0.320635 0.132094
H11   H     H_    0.997228 0.553128 0.320635 0.132094
H12   H     H_    0.002772 0.446869 0.679365 0.132094
H13   H     H_    0.357548 0.092603 0.824334 0.097508
H14   H     H_    0.642451 0.907392 0.175666 0.097509
H15   H     H_    0.142451 0.592616 0.175665 0.097510
H16   H     H_    0.857549 0.407386 0.824335 0.097509
C37   C     C_R   0.177205 0.004673 0.721970 -0.083052
C38   C     C_R   0.822795 0.995328 0.278030 -0.083052
C39   C     C_R   0.322794 0.504673 0.278030 -0.083054
C40   C     C_R   0.677206 0.495327 0.721970 -0.083055
C41   C     C_R   0.184888 0.906919 0.567678 -0.202583
C42   C     C_R   0.815112 0.093079 0.432322 -0.202582
C43   C     C_R   0.315112 0.406910 0.432321 -0.202582
C44   C     C_R   0.684888 0.593094 0.567680 -0.202582
C45   C     C_R   0.212043 0.919025 0.664361 -0.047390
C46   C     C_R   0.787956 0.080971 0.335639 -0.047390
C47   C     C_R   0.287957 0.419024 0.335639 -0.047390
C48   C     C_R   0.712043 0.580980 0.664362 -0.047390
C49   C     C_R   0.112044 0.046528 0.683727 -0.233283
C50   C     C_R   0.887957 0.953479 0.316273 -0.233284
C51   C     C_R   0.387956 0.546526 0.316274 -0.233282
C52   C     C_R   0.612044 0.453468 0.683725 -0.233282
C53   C     C_R   0.081259 0.005699 0.588195 0.086383
C54   C     C_R   0.918742 0.994309 0.411805 0.086384
C55   C     C_R   0.418742 0.505692 0.411805 0.086382
C56   C     C_R   0.581259 0.494303 0.588194 0.086383
C57   C     C_R   0.120228 0.951887 0.529192 0.126143
C58   C     C_R   0.879772 0.048118 0.470808 0.126142
C59   C     C_R   0.379772 0.451874 0.470808 0.126142
C60   C     C_R   0.620228 0.548125 0.529192 0.126142
C61   C     C_R   0.013405 0.014153 0.549389 0.052201
C62   C     C_R   0.986595 0.985858 0.450611 0.052200
C63   C     C_R   0.486595 0.514148 0.450611 0.052200
C64   C     C_R   0.513405 0.485845 0.549388 0.052200
C65   C     C_R   0.028639 0.957742 0.393515 -0.196580
C66   C     C_R   0.971361 0.042269 0.606484 -0.196582
C67   C     C_R   0.471362 0.457718 0.606483 -0.196580
C68   C     C_R   0.528639 0.542276 0.393516 -0.196579
C69   C     C_R   0.094023 0.937000 0.432531 -0.186080
C70   C     C_R   0.905978 0.063008 0.567469 -0.186080
C71   C     C_R   0.405978 0.436977 0.567468 -0.186077
C72   C     C_R   0.594023 0.563021 0.432532 -0.186076
H17   H     H_    0.124519 0.909250 0.386576 0.139253
H18   H     H_    0.875481 0.090756 0.613424 0.139253
H19   H     H_    0.375482 0.409222 0.613422 0.139250
H20   H     H_    0.624519 0.590778 0.386577 0.139249
H21   H     H_    0.913770 0.895365 0.269238 0.109745
H22   H     H_    0.086231 0.104646 0.730762 0.109745
H23   H     H_    0.586232 0.395345 0.730760 0.109745
H24   H     H_    0.413769 0.604646 0.269239 0.109745
H25   H     H_    0.213140 0.850594 0.522950 0.121915
H26   H     H_    0.786859 0.149401 0.477050 0.121915
H27   H     H_    0.286860 0.350583 0.477048 0.121915
H28   H     H_    0.713140 0.649424 0.522952 0.121915
H29   H     H_    0.012298 0.950939 0.318009 0.143675
H30   H     H_    0.987703 0.049073 0.681990 0.143676
H31   H     H_    0.487703 0.450908 0.681990 0.143675
H32   H     H_    0.512298 0.549086 0.318010 0.143675
C73   C     C_1   0.727267 0.175368 0.297003 0.262094
N1    N     N_1   0.679391 0.255857 0.266775 -0.364596
C74   C     C_1   0.272732 0.824625 0.702997 0.262096
N2    N     N_1   0.320607 0.744133 0.733226 -0.364596
C75   C     C_1   0.772733 0.675376 0.702999 0.262097
N3    N     N_1   0.820608 0.755864 0.733230 -0.364597
C76   C     C_1   0.227267 0.324631 0.297001 0.262095
N4    N     N_1   0.179390 0.244145 0.266772 -0.364598

loop_
_geom_bond_atom_site_label_1
_geom_bond_atom_site_label_2
_ccdc_geom_bond_type
O17   V3    S    
C43   C47   A    
O1    C5    A    
C61   C62   A    
C12   C32   A    
C27   C31   A    
O19   V1    S    
O13   V1    S    
O3    C7    A    
C52   C56   A    
O15   V3    S    
C39   C47   A    
C76   N4    T    
C38   C50   A    
O7    C3    A    
C37   C49   A    
C31   C36   A    
C8    C33   S    
C62   C65   A    
C32   C35   A    
C58   C70   A    
O9    V1    S    
C52   H23   S    
C23   H15   S    
C48   C75   S    
C10   C14   A    
C22   H14   S    
C26   C30   A    
O4    C8    A    
C55   C59   A    
C54   C58   A    
O1    V3    S    
H4    C19   S    
O2    V4    S    
C14   C18   A    
O3    V1    S    
C5    C36   S    
C6    C35   S    
C10   C30   A    
C25   C33   A    
C1    O15   A    
C7    C34   S    
C10   H6    S    
C2    O16   A    
C9    H5    S    
O2    C6    A    
C28   C36   A    
C63   C68   A    
O14   V2    S    
C70   H18   S    
C12   C16   A    
C39   C51   A    
C69   H17   S    
C38   C46   A    
C30   C33   A    
O11   C7    A    
C11   C31   A    
O12   C8    A    
C43   C59   A    
C9    C13   A    
H1    C18   S    
C42   C58   A    
C67   C71   A    
O10   V2    S    
C41   H25   S    
H3    C20   S    
C55   C63   A    
C18   C22   A    
C50   C54   A    
O5    V1    S    
O17   V1    S    
O7    V3    S    
O19   V3    S    
O8    V4    S    
C50   H21   S    
C47   C76   S    
O20   V4    S    
C53   C61   A    
C25   C29   A    
O18   V4    S    
C19   C23   A    
C26   C34   A    
C29   C34   A    
C42   C46   A    
C51   C55   A    
O4    V2    S    
C68   C72   A    
C27   C35   A    
C1    C40   S    
C44   C60   A    
C40   C52   A    
C14   H10   S    
O5    C1    A    
C3    C38   S    
C57   C69   A    
C17   C21   A    
O8    C4    A    
C59   C71   A    
C4    C37   S    
O9    C5    A    
H2    C17   S    
C22   C26   A    
C68   H32   S    
O6    V2    S    
C60   C72   A    
C56   C64   A    
C75   N3    T    
C21   H13   S    
O12   V4    S    
C74   N2    T    
C53   C57   A    
C72   H20   S    
C13   H9    S    
C73   N1    T    
O16   V4    S    
C61   C66   A    
C65   C69   A    
C3    O13   A    
C15   H11   S    
C11   H7    S    
C44   C48   A    
C24   H16   S    
O6    C2    A    
C11   C15   A    
C2    C39   S    
C46   C73   S    
O11   V3    S    
C44   H28   S    
C66   H30   S    
C65   H29   S    
O10   C6    A    
O20   V2    S    
C67   H31   S    
C40   C48   A    
C16   C20   A    
C45   C74   S    
C41   C57   A    
C21   C25   A    
C56   C60   A    
C16   H12   S    
C23   C27   A    
C49   C53   A    
C9    C29   A    
C37   C45   A    
C28   C32   A    
C20   C24   A    
C49   H22   S    
C54   C62   A    
C66   C70   A    
C12   H8    S    
C4    O14   A    
C63   C64   A    
C13   C17   A    
C51   H24   S    
C71   H19   S    
C43   H27   S    
C15   C19   A    
C42   H26   S    
C64   C67   A    
C41   C45   A    
C24   C28   A    
O18   V2    S    
