data_str_m3_o14_o14_f0_pcu.sym.215
_audit_creation_date              2012-12-10T17:40:57-0500
_audit_creation_method            fapswitch 2.2
_symmetry_space_group_name_H-M    P1
_symmetry_Int_Tables_number       1
_space_group_crystal_system       triclinic
_cell_length_a                    14.941469
_cell_length_b                    15.175848
_cell_length_c                    9.93659
_cell_angle_alpha                 90.45674
_cell_angle_beta                  89.990454
_cell_angle_gamma                 90.001814
_cell_volume                      2253.04482004

loop_
_atom_site_label
_atom_site_type_symbol
_atom_type_description
_atom_site_fract_x
_atom_site_fract_y
_atom_site_fract_z
_atom_type_partial_charge
C1    C     C_R   0.382561 0.878154 0.499570 0.855659
C2    C     C_R   0.382573 0.121859 0.500504 0.855624
C3    C     C_R   0.882547 0.378168 0.499572 0.855617
C4    C     C_R   0.882555 0.621842 0.500501 0.855571
C5    C     C_R   0.244694 0.181078 0.422866 -0.214820
C6    C     C_R   0.244537 0.819054 0.576912 -0.214920
C7    C     C_R   0.744559 0.680944 0.423120 -0.214861
C8    C     C_R   0.744411 0.319178 0.576667 -0.214962
C9    C     C_R   0.680964 0.745452 0.421420 -0.202720
C10   C     C_R   0.680780 0.254695 0.578252 -0.202573
C11   C     C_R   0.181110 0.245590 0.421147 -0.202851
C12   C     C_R   0.180914 0.754568 0.578512 -0.202698
C13   C     C_R   0.693353 0.821550 0.498066 -0.099144
C14   C     C_R   0.693287 0.178516 0.501830 -0.098990
C15   C     C_R   0.193395 0.321595 0.498049 -0.099252
C16   C     C_R   0.193326 0.678476 0.501850 -0.099088
C17   C     C_R   0.336411 0.999517 0.139725 -0.143985
C18   C     C_R   0.836411 0.499518 0.139725 -0.143903
C19   C     C_R   0.255828 0.999753 0.069732 -0.193579
C20   C     C_R   0.755828 0.499753 0.069732 -0.193573
C21   C     C_R   0.255806 0.000244 0.930479 -0.193416
C22   C     C_R   0.755806 0.500242 0.930479 -0.193413
C23   C     C_R   0.336367 0.000480 0.860397 -0.143936
C24   C     C_R   0.836367 0.500478 0.860397 -0.143859
C25   C     C_R   0.419409 0.000123 0.927808 0.168405
C26   C     C_R   0.919409 0.500123 0.927808 0.168387
C27   C     C_R   0.419441 0.999876 0.072233 0.168440
C28   C     C_R   0.919441 0.499876 0.072233 0.168418
C29   C     C_R   0.577066 0.000035 0.071402 -0.107526
C30   C     C_R   0.077066 0.500035 0.071402 -0.107508
C31   C     C_R   0.621838 0.117523 0.500387 0.843417
C32   C     C_R   0.621866 0.882505 0.499543 0.843384
C33   C     C_R   0.121855 0.617506 0.500390 0.843404
C34   C     C_R   0.121884 0.382524 0.499541 0.843379
C35   C     C_R   0.577029 0.999966 0.928440 -0.107338
C36   C     C_R   0.077029 0.499966 0.928440 -0.107317
C37   C     C_R   0.418033 0.285963 0.646124 -0.182264
C38   C     C_R   0.418242 0.713916 0.354531 -0.182030
C39   C     C_R   0.918172 0.786078 0.645599 -0.182151
C40   C     C_R   0.918367 0.213811 0.354997 -0.181925
C41   C     C_R   0.433077 0.365671 0.713159 -0.145618
C42   C     C_R   0.433376 0.634153 0.287689 -0.145559
C43   C     C_R   0.933290 0.865849 0.712420 -0.145585
C44   C     C_R   0.933567 0.133991 0.288351 -0.145531
C45   C     C_R   0.869165 0.932205 0.708298 -0.127846
C46   C     C_R   0.869401 0.067664 0.292344 -0.127793
C47   C     C_R   0.368975 0.432045 0.708972 -0.128011
C48   C     C_R   0.369231 0.567809 0.291740 -0.127951
C49   C     C_R   0.789497 0.918762 0.638118 -0.189899
C50   C     C_R   0.789613 0.081182 0.362223 -0.190017
C51   C     C_R   0.289399 0.418680 0.638526 -0.189792
C52   C     C_R   0.289526 0.581256 0.361862 -0.189915
C53   C     C_R   0.772558 0.837660 0.571422 0.093354
C54   C     C_R   0.772604 0.162328 0.428756 0.093220
C55   C     C_R   0.272521 0.337632 0.571638 0.093477
C56   C     C_R   0.272570 0.662353 0.428566 0.093338
C57   C     C_R   0.337657 0.271081 0.574333 0.102976
C58   C     C_R   0.337740 0.728876 0.425991 0.102967
C59   C     C_R   0.837705 0.771121 0.574081 0.102962
C60   C     C_R   0.837784 0.228839 0.426213 0.102952
C61   C     C_R   0.320979 0.192590 0.501076 -0.094389
C62   C     C_R   0.320964 0.807432 0.499028 -0.094249
C63   C     C_R   0.820945 0.692556 0.501067 -0.094274
C64   C     C_R   0.820934 0.307463 0.499031 -0.094145
H1    H     H_    0.233461 0.121040 0.365352 0.141330
H2    H     H_    0.233227 0.879155 0.634241 0.141200
H3    H     H_    0.733263 0.620839 0.365799 0.141208
H4    H     H_    0.733042 0.379343 0.633813 0.141089
H5    H     H_    0.192964 0.000415 0.876200 0.142097
H6    H     H_    0.692963 0.500411 0.876200 0.142110
H7    H     H_    0.330685 0.000984 0.753779 0.199903
H8    H     H_    0.830684 0.500980 0.753779 0.199891
H9    H     H_    0.640072 0.999922 0.874854 0.146677
H10   H     H_    0.140072 0.499923 0.874855 0.146631
H11   H     H_    0.470268 0.237084 0.649760 0.153149
H12   H     H_    0.470494 0.762787 0.351023 0.152910
H13   H     H_    0.970411 0.737200 0.649173 0.152978
H14   H     H_    0.970623 0.262680 0.351538 0.152762
H15   H     H_    0.495097 0.376298 0.767227 0.130192
H16   H     H_    0.495493 0.623466 0.233871 0.130103
H17   H     H_    0.995379 0.876534 0.766282 0.130129
H18   H     H_    0.995746 0.123248 0.234720 0.130045
H19   H     H_    0.742673 0.972977 0.634561 0.143344
H20   H     H_    0.742744 0.026998 0.365666 0.143292
H21   H     H_    0.242608 0.472919 0.634909 0.143386
H22   H     H_    0.242685 0.527050 0.365364 0.143324
H23   H     H_    0.621037 0.734955 0.362460 0.144357
H24   H     H_    0.620741 0.265264 0.636955 0.144242
H25   H     H_    0.121264 0.235163 0.361968 0.144475
H26   H     H_    0.120953 0.765069 0.637420 0.144347
H27   H     H_    0.640132 0.000080 0.124893 0.146666
H28   H     H_    0.140132 0.500080 0.124892 0.146624
H29   H     H_    0.330740 0.999009 0.246337 0.199992
H30   H     H_    0.830739 0.499013 0.246337 0.199981
H31   H     H_    0.193001 0.999582 0.124084 0.142075
H32   H     H_    0.693001 0.499583 0.124084 0.142086
N1    N     N_R   0.498810 0.000000 0.142780 -0.122857
N2    N     N_R   0.998810 0.500000 0.142780 -0.122845
N3    N     N_R   0.498740 0.000000 0.857170 -0.122853
N4    N     N_R   0.998740 0.500000 0.857170 -0.122839
O1    O     O_R   0.408390 0.908380 0.614690 -0.625945
O2    O     O_R   0.408390 0.091620 0.614690 -0.643743
O3    O     O_R   0.908390 0.408380 0.614690 -0.625934
O4    O     O_R   0.908390 0.591620 0.614690 -0.643671
O5    O     O_R   0.408370 0.908380 0.385360 -0.643686
O6    O     O_R   0.408370 0.091620 0.385360 -0.626040
O7    O     O_R   0.908370 0.408380 0.385360 -0.643626
O8    O     O_R   0.908370 0.591620 0.385360 -0.626027
O9    O     O_R   0.591620 0.091610 0.614640 -0.629096
O10   O     O_R   0.591620 0.908390 0.614640 -0.610832
O11   O     O_R   0.091620 0.591610 0.614640 -0.629107
O12   O     O_R   0.091620 0.408390 0.614640 -0.610853
O13   O     O_R   0.591610 0.091610 0.385310 -0.610809
O14   O     O_R   0.591610 0.908390 0.385310 -0.629031
O15   O     O_R   0.091610 0.591610 0.385310 -0.610824
O16   O     O_R   0.091610 0.408390 0.385310 -0.629047
Zn1   Zn    Zn3+2 0.500010 1.000000 0.653130 0.931745
Zn2   Zn    Zn3+2 0.000010 0.500000 0.653130 0.931767
Zn3   Zn    Zn3+2 0.499980 1.000000 0.346870 0.931825
Zn4   Zn    Zn3+2 0.999980 0.500000 0.346870 0.931844
H33   H     H_    0.881461 0.994549 0.758672 0.137546
H34   H     H_    0.881754 0.005286 0.242097 0.137564
H35   H     H_    0.381223 0.494346 0.759500 0.137494
H36   H     H_    0.381539 0.505470 0.241352 0.137514

loop_
_geom_bond_atom_site_label_1
_geom_bond_atom_site_label_2
_ccdc_geom_bond_type
C58   C62   A    
C42   H16   S    
C40   C60   A    
O6    Zn3   S    
C34   O12   A    
O8    Zn4   S    
C13   C32   S    
C14   C31   S    
C1    C62   S    
C51   H21   S    
C53   C59   A    
C50   H20   S    
C54   C60   A    
C3    C64   S    
C3    O3    A    
C4    O8    A    
C4    C63   S    
C10   H24   S    
C50   C54   A    
C6    H2    S    
C32   O10   A    
O11   Zn2   S    
C39   H13   S    
C12   H26   S    
C19   C21   A    
C24   C26   A    
C5    C11   A    
C44   H18   S    
C6    C12   A    
C2    O2    A    
C34   O16   A    
C18   C20   A    
C9    C13   A    
O13   Zn3   S    
C11   C15   A    
C25   N3    A    
C35   H9    S    
C12   C16   A    
C33   O11   A    
C18   H30   S    
C15   C34   S    
C13   C53   A    
O14   Zn3   S    
C2    C61   S    
C37   H11   S    
C38   C58   A    
C38   H12   S    
C37   C41   A    
C35   N3    A    
O10   Zn1   S    
C22   H6    S    
C44   C46   A    
O4    Zn2   S    
C41   C47   A    
C33   O15   A    
O9    Zn1   S    
C17   C27   A    
C23   H7    S    
C18   C28   A    
C30   H28   S    
C10   C14   A    
C39   C43   A    
C3    O7    A    
C2    O6    A    
O16   Zn4   S    
C21   H5    S    
C15   C55   A    
N1    Zn3   S    
C16   C56   A    
C41   H15   S    
C16   C33   S    
N3    Zn1   S    
C11   H25   S    
C47   H35   S    
C45   C49   A    
C39   C59   A    
C31   O9    A    
C5    C61   A    
C36   N4    A    
C42   C48   A    
C57   C61   A    
C43   C45   A    
C7    C63   A    
O2    Zn1   S    
C36   H10   S    
C8    C64   A    
C40   H14   S    
C5    H1    S    
C14   C54   A    
C20   C22   A    
C8    H4    S    
C55   C57   A    
C43   H17   S    
C22   C24   A    
O3    Zn2   S    
C17   H29   S    
C40   C44   A    
C1    O1    A    
O7    Zn4   S    
C29   H27   S    
C19   H31   S    
C24   H8    S    
C30   N2    A    
C28   N2    A    
C7    C9    A    
C29   C35   A    
C27   N1    A    
C59   C63   A    
C46   H34   S    
C48   H36   S    
C47   C51   A    
N2    Zn4   S    
C30   C36   A    
C25   C27   A    
C46   C50   A    
C26   C28   A    
C29   N1    A    
C60   C64   A    
C45   H33   S    
C6    C62   A    
C21   C23   A    
O1    Zn1   S    
C9    H23   S    
O12   Zn2   S    
C49   H19   S    
C49   C53   A    
C4    O4    A    
C52   H22   S    
C17   C19   A    
C56   C58   A    
C51   C55   A    
C23   C25   A    
C20   H32   S    
C7    H3    S    
C38   C42   A    
C48   C52   A    
N4    Zn2   S    
C8    C10   A    
O15   Zn4   S    
C26   N4    A    
O5    Zn3   S    
C32   O14   A    
C31   O13   A    
C37   C57   A    
C52   C56   A    
C1    O5    A    
