data_str_m9_o4_o2_f0_sra.sym.107
_audit_creation_date              2012-12-11T17:07:24-0500
_audit_creation_method            fapswitch 2.2
_symmetry_space_group_name_H-M    P1
_symmetry_Int_Tables_number       1
_space_group_crystal_system       triclinic
_cell_length_a                    6.950405
_cell_length_b                    14.737379
_cell_length_c                    15.904348
_cell_angle_alpha                 90.057286
_cell_angle_beta                  90.547855
_cell_angle_gamma                 90.001184
_cell_volume                      1629.01904867

loop_
_atom_site_label
_atom_site_type_symbol
_atom_type_description
_atom_site_fract_x
_atom_site_fract_y
_atom_site_fract_z
_atom_type_partial_charge
O1    O     O_R   0.505720 0.583900 0.413310 -0.535988
O2    O     O_R   0.175940 0.594920 0.586080 -0.542476
O3    O     O_R   0.005640 0.416100 0.586690 -0.536736
C1    C     C_R   0.345637 0.616456 0.615207 0.698817
O4    O     O_R   0.176000 0.594930 0.413930 -0.547232
O5    O     O_R   0.005700 0.416110 0.413310 -0.543204
C2    C     C_R   0.344041 0.615710 0.384444 0.699548
O6    O     O_R   0.505660 0.583890 0.586690 -0.539727
O7    O     O_3   0.339200 0.441330 0.500000 -0.366713
V1    V     V_3+5 0.064350 0.510880 0.500000 1.389887
O8    O     O_R   0.675980 0.405080 0.413920 -0.538367
C3    C     C_R   0.844550 0.383725 0.384534 0.690932
O9    O     O_R   0.675920 0.405070 0.586070 -0.535945
C4    C     C_R   0.845338 0.384432 0.615690 0.697880
V2    V     V_3+5 0.564340 0.489120 0.500000 1.410611
O10   O     O_3   0.839360 0.558670 0.500000 -0.373434
H1    H     H_    0.096177 0.099797 0.504646 0.124552
C5    C     C_R   0.717891 0.423808 0.785166 -0.208497
C6    C     C_R   0.668002 0.447756 0.866919 -0.239159
C7    C     C_R   0.695896 0.386298 0.933535 0.471386
C8    C     C_R   0.763434 0.299258 0.915309 -0.180599
C9    C     C_R   0.811787 0.272849 0.832458 -0.004253
C10   C     C_R   0.794816 0.337599 0.766639 0.072219
C11   C     C_R   0.871350 0.182814 0.814412 -0.151110
C12   C     C_R   0.909596 0.157661 0.729310 0.058087
C13   C     C_R   0.923139 0.226912 0.666940 0.040709
C14   C     C_R   0.856870 0.315776 0.684339 -0.156447
C15   C     C_R   0.926532 0.065561 0.702013 0.153912
C16   C     C_R   0.002221 0.046340 0.622460 -0.100091
C17   C     C_R   0.040811 0.115597 0.566275 -0.167988
C18   C     C_R   0.993665 0.204384 0.586448 -0.147300
H2    H     H_    0.692586 0.473047 0.736197 0.125977
H3    H     H_    0.605927 0.514056 0.877378 0.114411
H4    H     H_    0.776770 0.252522 0.967463 0.116581
H5    H     H_    0.022655 0.976866 0.602000 0.110109
H6    H     H_    0.012185 0.254683 0.537789 0.122248
C19   C     C_R   0.724683 0.186976 0.238279 0.140451
C20   C     C_R   0.880441 0.185518 0.182994 -0.111918
C21   C     C_R   0.032179 0.246494 0.199123 -0.171872
H7    H     H_    0.154891 0.248129 0.158035 0.142160
C22   C     C_R   0.021164 0.309997 0.265233 -0.183120
H8    H     H_    0.136363 0.358629 0.273218 0.129339
C23   C     C_R   0.857596 0.314704 0.316914 -0.113539
C24   C     C_R   0.713372 0.249921 0.303503 0.096402
C25   C     C_3   0.503123 0.263390 0.289517 -0.414525
C26   C     C_3   0.515419 0.194361 0.218806 -0.384201
H9    H     H_    0.469580 0.333102 0.267157 0.171268
H10   H     H_    0.416751 0.239438 0.343619 0.178836
H11   H     H_    0.488331 0.223796 0.155443 0.184625
H12   H     H_    0.437015 0.130297 0.232214 0.176716
C27   C     C_R   0.503934 0.678911 0.746609 0.097983
C28   C     C_R   0.355243 0.681392 0.686269 -0.105982
C29   C     C_R   0.205058 0.743505 0.699731 -0.177658
H13   H     H_    0.084981 0.747025 0.656125 0.124903
C30   C     C_R   0.214809 0.806338 0.766182 -0.176597
H14   H     H_    0.102704 0.855873 0.771158 0.131955
C31   C     C_R   0.373971 0.809272 0.821552 -0.100927
C32   C     C_R   0.511126 0.740077 0.813528 0.091401
C33   C     C_3   0.724815 0.744813 0.812230 -0.410662
C34   C     C_3   0.717281 0.682047 0.736484 -0.402924
H15   H     H_    0.790757 0.712717 0.868798 0.164247
H16   H     H_    0.778761 0.813356 0.798111 0.182776
H17   H     H_    0.789893 0.616507 0.748788 0.167254
H18   H     H_    0.758481 0.715785 0.676865 0.170495
C35   C     C_R   0.511576 0.738000 0.304501 0.040082
C36   C     C_R   0.352175 0.682774 0.315781 -0.088770
C37   C     C_R   0.201647 0.693387 0.256129 -0.207340
H19   H     H_    0.076279 0.650066 0.258633 0.119886
C38   C     C_R   0.215935 0.757897 0.190098 -0.198937
H20   H     H_    0.100733 0.762036 0.144028 0.128331
C39   C     C_R   0.379892 0.814447 0.182231 -0.136767
C40   C     C_R   0.525425 0.801160 0.242244 0.086722
C41   C     C_3   0.729448 0.823083 0.265963 0.286517
C42   C     C_3   0.708848 0.752357 0.337297 -0.483010
H21   H     H_    0.829292 0.804072 0.214929 0.057510
H22   H     H_    0.706660 0.780654 0.402054 0.174557
H23   H     H_    0.799677 0.691207 0.329132 0.152715
O11   O     O_R   0.229140 0.916090 0.913340 -0.544526
O12   O     O_R   0.558860 0.905090 0.086080 -0.538316
O13   O     O_R   0.729100 0.083920 0.086690 -0.530652
C43   C     C_R   0.390705 0.883152 0.114794 0.713302
O14   O     O_R   0.558860 0.905090 0.913930 -0.542103
O15   O     O_R   0.729100 0.083920 0.913310 -0.537753
C44   C     C_R   0.389065 0.881502 0.886427 0.691041
O16   O     O_R   0.229140 0.916080 0.086720 -0.539960
O17   O     O_3   0.395570 0.058660 0.000020 -0.366673
V3    V     V_3+5 0.670450 0.989140 0.000000 1.420676
O18   O     O_R   0.058810 0.094980 0.913910 -0.537095
C45   C     C_R   0.888600 0.116080 0.884540 0.710775
O19   O     O_R   0.058810 0.094980 0.086060 -0.547037
C46   C     C_R   0.889890 0.118390 0.113645 0.704100
V4    V     V_3+5 0.170450 0.010950 0.999970 1.413616
O20   O     O_3   0.895460 0.941370 0.999990 -0.375239
O21   O     O_3   0.752263 0.913062 0.295397 -0.540627
C47   C     C_3   0.934896 0.921832 0.335256 0.120161
H24   H     H_    0.047983 0.878583 0.306296 0.128725
H25   H     H_    0.922981 0.903424 0.402752 0.120326
C48   C     C_3   0.003878 0.019316 0.330190 -0.718815
H26   H     H_    0.895633 0.065701 0.357814 0.225362
H27   H     H_    0.141773 0.026690 0.365345 0.172466
H28   H     H_    0.029581 0.037298 0.263671 0.214207
O22   O     O_3   0.642854 0.404352 0.016052 -0.557903
C49   C     C_3   0.690414 0.493770 0.040925 0.094006
H29   H     H_    0.578892 0.541997 0.017843 0.119620
H30   H     H_    0.834692 0.514632 0.017650 0.110596
C50   C     C_3   0.694992 0.498747 0.136567 -0.708589
H31   H     H_    0.806248 0.451866 0.161958 0.224807
H32   H     H_    0.729761 0.568974 0.157116 0.164607
H33   H     H_    0.552635 0.479422 0.162184 0.218057
C51   C     C_3   0.830475 0.988385 0.747001 -0.798279
H34   H     H_    0.912561 0.968968 0.804007 0.204323
H35   H     H_    0.681482 0.007854 0.763948 0.216937
H36   H     H_    0.817790 0.927852 0.705688 0.184873

loop_
_geom_bond_atom_site_label_1
_geom_bond_atom_site_label_2
_ccdc_geom_bond_type
O15   V3    S    
C30   H14   S    
C22   C23   A    
C22   H8    S    
C47   H24   S    
C1    O6    A    
C11   C45   S    
O12   V3    S    
C31   C32   A    
C47   C48   S    
C21   C22   A    
C25   C26   S    
C24   C25   S    
C12   C15   A    
C26   H11   S    
C13   C14   A    
C16   C17   A    
C42   H22   S    
C1    C28   S    
C34   H17   S    
C15   C16   A    
C3    C23   S    
C38   H20   S    
O5    C3    A    
C17   C18   A    
C7    O22   S    
C50   H31   S    
O14   V3    S    
C5    C6    A    
C41   C42   S    
C38   C39   A    
C51   H34   S    
O8    V2    S    
O18   V4    S    
C42   H23   S    
O1    V2    S    
C10   C14   A    
C4    C14   S    
O7    V1    S    
C25   H9    S    
C36   C37   A    
C33   C34   S    
C8    C9    A    
H1    C17   S    
C41   H21   S    
O21   C47   S    
C41   O21   S    
O4    V1    S    
O16   V4    S    
C29   C30   A    
O15   C45   A    
C33   H15   S    
C5    C10   A    
C11   C12   A    
C6    H3    S    
C21   H7    S    
O12   C43   A    
O17   V3    S    
C8    H4    S    
C15   C51   S    
C32   C33   S    
C29   H13   S    
C20   C46   S    
C35   C42   S    
C37   H19   S    
C37   C38   A    
O2    C1    A    
C23   C24   A    
C19   C20   A    
O19   V4    S    
C31   C44   S    
C49   H30   S    
C27   C32   A    
O18   C45   A    
C51   H36   S    
O3    C4    A    
C48   H26   S    
O6    V2    S    
C48   H27   S    
C30   C31   A    
C9    C11   A    
C5    H2    S    
O2    V1    S    
C28   C29   A    
O4    C2    A    
C25   H10   S    
C16   H5    S    
C33   H16   S    
O1    C2    A    
C9    C10   A    
C40   C41   S    
O5    V1    S    
O8    C3    A    
C47   H25   S    
O13   V3    S    
C35   C40   A    
C26   H12   S    
O14   C44   A    
C48   H28   S    
C34   H18   S    
O11   V4    S    
C6    C7    A    
O9    V2    S    
C12   C13   A    
C27   C28   A    
O3    V1    S    
V1    O10   S    
C2    C36   S    
O19   C46   A    
C20   C21   A    
C50   H32   S    
C19   C24   A    
O13   C46   A    
V3    O20   S    
V4    O20   S    
C49   C50   S    
O7    V2    S    
O22   C49   S    
C51   H35   S    
O11   C44   A    
C13   C18   A    
C39   C40   A    
C7    C8    A    
C35   C36   A    
C49   H29   S    
C18   H6    S    
O17   V4    S    
C27   C34   S    
C19   C26   S    
O9    C4    A    
C43   O16   A    
V2    O10   S    
C39   C43   S    
C50   H33   S    
