data_str_m4_o22_o24_f0_acs.sym.49
_audit_creation_date              2012-12-11T15:08:50-0500
_audit_creation_method            fapswitch 2.2
_symmetry_space_group_name_H-M    P1
_symmetry_Int_Tables_number       1
_space_group_crystal_system       triclinic
_cell_length_a                    19.497053
_cell_length_b                    11.42951
_cell_length_c                    18.682097
_cell_angle_alpha                 90.000049
_cell_angle_beta                  91.173699
_cell_angle_gamma                 90.0
_cell_volume                      4162.27795327

loop_
_atom_site_label
_atom_site_type_symbol
_atom_type_description
_atom_site_fract_x
_atom_site_fract_y
_atom_site_fract_z
_atom_type_partial_charge
C1    C     C_R   0.272609 0.041781 0.854460 0.532466
C2    C     C_3   0.686610 0.520066 0.954942 -0.198020
C3    C     C_R   0.230713 0.551326 0.349461 0.525309
C4    C     C_R   0.453831 0.822571 0.639739 0.529166
C5    C     C_R   0.546181 0.822569 0.360264 0.529174
C6    C     C_R   0.953831 0.322571 0.639739 0.529163
C7    C     C_R   0.046181 0.322570 0.360264 0.529161
C8    C     C_R   0.262239 0.643929 0.641773 0.559639
C9    C     C_R   0.737762 0.643925 0.358226 0.559648
C10   C     C_R   0.762239 0.143929 0.641773 0.559638
C11   C     C_R   0.237762 0.143925 0.358226 0.559639
C12   C     C_3   0.480081 0.917206 0.035532 -0.106284
C13   C     C_3   0.813390 0.020067 0.045059 -0.198018
C14   C     C_3   0.519919 0.917206 0.964468 -0.106283
C15   C     C_3   0.980081 0.417206 0.035532 -0.106284
C16   C     C_3   0.019919 0.417206 0.964468 -0.106284
C17   C     C_3   0.431905 0.820868 0.005769 -0.180100
C18   C     C_3   0.568095 0.820868 0.994231 -0.180089
C19   C     C_3   0.931905 0.320868 0.005769 -0.180090
C20   C     C_3   0.068095 0.320868 0.994231 -0.180085
C21   C     C_3   0.471900 0.821669 0.935672 0.050977
C22   C     C_3   0.528100 0.821670 0.064328 0.050982
C23   C     C_3   0.971900 0.321669 0.935672 0.050981
C24   C     C_3   0.186610 0.020067 0.954941 -0.198025
C25   C     C_3   0.028100 0.321670 0.064328 0.050983
C26   C     C_3   0.327393 0.556140 0.966385 0.143703
C27   C     C_3   0.672608 0.556140 0.033615 0.143713
C28   C     C_3   0.827393 0.056140 0.966385 0.143706
C29   C     C_3   0.172607 0.056140 0.033615 0.143711
C30   C     C_3   0.182917 0.517505 0.023639 -0.240564
C31   C     C_3   0.817083 0.517505 0.976360 -0.240565
C32   C     C_3   0.682917 0.017504 0.023639 -0.240564
C33   C     C_R   0.727391 0.041780 0.145539 0.532467
C34   C     C_3   0.317083 0.017505 0.976360 -0.240563
C35   C     C_3   0.244169 0.698885 0.054929 -0.262015
C36   C     C_3   0.755830 0.698885 0.945071 -0.262017
C37   C     C_3   0.744169 0.198885 0.054929 -0.262015
C38   C     C_3   0.255831 0.198885 0.945071 -0.262018
C39   C     C_3   0.242919 0.569050 0.069558 -0.003136
C40   C     C_3   0.757081 0.569050 0.930442 -0.003121
C41   C     C_3   0.742919 0.069050 0.069558 -0.003128
C42   C     C_3   0.257081 0.069050 0.930442 -0.003119
C43   C     C_3   0.258513 0.603450 0.931116 0.027963
C44   C     C_R   0.772609 0.541781 0.854460 0.532466
C45   C     C_3   0.741487 0.603450 0.068884 0.027973
C46   C     C_3   0.758513 0.103450 0.931116 0.027967
C47   C     C_3   0.241487 0.103450 0.068884 0.027970
C48   C     C_3   0.200528 0.514973 0.943485 -0.257800
C49   C     C_3   0.799473 0.514974 0.056515 -0.257796
C50   C     C_3   0.700528 0.014973 0.943485 -0.257799
C51   C     C_3   0.299473 0.014973 0.056515 -0.257797
C52   C     C_3   0.240108 0.716619 0.973159 -0.273522
C53   C     C_3   0.759892 0.716619 0.026841 -0.273524
C54   C     C_3   0.740108 0.216619 0.973159 -0.273524
C55   C     C_R   0.227391 0.541780 0.145539 0.532464
C56   C     C_3   0.259892 0.216619 0.026841 -0.273523
C57   C     C_3   0.501905 0.711011 0.460428 -0.293791
C58   C     C_3   0.498103 0.711010 0.539575 -0.293793
C59   C     C_3   0.001905 0.211011 0.460427 -0.293790
C60   C     C_3   0.998103 0.211010 0.539575 -0.293793
C61   C     C_R   0.444314 0.817298 0.861845 0.528887
C62   C     C_R   0.555686 0.817298 0.138155 0.528916
C63   C     C_R   0.944314 0.317298 0.861845 0.528884
C64   C     C_R   0.055685 0.317298 0.138155 0.528899
C65   C     C_3   0.572944 0.896871 0.486637 -0.205256
C66   C     C_3   0.519670 0.725946 0.964886 -0.068696
C67   C     C_3   0.427065 0.896871 0.513366 -0.205244
C68   C     C_3   0.072944 0.396870 0.486637 -0.205257
C69   C     C_3   0.927065 0.396871 0.513366 -0.205244
C70   C     C_3   0.454458 0.911214 0.436195 0.139726
C71   C     C_3   0.545551 0.911213 0.563808 0.139714
C72   C     C_3   0.954458 0.411214 0.436195 0.139725
C73   C     C_3   0.045551 0.411213 0.563808 0.139713
C74   C     C_3   0.520184 0.836426 0.433631 0.013466
C75   C     C_3   0.479826 0.836426 0.566372 0.013463
C76   C     C_3   0.020183 0.336426 0.433631 0.013464
C77   C     C_3   0.480330 0.725946 0.035114 -0.068697
C78   C     C_3   0.979826 0.336426 0.566372 0.013463
C79   C     C_3   0.199011 0.681142 0.448511 -0.224900
C80   C     C_3   0.800992 0.681141 0.551489 -0.224899
C81   C     C_3   0.699010 0.181142 0.448511 -0.224901
C82   C     C_3   0.300992 0.181141 0.551489 -0.224899
C83   C     C_3   0.217629 0.710938 0.524521 -0.230514
C84   C     C_3   0.782374 0.710936 0.475477 -0.230512
C85   C     C_3   0.717629 0.210938 0.524521 -0.230514
C86   C     C_3   0.282374 0.210936 0.475477 -0.230512
C87   C     C_3   0.234461 0.475186 0.467335 -0.230907
C88   C     C_3   0.019670 0.225946 0.964886 -0.068707
C89   C     C_3   0.765543 0.475185 0.532665 -0.230908
C90   C     C_3   0.734461 0.975186 0.467335 -0.230907
C91   C     C_3   0.265543 0.975185 0.532665 -0.230908
C92   C     C_3   0.322981 0.620937 0.443525 -0.267728
C93   C     C_3   0.677022 0.620935 0.556474 -0.267728
C94   C     C_3   0.822981 0.120937 0.443525 -0.267728
C95   C     C_3   0.177023 0.120935 0.556474 -0.267728
C96   C     C_3   0.247839 0.585284 0.423995 0.049773
C97   C     C_3   0.752164 0.585282 0.576005 0.049773
C98   C     C_3   0.747839 0.085284 0.423995 0.049774
C99   C     C_3   0.980330 0.225946 0.035114 -0.068708
C100  C     C_3   0.252163 0.085283 0.576005 0.049773
C101  C     C_3   0.258624 0.614524 0.563586 0.053879
C102  C     C_3   0.741380 0.614521 0.436413 0.053881
C103  C     C_3   0.758624 0.114524 0.563586 0.053879
C104  C     C_3   0.241380 0.114521 0.436413 0.053880
C105  C     C_3   0.225066 0.498143 0.547823 -0.251732
C106  C     C_3   0.774938 0.498140 0.452176 -0.251734
C107  C     C_3   0.725066 0.998143 0.547823 -0.251732
C108  C     C_3   0.274938 0.998140 0.452176 -0.251734
C109  C     C_R   0.262567 0.639638 0.854208 0.566195
C110  C     C_3   0.313390 0.520067 0.045059 -0.198005
C111  C     C_R   0.737433 0.639638 0.145792 0.566224
C112  C     C_R   0.762567 0.139638 0.854208 0.566192
C113  C     C_R   0.237433 0.139638 0.145792 0.566205
C114  C     C_3   0.331202 0.612268 0.527921 -0.244602
C115  C     C_3   0.668801 0.612266 0.472078 -0.244601
C116  C     C_3   0.831202 0.112268 0.527921 -0.244602
C117  C     C_3   0.168801 0.112266 0.472078 -0.244600
C118  C     C_R   0.269288 0.051325 0.650538 0.525313
C119  C     C_R   0.730713 0.051326 0.349461 0.525311
C120  C     C_R   0.769288 0.551325 0.650538 0.525313
Cr1   Cr    Cr6+3 0.229620 0.836040 0.749110 1.034080
Cr2   Cr    Cr6+3 0.613980 0.676590 0.250790 1.074495
Cr3   Cr    Cr6+3 0.886020 0.176590 0.749210 1.074734
Cr4   Cr    Cr6+3 0.113980 0.176590 0.250790 1.074628
Cr5   Cr    Cr6+3 0.770380 0.836040 0.250890 1.034084
Cr6   Cr    Cr6+3 0.729620 0.336040 0.749110 1.034077
Cr7   Cr    Cr6+3 0.270380 0.336040 0.250890 1.034082
Cr8   Cr    Cr6+3 0.387630 0.990680 0.750730 1.110977
Cr9   Cr    Cr6+3 0.612370 0.990680 0.249270 1.110969
Cr10  Cr    Cr6+3 0.887630 0.490680 0.750730 1.110982
Cr11  Cr    Cr6+3 0.112370 0.490680 0.249270 1.110977
Cr12  Cr    Cr6+3 0.386020 0.676590 0.749210 1.074707
H1    H     H_    0.377846 0.809397 0.018750 0.082083
H2    H     H_    0.708981 0.737459 0.920302 0.105459
H3    H     H_    0.216845 0.927263 0.538137 0.133888
H4    H     H_    0.248891 0.428424 0.580835 0.104173
H5    H     H_    0.751114 0.428421 0.419165 0.104169
H6    H     H_    0.748891 0.928424 0.580835 0.104174
H7    H     H_    0.251114 0.928421 0.419165 0.104171
H8    H     H_    0.313191 0.425145 0.050978 0.176048
H9    H     H_    0.686809 0.425145 0.949022 0.176025
H10   H     H_    0.813191 0.925145 0.050978 0.176044
H11   H     H_    0.186809 0.925145 0.949022 0.176032
H12   H     H_    0.355380 0.553116 0.080778 0.109342
H13   H     H_    0.791018 0.237459 0.079698 0.105464
H14   H     H_    0.644620 0.553115 0.919223 0.109298
H15   H     H_    0.855380 0.053115 0.080778 0.109313
H16   H     H_    0.144620 0.053116 0.919223 0.109290
H17   H     H_    0.363175 0.630768 0.968416 0.120043
H18   H     H_    0.636825 0.630767 0.031585 0.120054
H19   H     H_    0.863175 0.130768 0.968416 0.120045
H20   H     H_    0.136825 0.130768 0.031584 0.120050
H21   H     H_    0.668415 0.933664 0.045766 0.099366
H22   H     H_    0.331585 0.933664 0.954233 0.099364
H23   H     H_    0.168415 0.433664 0.045766 0.099365
H24   H     H_    0.208981 0.237459 0.920303 0.105461
H25   H     H_    0.831585 0.433664 0.954233 0.099364
H26   H     H_    0.717523 0.927198 0.927531 0.159194
H27   H     H_    0.282477 0.927198 0.072468 0.159200
H28   H     H_    0.217523 0.427198 0.927531 0.159194
H29   H     H_    0.782478 0.427198 0.072468 0.159208
H30   H     H_    0.448548 0.237371 0.450265 0.360823
H31   H     H_    0.551457 0.237370 0.549740 0.360829
H32   H     H_    0.948548 0.737371 0.450265 0.360826
H33   H     H_    0.051457 0.737370 0.549740 0.360830
H34   H     H_    0.470519 0.440989 0.861823 0.369957
H35   H     H_    0.273818 0.787328 0.957531 0.092860
H36   H     H_    0.529641 0.441132 0.138453 0.369979
H37   H     H_    0.970536 0.941000 0.861865 0.370016
H38   H     H_    0.029543 0.941061 0.138276 0.370005
H39   H     H_    0.726181 0.787328 0.042469 0.092859
H40   H     H_    0.773818 0.287328 0.957531 0.092860
H41   H     H_    0.226182 0.287328 0.042469 0.092856
H42   H     H_    0.186584 0.740381 0.958173 0.198784
H43   H     H_    0.813416 0.740381 0.041827 0.198794
H44   H     H_    0.686584 0.240380 0.958173 0.198777
H45   H     H_    0.622154 0.809397 0.981250 0.082083
H46   H     H_    0.313416 0.240381 0.041827 0.198800
H47   H     H_    0.636005 0.072070 0.029814 0.176164
H48   H     H_    0.363995 0.072070 0.970186 0.176165
H49   H     H_    0.136005 0.572070 0.029814 0.176163
H50   H     H_    0.863995 0.572070 0.970185 0.176164
H51   H     H_    0.154117 0.537100 0.910678 0.140150
H52   H     H_    0.845883 0.537101 0.089321 0.140150
H53   H     H_    0.654117 0.037100 0.910678 0.140149
H54   H     H_    0.345883 0.037100 0.089322 0.140155
H55   H     H_    0.536295 0.639004 0.445325 0.151581
H56   H     H_    0.877846 0.309397 0.018750 0.082082
H57   H     H_    0.463711 0.639006 0.554676 0.151586
H58   H     H_    0.036295 0.139004 0.445325 0.151583
H59   H     H_    0.963711 0.139006 0.554676 0.151587
H60   H     H_    0.452050 0.684459 0.436594 0.130260
H61   H     H_    0.547957 0.684456 0.563409 0.130259
H62   H     H_    0.952049 0.184459 0.436594 0.130261
H63   H     H_    0.047957 0.184456 0.563409 0.130260
H64   H     H_    0.617348 0.840624 0.493654 0.023278
H65   H     H_    0.382661 0.840624 0.506349 0.023274
H66   H     H_    0.117348 0.340624 0.493654 0.023278
H67   H     H_    0.122154 0.309397 0.981250 0.082083
H68   H     H_    0.882661 0.340624 0.506349 0.023274
H69   H     H_    0.583470 0.870608 0.601747 0.096765
H70   H     H_    0.416539 0.870608 0.398256 0.096772
H71   H     H_    0.083469 0.370608 0.601747 0.096765
H72   H     H_    0.916539 0.370608 0.398256 0.096772
H73   H     H_    0.464589 0.996847 0.065031 0.143424
H74   H     H_    0.535411 0.996846 0.934969 0.143414
H75   H     H_    0.964589 0.496847 0.065031 0.143416
H76   H     H_    0.035411 0.496846 0.934969 0.143411
H77   H     H_    0.409874 0.980703 0.534835 0.215486
H78   H     H_    0.199493 0.738368 0.079357 0.253055
H79   H     H_    0.590133 0.980704 0.465168 0.215482
H80   H     H_    0.909874 0.480703 0.534835 0.215485
H81   H     H_    0.090133 0.480703 0.465168 0.215483
H82   H     H_    0.145672 0.650808 0.445408 0.239190
H83   H     H_    0.854330 0.650808 0.554593 0.239187
H84   H     H_    0.645672 0.150807 0.445408 0.239189
H85   H     H_    0.354330 0.150808 0.554593 0.239187
H86   H     H_    0.201775 0.758756 0.413110 0.118187
H87   H     H_    0.798226 0.758755 0.586889 0.118191
H88   H     H_    0.701774 0.258756 0.413110 0.118183
H89   H     H_    0.800506 0.738369 0.920643 0.253049
H90   H     H_    0.298226 0.258756 0.586889 0.118190
H91   H     H_    0.256642 0.774495 0.517371 0.107335
H92   H     H_    0.743362 0.774494 0.482626 0.107334
H93   H     H_    0.756642 0.274495 0.517371 0.107335
H94   H     H_    0.243362 0.274494 0.482626 0.107334
H95   H     H_    0.173097 0.747518 0.552494 0.189006
H96   H     H_    0.826907 0.747512 0.447505 0.189007
H97   H     H_    0.673097 0.247517 0.552494 0.189006
H98   H     H_    0.326908 0.247512 0.447505 0.189007
H99   H     H_    0.693735 0.922896 0.442067 0.102809
H100  H     H_    0.699493 0.238368 0.079357 0.253055
H101  H     H_    0.306271 0.922896 0.557932 0.102808
H102  H     H_    0.193734 0.422896 0.442067 0.102807
H103  H     H_    0.806270 0.422896 0.557932 0.102808
H104  H     H_    0.670867 0.002836 0.561267 0.191974
H105  H     H_    0.329138 0.002834 0.438733 0.191973
H106  H     H_    0.170866 0.502837 0.561267 0.191975
H107  H     H_    0.829138 0.502835 0.438733 0.191972
H108  H     H_    0.360006 0.561184 0.417579 0.128856
H109  H     H_    0.639997 0.561182 0.582420 0.128861
H110  H     H_    0.860006 0.061185 0.417579 0.128860
H111  H     H_    0.300507 0.238369 0.920643 0.253045
H112  H     H_    0.139997 0.061182 0.582420 0.128862
H113  H     H_    0.332770 0.711160 0.424246 0.109784
H114  H     H_    0.667234 0.711158 0.575753 0.109784
H115  H     H_    0.832769 0.211160 0.424246 0.109785
H116  H     H_    0.167234 0.211158 0.575753 0.109784
H117  H     H_    0.537164 0.646686 0.936470 0.180523
H118  H     H_    0.462836 0.646686 0.063530 0.180589
H119  H     H_    0.037164 0.146686 0.936470 0.180505
H120  H     H_    0.962836 0.146686 0.063530 0.180538
H121  H     H_    0.360117 0.685139 0.550385 0.124520
H122  H     H_    0.291018 0.737459 0.079698 0.105459
H123  H     H_    0.639887 0.685139 0.449614 0.124522
H124  H     H_    0.860117 0.185140 0.550386 0.124519
H125  H     H_    0.139887 0.185139 0.449614 0.124518
H126  H     H_    0.359346 0.530873 0.543005 0.132496
H127  H     H_    0.640657 0.530871 0.456994 0.132491
H128  H     H_    0.859346 0.030873 0.543005 0.132498
H129  H     H_    0.140657 0.030872 0.456994 0.132495
H130  H     H_    0.283159 0.427264 0.461863 0.133888
H131  H     H_    0.716845 0.427263 0.538136 0.133887
H132  H     H_    0.783160 0.927264 0.461863 0.133888
O1    O     O_R   0.214130 0.708570 0.829890 -0.520926
O2    O     O_R   0.542830 0.717300 0.331620 -0.536723
O3    O     O_R   0.957170 0.217300 0.668380 -0.536698
O4    O     O_R   0.042830 0.217300 0.331620 -0.536705
O5    O     O_R   0.320870 0.624890 0.673130 -0.514644
O6    O     O_R   0.679130 0.624890 0.326870 -0.514665
O7    O     O_R   0.820870 0.124890 0.673130 -0.514640
O8    O     O_R   0.179130 0.124890 0.326870 -0.514653
O9    O     O_3   0.334430 0.834430 0.749680 -0.338582
O10   O     O_3   0.665570 0.834430 0.250320 -0.338564
O11   O     O_3   0.834430 0.334430 0.749680 -0.338585
O12   O     O_R   0.785870 0.708570 0.170110 -0.520914
O13   O     O_3   0.165570 0.334430 0.250320 -0.338579
O14   O     O_R   0.236050 0.959150 0.825270 -0.522076
O15   O     O_R   0.763950 0.959150 0.174730 -0.522071
O16   O     O_R   0.736050 0.459150 0.825270 -0.522076
O17   O     O_R   0.263950 0.459150 0.174730 -0.522070
O18   O     O_R   0.332100 0.076650 0.832310 -0.494894
O19   O     O_R   0.667900 0.076650 0.167690 -0.494896
O20   O     O_R   0.832100 0.576650 0.832310 -0.494891
O21   O     O_R   0.167900 0.576650 0.167690 -0.494893
O22   O     O_R   0.446500 0.918620 0.826240 -0.494933
O23   O     O_R   0.714130 0.208570 0.829890 -0.520927
O24   O     O_R   0.553500 0.918620 0.173760 -0.494918
O25   O     O_R   0.946500 0.418620 0.826240 -0.494935
O26   O     O_R   0.053500 0.418620 0.173760 -0.494927
O27   O     O_R   0.457310 0.715830 0.831280 -0.467417
O28   O     O_R   0.542690 0.715830 0.168720 -0.467519
O29   O     O_R   0.957310 0.215830 0.831280 -0.467404
O30   O     O_R   0.042690 0.215830 0.168720 -0.467453
O31   O     O_R   0.321000 0.623520 0.824130 -0.432912
O32   O     O_R   0.679000 0.623520 0.175870 -0.432983
O33   O     O_R   0.821000 0.123520 0.824130 -0.432900
O34   O     O_R   0.285870 0.208570 0.170110 -0.520912
O35   O     O_R   0.179000 0.123520 0.175870 -0.432937
O36   O     O_R   0.213990 0.710040 0.667000 -0.476426
O37   O     O_R   0.786010 0.710040 0.333000 -0.476427
O38   O     O_R   0.713990 0.210040 0.667000 -0.476427
O39   O     O_R   0.286010 0.210040 0.333000 -0.476432
O40   O     O_R   0.235920 0.960520 0.674260 -0.521334
O41   O     O_R   0.764080 0.960520 0.325740 -0.521332
O42   O     O_R   0.735920 0.460520 0.674260 -0.521335
O43   O     O_R   0.264080 0.460520 0.325740 -0.521337
O44   O     O_R   0.331960 0.078120 0.669410 -0.493589
O45   O     O_R   0.446360 0.919990 0.675230 -0.421390
O46   O     O_R   0.668040 0.078120 0.330590 -0.493595
O47   O     O_R   0.831960 0.578120 0.669410 -0.493588
O48   O     O_R   0.168040 0.578120 0.330590 -0.493589
O49   O     O_2   0.530383 0.104110 0.384645 -0.250107
O50   O     O_2   0.413011 0.078800 0.341978 -0.280307
O51   O     O_3   0.436333 0.159029 0.468830 -0.545727
O52   O     O_2   0.469624 0.104108 0.615358 -0.250093
O53   O     O_2   0.586996 0.078798 0.658027 -0.280301
O54   O     O_3   0.563675 0.159029 0.531176 -0.545728
O55   O     O_2   0.030383 0.604110 0.384645 -0.250099
O56   O     O_R   0.553640 0.919990 0.324770 -0.421375
O57   O     O_2   0.913011 0.578800 0.341977 -0.280305
O58   O     O_3   0.936333 0.659029 0.468830 -0.545727
O59   O     O_2   0.969624 0.604108 0.615358 -0.250090
O60   O     O_2   0.086995 0.578798 0.658027 -0.280300
O61   O     O_3   0.063675 0.659029 0.531175 -0.545727
O62   O     O_2   0.397467 0.347656 0.967455 -0.330702
O63   O     O_2   0.334080 0.398237 0.856054 -0.310419
O64   O     O_3   0.446850 0.505506 0.886716 -0.495203
O65   O     O_2   0.602533 0.347652 0.032550 -0.330558
O66   O     O_2   0.665927 0.398240 0.143945 -0.310616
O67   O     O_R   0.946360 0.419990 0.675230 -0.421391
O68   O     O_3   0.553150 0.505504 0.113284 -0.495256
O69   O     O_2   0.897466 0.847656 0.967456 -0.330782
O70   O     O_2   0.834081 0.898236 0.856054 -0.310373
O71   O     O_3   0.946851 0.005507 0.886716 -0.495301
O72   O     O_2   0.102533 0.847654 0.032547 -0.330711
O73   O     O_2   0.165922 0.898238 0.143945 -0.310476
O74   O     O_3   0.053150 0.005506 0.113284 -0.495293
O75   O     O_R   0.053640 0.419990 0.324770 -0.421380
O76   O     O_R   0.457170 0.717300 0.668380 -0.536702
S1    S     S_3+6 0.460288 0.064840 0.405926 0.004050
S2    S     S_3+6 0.539719 0.064838 0.594078 0.004057
S3    S     S_3+6 0.960288 0.564840 0.405926 0.004055
S4    S     S_3+6 0.039719 0.564838 0.594078 0.004059
S5    S     S_3+6 0.375250 0.445500 0.918535 -0.023815
S6    S     S_3+6 0.624752 0.445499 0.081466 -0.023853
S7    S     S_3+6 0.875250 0.945500 0.918535 -0.023847
S8    S     S_3+6 0.124751 0.945500 0.081465 -0.023866

loop_
_geom_bond_atom_site_label_1
_geom_bond_atom_site_label_2
_ccdc_geom_bond_type
H37   O71   S    
C37   H100  S    
C9    O6    A    
C33   O19   A    
C113  O34   A    
C46   C112  S    
C71   S2    S    
C11   O8    A    
C34   C42   S    
O59   S4    D    
C14   C21   S    
C90   C107  S    
Cr2   O10   S    
C81   H84   S    
C72   S3    S    
C54   H44   S    
C5    C74   S    
Cr9   O19   S    
C36   C53   S    
Cr10  O67   S    
C18   H45   S    
C89   C106  S    
C70   C74   S    
C35   H122  S    
C91   C100  S    
C94   H115  S    
C85   C103  S    
C83   H91   S    
C59   C60   S    
Cr9   O10   S    
C85   H97   S    
C57   H60   S    
Cr1   O1    S    
O58   S3    S    
Cr11  O21   S    
C19   C99   S    
C61   O27   A    
C81   H88   S    
Cr4   O4    S    
C17   C21   S    
C19   C23   S    
C19   H56   S    
C49   H52   S    
O63   S5    D    
C16   C20   S    
C85   H93   S    
C13   H10   S    
C26   S5    S    
C68   H81   S    
C87   H130  S    
C31   H25   S    
Cr4   O35   S    
C10   O7    A    
C14   H74   S    
C17   H1    S    
C120  O47   A    
H34   O64   S    
C104  C117  S    
C116  H124  S    
C66   C77   S    
C18   C66   S    
O55   S3    D    
C26   H17   S    
H36   O68   S    
C10   O38   A    
C45   C111  S    
C82   H90   S    
C58   H61   S    
C12   H73   S    
C107  H6    S    
C103  C116  S    
C79   C96   S    
C115  H127  S    
Cr7   O34   S    
O64   S5    S    
C67   H77   S    
C62   O24   A    
Cr8   O9    S    
C57   H55   S    
C88   C99   S    
O53   S2    D    
C65   C74   S    
C2    C40   S    
C108  H105  S    
C81   C98   S    
C55   O17   A    
C103  C107  S    
C77   H118  S    
O68   S6    S    
C70   H70   S    
Cr8   O44   S    
C80   C97   S    
C84   C102  S    
C3    O48   A    
Cr8   O18   S    
C86   C104  S    
C56   H46   S    
C50   H26   S    
C38   H111  S    
C48   H28   S    
C28   C46   S    
C34   C51   S    
C29   C47   S    
C30   C48   S    
C43   C52   S    
C15   C25   S    
C24   H11   S    
C12   C22   S    
C63   O29   A    
Cr1   O36   S    
C64   O26   A    
C8    O36   A    
C119  O46   A    
C32   C41   S    
C89   H131  S    
C90   H132  S    
C49   H29   S    
C65   H64   S    
Cr5   O37   S    
C45   C53   S    
Cr3   O33   S    
Cr4   O30   S    
Cr3   O11   S    
O57   S3    D    
C60   C78   S    
C92   C96   S    
C54   H40   S    
C109  O1    A    
Cr2   O6    S    
C106  H5    S    
C109  O31   A    
C111  O12   A    
C29   S8    S    
C62   O28   A    
Cr8   O45   S    
C25   C64   S    
O72   S8    D    
C69   C72   S    
C87   C105  S    
Cr12  O27   S    
C61   O22   A    
C2    C27   S    
C16   C23   S    
C23   C88   S    
O60   S4    D    
C67   C75   S    
C13   H15   S    
Cr3   O29   S    
O50   S1    D    
C93   C97   S    
C6    O3    A    
Cr2   O2    S    
C27   S6    S    
Cr3   O7    S    
C92   H108  S    
C119  O41   A    
C18   C22   S    
O71   S7    S    
C36   H2    S    
C108  H7    S    
C7    C76   S    
O70   S7    D    
C27   H18   S    
C91   H101  S    
C67   C70   S    
O66   S6    D    
C51   H54   S    
C93   H109  S    
C57   C58   S    
C44   O16   A    
C82   H85   S    
Cr12  O9    S    
Cr10  O25   S    
O49   S1    D    
C30   C39   S    
C37   C41   S    
Cr9   O56   S    
C40   C44   S    
C38   C56   S    
C28   H19   S    
C43   C109  S    
C59   C76   S    
C15   H75   S    
C60   H63   S    
C47   C56   S    
C107  H104  S    
C52   H42   S    
C24   C42   S    
C34   H48   S    
C80   C84   S    
C80   H87   S    
C13   C41   S    
Cr2   O32   S    
C15   C19   S    
O54   S2    S    
C53   H43   S    
C10   C103  S    
C35   H78   S    
O65   S6    D    
C52   H35   S    
C21   C66   S    
C20   C25   S    
C94   C98   S    
C44   O20   A    
C55   O21   A    
C31   C40   S    
C24   C29   S    
C4    C75   S    
C102  C115  S    
O73   S8    D    
C25   C99   S    
C79   H82   S    
C39   C55   S    
C9    C102  S    
C12   C17   S    
C69   H68   S    
C13   C28   S    
C11   C104  S    
C112  O23   A    
C83   C101  S    
C8    C101  S    
C21   C61   S    
C95   H112  S    
C72   H72   S    
C117  H129  S    
C27   C45   S    
C23   C63   S    
C5    O2    A    
C113  O35   A    
C92   H113  S    
C101  C114  S    
C31   C49   S    
C80   H83   S    
Cr5   O10   S    
C34   H22   S    
Cr1   O40   S    
C86   H98   S    
Cr1   O14   S    
C84   H92   S    
Cr12  O5    S    
O52   S2    D    
C95   C100  S    
C47   C51   S    
Cr4   O8    S    
C82   C86   S    
C95   C117  S    
C35   C39   S    
C73   H71   S    
Cr6   O38   S    
C45   C49   S    
Cr7   O43   S    
C46   C54   S    
C17   C77   S    
Cr2   O28   S    
C6    O67   A    
C69   H80   S    
Cr7   O13   S    
C110  H12   S    
O61   S4    S    
C88   H119  S    
C30   H23   S    
C31   H50   S    
C30   H49   S    
C100  C118  S    
C104  C108  S    
C47   C113  S    
C114  H121  S    
O69   S7    D    
C94   C116  S    
C91   C108  S    
C22   C77   S    
C99   H120  S    
C67   H65   S    
C48   H51   S    
Cr4   O13   S    
Cr6   O42   S    
Cr11  O48   S    
Cr12  O31   S    
C56   H41   S    
C33   C41   S    
C1    O14   A    
C79   C83   S    
C89   H103  S    
C20   C88   S    
H30   O51   S    
Cr1   O9    S    
Cr11  O13   S    
C6    C78   S    
C93   H114  S    
C53   H39   S    
C32   H21   S    
Cr3   O3    S    
C1    C42   S    
C91   H3    S    
C35   C52   S    
C120  O42   A    
C59   H58   S    
C5    O56   A    
C58   C75   S    
Cr5   O12   S    
Cr6   O11   S    
C73   S4    S    
C14   C18   S    
C4    O76   A    
C38   H24   S    
C72   C76   S    
C98   C119  S    
C83   H95   S    
C87   H102  S    
C38   C42   S    
H31   O54   S    
Cr7   O39   S    
C1    O18   A    
C4    O45   A    
C15   C16   S    
O74   S8    S    
C68   H66   S    
C93   C115  S    
Cr10  O20   S    
C39   C110  S    
C118  O44   A    
C105  H106  S    
C32   H47   S    
C3    C96   S    
H33   O61   S    
C43   C48   S    
C26   C110  S    
H38   O74   S    
C66   H117  S    
Cr6   O23   S    
Cr5   O41   S    
C69   C78   S    
C26   C43   S    
C28   S7    S    
Cr10  O47   S    
C59   H62   S    
C101  C105  S    
H32   O58   S    
C36   C40   S    
C24   H16   S    
C79   H86   S    
Cr5   O15   S    
C68   C73   S    
C65   C71   S    
C70   S1    S    
Cr6   O16   S    
C89   C97   S    
C57   C74   S    
C7    O75   A    
O51   S1    S    
C20   H67   S    
C9    O37   A    
C8    O5    A    
C95   H116  S    
C22   C62   S    
C117  H125  S    
C11   O39   A    
C73   C78   S    
C87   C96   S    
C58   H57   S    
C118  O40   A    
C68   C76   S    
C114  H126  S    
C32   C50   S    
C105  H4    S    
C37   C54   S    
C12   C14   S    
C86   H94   S    
C90   H99   S    
O62   S5    D    
C84   H96   S    
C33   O15   A    
C71   H69   S    
C111  O32   A    
Cr11  O26   S    
C82   C100  S    
Cr9   O24   S    
C16   H76   S    
C116  H128  S    
Cr9   O46   S    
C2    H14   S    
C46   C50   S    
C112  O33   A    
Cr12  O76   S    
C106  H107  S    
Cr7   O17   S    
C97   C120  S    
C110  H8    S    
C94   H110  S    
Cr8   O22   S    
C29   H20   S    
C71   C75   S    
C60   H59   S    
C36   H89   S    
C51   H27   S    
C102  C106  S    
Cr11  O75   S    
C7    O4    A    
C81   C85   S    
C65   H79   S    
C115  H123  S    
C63   O25   A    
C2    H9    S    
C3    O43   A    
C64   O30   A    
C37   H13   S    
Cr10  O11   S    
C50   H53   S    
C92   C114  S    
C90   C98   S    
