data_str_m12_o4_o9_f0_bcu.sym.77
_audit_creation_date              2012-12-11T17:10:38-0500
_audit_creation_method            fapswitch 2.2
_symmetry_space_group_name_H-M    P1
_symmetry_Int_Tables_number       1
_space_group_crystal_system       triclinic
_cell_length_a                    14.795548
_cell_length_b                    14.898233
_cell_length_c                    14.836339
_cell_angle_alpha                 109.338339
_cell_angle_beta                  109.859021
_cell_angle_gamma                 109.088292
_cell_volume                      2521.38707451

loop_
_atom_site_label
_atom_site_type_symbol
_atom_type_description
_atom_site_fract_x
_atom_site_fract_y
_atom_site_fract_z
_atom_type_partial_charge
C1    C     C_R   0.185430 0.278940 0.253794 -0.142314
C2    C     C_R   0.447510 0.447405 0.773397 0.071490
C3    C     C_R   0.573428 0.200992 0.499672 0.039743
C4    C     C_R   0.198105 0.571128 0.496310 0.067218
C5    C     C_R   0.472250 0.719939 0.405382 -0.144479
C6    C     C_R   0.815508 0.566052 0.592808 -0.123151
C7    C     C_R   0.494217 0.402640 0.195335 -0.161177
C8    C     C_R   0.707281 0.799233 0.803369 -0.166001
C9    C     C_R   0.801685 0.710358 0.805188 -0.116708
C10   C     C_R   0.403806 0.495214 0.194395 -0.140472
C11   C     C_R   0.563707 0.814974 0.590099 -0.130620
C12   C     C_R   0.521234 0.429690 0.743017 -0.165553
C13   C     C_R   0.723088 0.476434 0.408390 -0.121065
C14   C     C_R   0.546049 0.823365 0.495404 0.067503
C15   C     C_R   0.827005 0.555059 0.501028 0.048553
C16   C     C_R   0.433024 0.432420 0.130600 0.080755
C17   C     C_R   0.802339 0.803454 0.868037 0.077491
C18   C     C_R   0.098093 0.596170 0.180724 -0.131016
C19   C     C_R   0.100477 0.621918 0.281413 -0.147235
C20   C     C_R   0.019461 0.546820 0.288235 0.115176
C21   C     C_R   0.935180 0.446508 0.192359 -0.182892
C22   C     C_R   0.933186 0.421231 0.091902 -0.101789
C23   C     C_R   0.508255 0.202983 0.408965 -0.236478
C24   C     C_R   0.014612 0.495911 0.086119 -0.094625
C25   C     C_R   0.928247 0.568305 0.399086 -0.232675
C26   C     C_R   0.930584 0.605411 0.500185 0.054538
C27   C     C_R   0.034356 0.675485 0.598463 0.032176
C28   C     C_R   0.126598 0.672246 0.595220 -0.235413
C29   C     C_R   0.117460 0.609899 0.494525 0.054633
C30   C     C_R   0.022651 0.574274 0.395226 0.030468
C31   C     C_R   0.997797 0.821139 0.694431 -0.142168
C32   C     C_R   0.015793 0.902415 0.790369 -0.100713
C33   C     C_R   0.086127 0.921551 0.893726 -0.084839
C34   C     C_R   0.291208 0.598455 0.589210 -0.134053
C35   C     C_R   0.136855 0.857970 0.901394 -0.124476
C36   C     C_R   0.119036 0.776381 0.805624 -0.175867
C37   C     C_R   0.049714 0.757561 0.701005 0.110813
C38   C     C_R   0.445847 0.342308 0.873222 0.158634
C39   C     C_R   0.401855 0.398142 0.829141 0.034721
C40   C     C_R   0.329547 0.424271 0.859438 -0.199747
C41   C     C_R   0.326815 0.421866 0.952087 -0.206714
C42   C     C_R   0.395735 0.392431 0.013286 0.032932
C43   C     C_R   0.442365 0.339167 0.963887 0.164914
C44   C     C_3   0.554181 0.348800 0.012013 -0.525173
C45   C     C_R   0.603554 0.295320 0.591801 0.334271
C46   C     C_3   0.558600 0.352909 0.913498 -0.512930
C47   C     C_R   0.534273 0.920799 0.389359 0.166459
C48   C     C_R   0.588575 0.921884 0.487814 0.039316
C49   C     C_R   0.672337 0.022978 0.581996 -0.217785
C50   C     C_R   0.680869 0.119907 0.583526 -0.203000
C51   C     C_R   0.604213 0.115309 0.491294 0.047207
C52   C     C_R   0.541830 0.016045 0.391151 0.159175
C53   C     C_3   0.422952 0.958210 0.302596 -0.522938
C54   C     C_3   0.414808 0.854204 0.300886 -0.531121
C55   C     C_R   0.967681 0.074773 0.120911 0.167467
C56   C     C_R   0.199456 0.504341 0.406774 -0.154879
C57   C     C_R   0.067404 0.074889 0.168112 0.027996
C58   C     C_R   0.063264 0.973111 0.141413 -0.219211
C59   C     C_R   0.968807 0.877588 0.048930 -0.198367
C60   C     C_R   0.879039 0.884675 0.984740 0.027042
C61   C     C_R   0.874619 0.980674 0.030593 0.165166
C62   C     C_3   0.838174 0.042392 0.978574 -0.534584
C63   C     C_3   0.940064 0.145291 0.076832 -0.523297
C64   C     C_R   0.434118 0.526639 0.749836 -0.119021
C65   C     C_R   0.276158 0.185049 0.249272 -0.131697
C66   C     C_R   0.172709 0.175385 0.224085 0.064899
H1    H     H_    0.123692 0.302640 0.250725 0.112496
H2    H     H_    0.878424 0.616126 0.678699 0.117522
H3    H     H_    0.513127 0.338108 0.167294 0.102309
H4    H     H_    0.670442 0.846244 0.830876 0.105037
H5    H     H_    0.854923 0.679222 0.834849 0.091509
H6    H     H_    0.342091 0.518016 0.165282 0.086184
H7    H     H_    0.617337 0.880097 0.675055 0.095493
H8    H     H_    0.700366 0.445614 0.322710 0.093170
H9    H     H_    0.012965 0.476117 0.008290 0.101750
H10   H     H_    0.160967 0.653916 0.175999 0.109982
H11   H     H_    0.165698 0.699856 0.354124 0.113818
H12   H     H_    0.543481 0.367765 0.741904 0.137393
H13   H     H_    0.872107 0.387360 0.195738 0.110905
H14   H     H_    0.868632 0.343593 0.018565 0.115002
H15   H     H_    0.852396 0.531244 0.322468 0.122341
H16   H     H_    0.204578 0.716963 0.671483 0.118538
H17   H     H_    0.944477 0.808735 0.615041 0.116232
H18   H     H_    0.975916 0.951230 0.784635 0.109451
H19   H     H_    0.101357 0.985814 0.967815 0.123161
H20   H     H_    0.190541 0.872370 0.981665 0.106377
H21   H     H_    0.158979 0.727877 0.813221 0.106436
H22   H     H_    0.286930 0.460113 0.821980 0.126184
H23   H     H_    0.487345 0.155165 0.324791 0.124330
H24   H     H_    0.282046 0.455859 0.982441 0.123613
H25   H     H_    0.617465 0.426784 0.090751 0.201433
H26   H     H_    0.550127 0.273447 0.013370 0.188977
H27   H     H_    0.624537 0.433473 0.937223 0.207031
H28   H     H_    0.557806 0.280246 0.858616 0.192068
H29   H     H_    0.722534 0.027293 0.657736 0.128304
H30   H     H_    0.740008 0.194581 0.660412 0.153387
H31   H     H_    0.370867 0.983677 0.331971 0.202984
H32   H     H_    0.413798 0.957454 0.224755 0.185430
H33   H     H_    0.358419 0.820797 0.329676 0.199238
H34   H     H_    0.324782 0.659813 0.673326 0.084046
H35   H     H_    0.400951 0.793920 0.222108 0.188260
H36   H     H_    0.136525 0.968448 0.181302 0.130822
H37   H     H_    0.972570 0.802712 0.020812 0.133039
H38   H     H_    0.839949 0.024525 0.900385 0.197111
H39   H     H_    0.760400 0.038207 0.974601 0.190732
H40   H     H_    0.999206 0.185321 0.053699 0.200780
H41   H     H_    0.920760 0.200453 0.128906 0.194125
H42   H     H_    0.147731 0.475000 0.320875 0.120175
H43   H     H_    0.381211 0.559471 0.761152 0.091730
H44   H     H_    0.297432 0.120935 0.238021 0.094601
H45   H     H_    0.443203 0.695493 0.319505 0.110403
N1    N     N_R   0.291070 0.347930 0.293870 -0.039610
N2    N     N_R   0.708930 0.502750 0.556810 -0.038727
N3    N     N_R   0.502760 0.445970 0.293860 -0.037415
N4    N     N_R   0.652110 0.708890 0.706130 -0.038287
N5    N     N_R   0.708930 0.652070 0.706130 -0.040949
N6    N     N_R   0.445950 0.502780 0.293850 -0.037871
N7    N     N_R   0.502760 0.708900 0.556790 -0.039425
N8    N     N_R   0.652110 0.445950 0.443190 -0.039611
N9    N     N_R   0.554050 0.497220 0.706150 -0.040096
N10   N     N_R   0.497240 0.291100 0.443210 -0.050083
N11   N     N_R   0.347890 0.554050 0.556810 -0.038452
N12   N     N_R   0.554050 0.347900 0.556830 -0.055045
N13   N     N_R   0.291070 0.497250 0.443190 -0.039649
N14   N     N_R   0.497240 0.554030 0.706140 -0.039426
N15   N     N_R   0.347890 0.291110 0.293870 -0.036429
N16   N     N_R   0.445950 0.652100 0.443170 -0.038862
Ni1   Ni    Ni4+2 0.369690 0.500010 0.369700 0.212500
Ni2   Ni    Ni4+2 0.630310 0.499990 0.630300 0.209283
Ni3   Ni    Ni4+2 0.500000 0.369720 0.369720 0.205876
Ni4   Ni    Ni4+2 0.500000 0.630280 0.630280 0.207107
C67   C     C_3   0.702452 0.353233 0.704962 -1.120736
H46   H     H_    0.688371 0.307437 0.749042 0.250573
H47   H     H_    0.777541 0.363897 0.698786 0.256523
H48   H     H_    0.718366 0.436832 0.754401 0.260391

loop_
_geom_bond_atom_site_label_1
_geom_bond_atom_site_label_2
_ccdc_geom_bond_type
C41   C42   A    
C54   H35   S    
C3    C23   A    
C35   C36   A    
N10   Ni3   S    
C2    C12   A    
C64   H43   S    
C23   N10   A    
C62   H39   S    
C20   C30   S    
C53   C54   S    
C45   N12   A    
C28   C29   A    
C26   C27   A    
C62   C63   S    
N2    Ni2   S    
C18   C24   A    
C56   N13   A    
C7    N3    A    
C36   C37   A    
C1    N1    A    
C38   C39   A    
N4    Ni4   S    
C35   H20   S    
N15   Ni3   S    
N4    N5    A    
N8    Ni3   S    
C31   H17   S    
C18   C19   A    
C19   H11   S    
C33   H19   S    
C56   H42   S    
N7    Ni4   S    
C8    N4    A    
C1    H1    S    
C6    C15   A    
C12   N9    A    
C2    C39   S    
N5    Ni2   S    
C47   C48   A    
N1    Ni1   S    
C44   C46   S    
C67   H46   S    
C12   H12   S    
C34   H34   S    
C23   H23   S    
C58   H36   S    
C57   C66   S    
N1    N15   A    
C4    C29   S    
C44   H26   S    
N13   Ni1   S    
C6    H2    S    
C41   H24   S    
C59   C60   A    
C34   N11   A    
N2    N8    A    
C21   C22   A    
C4    C56   A    
C25   H15   S    
N3    Ni3   S    
C21   H13   S    
C13   N8    A    
C2    C64   A    
C1    C66   A    
C62   H38   S    
C36   H21   S    
C32   H18   S    
C4    C34   A    
N10   N12   A    
C28   H16   S    
N9    Ni2   S    
C11   H7    S    
C11   C14   A    
C3    C51   S    
N9    N14   A    
C15   C26   S    
C14   C48   S    
C5    H45   S    
C53   H31   S    
C58   C59   A    
C3    C45   A    
C51   C52   A    
C55   C63   S    
C60   C61   A    
C43   C44   S    
C6    N2    A    
C29   C30   A    
N14   Ni4   S    
C31   C32   A    
C46   H28   S    
C5    N16   A    
C50   C51   A    
C49   H29   S    
C63   H40   S    
C5    C14   A    
C44   H25   S    
C47   C54   S    
C9    C17   A    
C40   C41   A    
C65   C66   A    
C13   C15   A    
C49   C50   A    
C22   C24   A    
C54   H33   S    
C42   C43   A    
C63   H41   S    
N16   Ni1   S    
C16   C42   S    
N11   Ni4   S    
C39   C40   A    
C52   C53   S    
C25   C30   A    
C7    C16   A    
C18   H10   S    
C9    N5    A    
C9    H5    S    
C7    H3    S    
C24   H9    S    
C47   C52   A    
C53   H32   S    
C8    H4    S    
C8    C17   A    
C59   H37   S    
C32   C33   A    
C40   H22   S    
C19   C20   A    
C55   C57   A    
C25   C26   A    
C22   H14   S    
C38   C43   A    
C10   N6    A    
C10   C16   A    
C65   N15   A    
C50   H30   S    
C57   C58   A    
C46   H27   S    
C27   C37   S    
C67   H48   S    
C48   C49   A    
C55   C61   A    
C33   C35   A    
C61   C62   S    
N6    Ni1   S    
C65   H44   S    
C38   C46   S    
N3    N6    A    
C17   C60   S    
C31   C37   A    
C20   C21   A    
C45   C67   S    
C67   H47   S    
C64   N14   A    
N7    N16   A    
C27   C28   A    
C11   N7    A    
N11   N13   A    
N12   Ni2   S    
C13   H8    S    
C10   H6    S    
