data_str_m12_o9_o24_f0_bcu.sym.47
_audit_creation_date              2012-12-11T17:47:29-0500
_audit_creation_method            fapswitch 2.2
_symmetry_space_group_name_H-M    P1
_symmetry_Int_Tables_number       1
_space_group_crystal_system       triclinic
_cell_length_a                    14.812715
_cell_length_b                    14.862102
_cell_length_c                    15.083793
_cell_angle_alpha                 110.08102
_cell_angle_beta                  108.855204
_cell_angle_gamma                 108.651566
_cell_volume                      2581.62194403

loop_
_atom_site_label
_atom_site_type_symbol
_atom_type_description
_atom_site_fract_x
_atom_site_fract_y
_atom_site_fract_z
_atom_type_partial_charge
C1    C     C_R   0.980176 0.258191 0.069883 -0.129906
C2    C     C_R   0.049353 0.132699 0.155231 -0.239335
C3    C     C_R   0.373051 0.210768 0.983742 -0.104823
C4    C     C_R   0.816111 0.952200 0.226558 -0.126458
C5    C     C_R   0.277158 0.155395 0.983373 -0.178527
C6    C     C_R   0.914654 0.998189 0.227012 -0.168865
C7    C     C_R   0.619292 0.217266 0.095661 -0.110193
C8    C     C_R   0.311725 0.688064 0.782702 -0.132329
C9    C     C_R   0.688409 0.315455 0.194284 -0.152065
C10   C     C_R   0.203313 0.621337 0.700923 -0.114754
C11   C     C_R   0.750708 0.315315 0.286890 0.116164
C12   C     C_R   0.082117 0.800153 0.995317 -0.155494
C13   C     C_R   0.137224 0.667913 0.673872 0.122791
C14   C     C_R   0.735022 0.214093 0.280604 -0.164558
C15   C     C_R   0.181765 0.782363 0.728405 -0.199884
C16   C     C_R   0.314985 0.764209 0.224365 0.055049
C17   C     C_R   0.706129 0.195488 0.797133 0.027446
C18   C     C_R   0.661197 0.115996 0.183188 -0.104735
C19   C     C_R   0.290252 0.848866 0.811253 -0.113570
C20   C     C_R   0.604654 0.117793 0.090403 -0.094535
C21   C     C_R   0.355053 0.801584 0.838408 -0.096364
C22   C     C_R   0.849150 0.427301 0.485936 -0.246930
C23   C     C_R   0.323486 0.792893 0.326043 0.011804
C24   C     C_R   0.003294 0.597916 0.490371 -0.234683
C25   C     C_R   0.943355 0.511054 0.582396 0.068775
C26   C     C_R   0.918137 0.506649 0.391412 0.061456
C27   C     C_R   0.023015 0.595935 0.584328 0.010024
C28   C     C_R   0.838093 0.419431 0.387927 0.026325
C29   C     C_R   0.262704 0.202577 0.072303 0.121507
C30   C     C_R   0.918056 0.965867 0.129495 0.114910
C31   C     C_R   0.441159 0.360362 0.161587 -0.126032
C32   C     C_R   0.722816 0.843879 0.031321 -0.116309
C33   C     C_R   0.220801 0.059951 0.416218 0.083946
C34   C     C_R   0.702990 0.133011 0.704213 0.024619
C35   C     C_R   0.879654 0.953711 0.695901 0.093341
C36   C     C_R   0.300647 0.026989 0.423313 -0.175905
C37   C     C_R   0.781474 0.957572 0.672846 -0.184378
C38   C     C_R   0.322113 0.976711 0.485047 0.114362
C39   C     C_R   0.713926 0.937419 0.569990 0.116846
C40   C     C_R   0.207783 0.409403 0.897822 -0.133725
C41   C     C_R   0.774789 0.592969 0.028384 -0.131915
C42   C     C_R   0.262759 0.958444 0.539017 -0.193887
C43   C     C_R   0.745113 0.911751 0.489871 -0.177548
C44   C     C_R   0.180877 0.987782 0.529110 -0.140769
C45   C     C_R   0.293375 0.500488 0.919049 0.024074
C46   C     C_R   0.842544 0.907721 0.512583 -0.144044
C47   C     C_R   0.160253 0.038794 0.468379 -0.116452
C48   C     C_R   0.909654 0.928868 0.615150 -0.114749
C49   C     C_R   0.510310 0.034614 0.598283 -0.226241
C50   C     C_R   0.514613 0.862101 0.452188 -0.262067
C51   C     C_R   0.607935 0.032511 0.617366 0.062867
C52   C     C_R   0.419063 0.870781 0.429206 0.070964
C53   C     C_R   0.611541 0.944333 0.546769 0.029696
C54   C     C_R   0.416177 0.956197 0.504567 0.019188
C55   C     C_R   0.455408 0.312320 0.073437 -0.089900
C56   C     C_R   0.673361 0.501768 0.955294 0.043571
C57   C     C_R   0.720106 0.875886 0.128727 -0.090803
C58   C     C_R   0.018449 0.024575 0.127839 0.035832
C59   C     C_R   0.170305 0.137837 0.080282 0.030494
C60   C     C_R   0.344458 0.306176 0.160701 -0.135806
C61   C     C_R   0.821420 0.888250 0.031599 -0.158027
C62   C     C_R   0.070832 0.974010 0.082103 0.057013
C63   C     C_R   0.105466 0.179139 0.110057 0.043683
C64   C     C_R   0.991198 0.590996 0.295875 -0.149522
C65   C     C_R   0.943659 0.409799 0.686288 -0.140205
C66   C     C_3   0.464118 0.400749 0.892130 -0.190938
C67   C     C_R   0.934149 0.500542 0.300190 0.061930
C68   C     C_3   0.491810 0.604728 0.943724 -0.209720
C69   C     C_3   0.400571 0.432649 0.817386 0.090827
C70   C     C_3   0.554836 0.572529 0.017972 0.092169
C71   C     C_3   0.387155 0.503041 0.907410 0.137501
C72   C     C_3   0.569794 0.502264 0.928604 0.146782
C73   C     C_3   0.451902 0.473536 0.984205 -0.208968
C74   C     C_3   0.506162 0.532878 0.851021 -0.224376
C75   C     C_R   0.295646 0.590608 0.987109 -0.114674
C76   C     C_R   0.684241 0.409276 0.937400 -0.159094
C77   C     C_R   0.909115 0.409248 0.210647 -0.153348
C78   C     C_R   0.963262 0.504001 0.678766 0.045066
C79   C     C_R   0.027879 0.593650 0.780856 -0.107795
C80   C     C_R   0.219583 0.752223 0.312864 -0.132053
C81   C     C_R   0.792024 0.195982 0.700824 -0.150435
C82   C     C_R   0.074205 0.257430 0.980309 -0.123847
C83   C     C_R   0.992668 0.799872 0.088752 -0.131109
C84   C     C_R   0.062018 0.236510 0.060621 0.058153
C85   C     C_R   0.043590 0.860071 0.050749 0.060119
C86   C     C_R   0.154092 0.036138 0.069091 -0.252931
H1    H     H_    0.946241 0.248831 0.121001 0.098840
H2    H     H_    0.362144 0.651531 0.802054 0.110874
H3    H     H_    0.699587 0.392160 0.196972 0.107859
H4    H     H_    0.170854 0.533406 0.658235 0.105519
H5    H     H_    0.782286 0.210966 0.350174 0.106520
H6    H     H_    0.132262 0.819594 0.707470 0.108247
H7    H     H_    0.649859 0.038814 0.179093 0.109350
H8    H     H_    0.324183 0.936951 0.854034 0.105859
H9    H     H_    0.788698 0.363229 0.486636 0.129376
H10   H     H_    0.067513 0.662870 0.494449 0.128551
H11   H     H_    0.215029 0.075155 0.914860 0.110036
H12   H     H_    0.139635 0.828627 0.969023 0.095707
H13   H     H_    0.987607 0.060821 0.302802 0.114802
H14   H     H_    0.428278 0.459234 0.042422 0.144061
H15   H     H_    0.529002 0.555477 0.795520 0.120285
H16   H     H_    0.335150 0.342790 0.230553 0.109080
H17   H     H_    0.822020 0.865001 0.955483 0.110348
H18   H     H_    0.098471 0.063649 0.463594 0.099882
H19   H     H_    0.985165 0.925935 0.631956 0.094961
H20   H     H_    0.348710 0.043828 0.384279 0.109092
H21   H     H_    0.757627 0.976161 0.734832 0.107350
H22   H     H_    0.280280 0.921837 0.588867 0.123361
H23   H     H_    0.384046 0.174257 0.915168 0.094011
H24   H     H_    0.694966 0.896590 0.410319 0.105853
H25   H     H_    0.134789 0.972898 0.570246 0.110102
H26   H     H_    0.866386 0.888723 0.450674 0.115963
H27   H     H_    0.508666 0.104081 0.652196 0.140725
H28   H     H_    0.513726 0.792845 0.395143 0.134954
H29   H     H_    0.205356 0.005421 0.047727 0.129322
H30   H     H_    0.010762 0.170641 0.192950 0.126896
H31   H     H_    0.450800 0.316329 0.868341 0.111559
H32   H     H_    0.498580 0.686610 0.965586 0.100613
H33   H     H_    0.180061 0.325156 0.841822 0.108200
H34   H     H_    0.813698 0.977691 0.301783 0.102596
H35   H     H_    0.793712 0.677729 0.062455 0.128237
H36   H     H_    0.011210 0.674658 0.344841 0.097510
H37   H     H_    0.898060 0.325749 0.621375 0.096571
H38   H     H_    0.346520 0.674056 0.010007 0.103334
H39   H     H_    0.620364 0.325083 0.886566 0.105684
H40   H     H_    0.860466 0.324579 0.184848 0.118088
H41   H     H_    0.056562 0.678556 0.803294 0.109499
H42   H     H_    0.195885 0.759065 0.374395 0.117736
H43   H     H_    0.818850 0.169032 0.642836 0.110563
H44   H     H_    0.129305 0.247908 0.950138 0.116609
H45   H     H_    0.504925 0.439694 0.230226 0.109208
H46   H     H_    0.973376 0.828769 0.152503 0.115689
H47   H     H_    0.529071 0.356214 0.073089 0.099996
H48   H     H_    0.643613 0.843128 0.128773 0.092705
H49   H     H_    0.472509 0.865100 0.270709 0.098276
H50   H     H_    0.378165 0.846400 0.159189 0.092248
H51   H     H_    0.662066 0.086412 0.846305 0.102068
H52   H     H_    0.691340 0.211865 0.929859 0.102475
H53   H     H_    0.224943 0.196305 0.415262 0.091795
H54   H     H_    0.252813 0.126008 0.323986 0.115792
H55   H     H_    0.952014 0.903964 0.792693 0.098371
H56   H     H_    0.648586 0.786463 0.955163 0.110000
H57   H     H_    0.918252 0.995733 0.852811 0.110708
H58   H     H_    0.345073 0.321176 0.662321 0.106802
H59   H     H_    0.286233 0.401006 0.675723 0.090413
H60   H     H_    0.603293 0.682301 0.171582 0.095933
H61   H     H_    0.662461 0.602836 0.162844 0.098119
H62   H     H_    0.550435 0.042424 0.014107 0.093618
H63   H     H_    0.439034 0.852533 0.901957 0.090048
H64   H     H_    0.578246 0.218028 0.022513 0.099507
N1    N     N_R   0.947560 0.293820 0.002910 -0.046577
N2    N     N_R   0.789450 0.443190 0.997090 -0.040014
N3    N     N_R   0.945970 0.443180 0.152110 -0.039664
N4    N     N_R   0.054030 0.556820 0.847890 -0.041488
N5    N     N_R   0.151530 0.706170 0.208880 -0.049222
N6    N     N_R   0.848470 0.293830 0.791120 -0.044729
N7    N     N_R   0.004980 0.293810 0.946140 -0.042539
N8    N     N_R   0.995020 0.706190 0.053860 -0.041366
N9    N     N_3   0.399537 0.805626 0.199706 -0.229851
N10   N     N_3   0.651284 0.153079 0.848113 -0.232180
N11   N     N_3   0.202227 0.117274 0.358824 -0.219147
N12   N     N_R   0.052440 0.706180 0.997090 -0.039881
N13   N     N_3   0.950302 0.976097 0.800975 -0.222048
N14   N     N_3   0.312140 0.355669 0.707099 -0.221947
N15   N     N_3   0.639252 0.648648 0.130311 -0.218799
N16   N     N_R   0.208960 0.706170 0.152110 -0.052823
N17   N     N_R   0.791040 0.293830 0.847890 -0.050307
N18   N     N_R   0.154330 0.443160 0.946140 -0.043171
N19   N     N_R   0.845670 0.556840 0.053860 -0.041171
N20   N     N_R   0.002190 0.556820 0.208880 -0.036880
N21   N     N_R   0.997810 0.443180 0.791120 -0.038884
N22   N     N_R   0.210550 0.556810 0.002910 -0.039109
Ni1   Ni    Ni4+2 0.869690 0.369690 0.000000 0.200924
Ni2   Ni    Ni4+2 0.130310 0.630310 0.000000 0.213476
Ni3   Ni    Ni4+2 0.001390 0.369680 0.869810 0.211863
Ni4   Ni    Ni4+2 0.998610 0.630320 0.130190 0.213463

loop_
_geom_bond_atom_site_label_1
_geom_bond_atom_site_label_2
_ccdc_geom_bond_type
N5    Ni4   S    
C1    H1    S    
C73   H14   S    
C49   H27   S    
N6    Ni3   S    
C58   C62   A    
C56   C76   A    
C46   H26   S    
N18   Ni3   S    
C22   H9    S    
C14   C18   A    
C67   C77   A    
C24   C27   A    
N20   Ni4   S    
C6    C30   A    
C1    C84   A    
C15   C19   A    
C62   C86   A    
C34   C51   S    
C81   N6    A    
C12   C85   A    
C65   N21   A    
N1    Ni1   S    
C26   C67   S    
N1    N7    A    
C19   C21   A    
C24   C26   A    
C32   C61   A    
C37   H21   S    
C24   H10   S    
C11   C14   A    
C66   C69   S    
C45   C71   S    
C76   N2    A    
N5    N16   A    
C68   C74   S    
C49   C54   A    
N3    Ni1   S    
C33   C36   A    
C41   H35   S    
C69   C71   S    
C17   N10   S    
C31   H45   S    
H61   N15   S    
C68   H32   S    
C15   H6    S    
H50   N9    S    
C2    H30   S    
C66   C72   S    
C29   C59   S    
C52   C54   A    
C56   C72   S    
C22   C25   A    
N3    N20   A    
C50   C52   A    
C20   H62   S    
C65   C78   A    
C43   H24   S    
C21   H63   S    
C23   C80   A    
C82   H44   S    
C32   H56   S    
C44   C47   A    
N17   Ni1   S    
C77   N3    A    
C22   C28   A    
H58   N14   S    
C16   N9    S    
C76   H39   S    
C42   C44   A    
C32   C57   A    
C60   H16   S    
C35   C48   A    
H57   N13   S    
C26   C28   A    
N22   Ni2   S    
C5    C29   A    
C40   C45   A    
C62   C85   S    
C46   C48   A    
N16   Ni2   S    
C50   C53   A    
H49   N9    S    
N4    Ni2   S    
C36   H20   S    
C75   H38   S    
C64   C67   A    
H53   N11   S    
C72   C74   S    
C17   N17   A    
C70   N15   S    
C9    H3    S    
C71   C73   S    
C82   N7    A    
C78   C79   A    
C39   C43   A    
C80   H42   S    
N6    N17   A    
C49   C51   A    
H54   N11   S    
C55   H47   S    
C66   C73   S    
N21   Ni3   S    
C66   H31   S    
C35   N13   S    
C25   C78   S    
C86   H29   S    
C50   H28   S    
C31   C60   A    
C4    C57   A    
C33   N11   S    
C41   C56   A    
C7    H64   S    
C81   H43   S    
C48   H19   S    
C38   C54   S    
C29   C60   A    
C70   C73   S    
C8    C21   A    
C69   C74   S    
C9    C11   A    
C19   H8    S    
N7    Ni3   S    
C74   H15   S    
N2    Ni1   S    
C4    C6    A    
C83   C85   A    
H60   N15   S    
C5    H11   S    
H55   N13   S    
C16   C23   A    
C82   C84   A    
C13   C15   A    
C33   C47   A    
C57   H48   S    
C17   C34   A    
C75   N22   A    
C2    C63   A    
C35   C37   A    
C80   N5    A    
N8    Ni4   S    
C7    C9    A    
C79   H41   S    
C47   H18   S    
H51   N10   S    
C61   H17   S    
C59   C63   A    
C8    C10   A    
C4    H34   S    
C3    C5    A    
C10   C13   A    
C16   N16   A    
C2    C58   A    
C38   C42   A    
N12   Ni2   S    
H59   N14   S    
C25   C27   A    
C3    C55   A    
C63   C84   S    
C45   C75   A    
C31   C55   A    
C6    H13   S    
C36   C38   A    
C59   C86   A    
C83   H46   S    
C37   C39   A    
C79   N4    A    
N2    N19   A    
C23   C52   S    
C39   C53   S    
C83   N8    A    
C41   N19   A    
C11   C28   S    
C3    H23   S    
C68   C71   S    
C64   H36   S    
C30   C58   S    
N19   Ni4   S    
N4    N21   A    
C1    N1    A    
C18   C20   A    
C65   H37   S    
C64   N20   A    
C43   C46   A    
C14   H5    S    
C40   N18   A    
N8    N12   A    
C51   C53   A    
C12   N12   A    
C44   H25   S    
H52   N10   S    
N18   N22   A    
C40   H33   S    
C10   H4    S    
C68   C70   S    
C7    C20   A    
C30   C61   A    
C12   H12   S    
C18   H7    S    
C13   C27   S    
C70   C72   S    
C8    H2    S    
C42   H22   S    
C34   C81   A    
C77   H40   S    
C69   N14   S    
