data_str_m3_o13_o18_f0_pcu.sym.24
_audit_creation_date              2012-12-10T17:31:11-0500
_audit_creation_method            fapswitch 2.2
_symmetry_space_group_name_H-M    P1
_symmetry_Int_Tables_number       1
_space_group_crystal_system       triclinic
_cell_length_a                    12.094228
_cell_length_b                    12.800238
_cell_length_c                    15.216487
_cell_angle_alpha                 86.619881
_cell_angle_beta                  116.441174
_cell_angle_gamma                 93.511724
_cell_volume                      2103.94528089

loop_
_atom_site_label
_atom_site_type_symbol
_atom_type_description
_atom_site_fract_x
_atom_site_fract_y
_atom_site_fract_z
_atom_type_partial_charge
C1    C     C_R   0.476481 0.299906 0.497326 0.892237
C2    C     C_R   0.587783 0.968845 0.429242 0.104913
C3    C     C_R   0.414617 0.139614 0.559985 -0.261133
C4    C     C_R   0.591206 0.860893 0.444387 -0.256883
C5    C     C_R   0.514365 0.132827 0.453272 -0.295193
C6    C     C_R   0.488575 0.867084 0.549124 -0.297268
C7    C     C_R   0.527114 0.025884 0.471134 0.124589
C8    C     C_R   0.479798 0.974608 0.534150 0.131315
C9    C     C_R   0.000428 0.601145 0.410849 -0.325338
C10   C     C_R   0.999119 0.398229 0.588770 -0.339271
C11   C     C_R   0.120924 0.593828 0.419550 0.247615
C12   C     C_R   0.523432 0.700115 0.502361 0.879651
C13   C     C_R   0.879069 0.406429 0.580919 0.261260
C14   C     C_R   0.160398 0.454469 0.537987 -0.071595
C15   C     C_R   0.838780 0.544218 0.460733 -0.080405
C16   C     C_R   0.577838 0.499401 0.681499 0.851200
C17   C     C_R   0.423649 0.508805 0.318860 0.849289
C18   C     C_R   0.040068 0.462417 0.531697 0.060009
C19   C     C_R   0.959145 0.536309 0.467225 0.058770
C20   C     C_R   0.631423 0.502906 0.789153 -0.085807
C21   C     C_R   0.384942 0.549025 0.218306 -0.081834
C22   C     C_R   0.762975 0.415386 0.942636 -0.207177
C23   C     C_R   0.650443 0.462057 0.123635 -0.219106
C24   C     C_R   0.371100 0.714588 0.129098 -0.216036
C25   C     C_R   0.726326 0.434509 0.843392 -0.234312
C26   C     C_R   0.347292 0.652660 0.197348 -0.231825
C27   C     C_R   0.584078 0.566533 0.837566 0.020889
C28   C     C_R   0.434940 0.503789 0.162998 0.039392
C29   C     C_R   0.624562 0.547970 0.941135 0.058763
C30   C     C_R   0.481238 0.571489 0.108645 0.060853
C31   C     C_R   0.705784 0.464895 0.989634 0.148279
C32   C     C_R   0.442013 0.676193 0.087356 0.144537
C33   C     C_R   0.574831 0.597283 0.996224 0.057421
C34   C     C_R   0.546009 0.703496 0.983846 -0.226192
C35   C     C_R   0.564710 0.539744 0.074451 0.053525
C36   C     C_3   0.846492 0.331471 0.647159 -0.401397
C37   C     C_3   0.833482 0.217859 0.615429 -0.351560
C38   C     C_3   0.793172 0.143357 0.678852 -0.876990
C39   C     C_3   0.154257 0.670377 0.355112 -0.397094
C40   C     C_3   0.168078 0.783047 0.389480 -0.355897
C41   C     C_3   0.208343 0.859694 0.327493 -0.873786
C42   C     C_3   0.418140 0.385242 0.152331 -0.422533
C43   C     C_3   0.336393 0.357635 0.044921 -0.317783
C44   C     C_3   0.308291 0.239972 0.034716 -0.905725
C45   C     C_R   0.724433 0.428259 0.083457 -0.233401
C46   C     C_3   0.481641 0.642189 0.775778 -0.402896
C47   C     C_3   0.354067 0.599126 0.762997 -0.286991
C48   C     C_3   0.251267 0.669009 0.692666 -0.879621
C49   C     C_3   0.379978 0.985652 0.653003 -0.432055
C50   C     C_3   0.490541 0.974506 0.754745 -0.324894
C51   C     C_3   0.448941 0.953933 0.835478 -0.923589
C52   C     C_3   0.647655 0.017955 0.366968 -0.429744
C53   C     C_3   0.553342 0.027748 0.258699 -0.336381
C54   C     C_3   0.615216 0.070139 0.194951 -0.898982
C55   C     C_R   0.479647 0.742599 0.028666 -0.240824
C56   C     C_R   0.538170 0.811350 0.500901 -0.071668
C57   C     C_R   0.463052 0.188617 0.500151 -0.073960
C58   C     C_R   0.422749 0.032174 0.578677 0.106228
H1    H     H_    0.789774 0.368034 0.122651 0.146234
H2    H     H_    0.584204 0.758708 0.947540 0.152777
H3    H     H_    0.452993 0.824282 0.595038 0.144427
H4    H     H_    0.546981 0.175236 0.405201 0.151430
H5    H     H_    0.630348 0.814697 0.408384 0.155101
H6    H     H_    0.377727 0.186429 0.597222 0.149433
H7    H     H_    0.776944 0.601627 0.410734 0.134526
H8    H     H_    0.221896 0.396539 0.587408 0.124451
H9    H     H_    0.863907 0.144555 0.756710 0.253020
H10   H     H_    0.703533 0.166237 0.674096 0.265160
H11   H     H_    0.782024 0.062366 0.652844 0.256917
H12   H     H_    0.458077 0.824689 0.017724 0.153482
H13   H     H_    0.764360 0.212373 0.537473 0.236852
H14   H     H_    0.923000 0.192326 0.621835 0.209957
H15   H     H_    0.920443 0.337569 0.723731 0.166577
H16   H     H_    0.761818 0.350874 0.649897 0.256748
H17   H     H_    0.298999 0.838759 0.333073 0.263892
H18   H     H_    0.138623 0.858852 0.249296 0.254323
H19   H     H_    0.217564 0.940139 0.354251 0.256613
H20   H     H_    0.078703 0.808020 0.383840 0.212168
H21   H     H_    0.237286 0.786996 0.467576 0.234439
H22   H     H_    0.238575 0.650335 0.352456 0.255671
H23   H     H_    0.938872 0.658238 0.359781 0.146238
H24   H     H_    0.080652 0.666091 0.278246 0.175310
H25   H     H_    0.395286 0.198065 0.059623 0.269863
H26   H     H_    0.259584 0.211180 0.078981 0.260338
H27   H     H_    0.248331 0.222816 0.956503 0.246583
H28   H     H_    0.247699 0.398197 0.016915 0.222320
H29   H     H_    0.383182 0.383835 0.998597 0.225878
H30   H     H_    0.506371 0.345190 0.181430 0.199758
H31   H     H_    0.371220 0.351178 0.196494 0.185491
H32   H     H_    0.261783 0.747435 0.723353 0.251927
H33   H     H_    0.253427 0.678052 0.620466 0.266178
H34   H     H_    0.060863 0.341472 0.640156 0.140676
H35   H     H_    0.160166 0.633312 0.681555 0.254513
H36   H     H_    0.350499 0.593328 0.834724 0.219779
H37   H     H_    0.336549 0.519173 0.733869 0.227103
H38   H     H_    0.500246 0.721538 0.803425 0.184049
H39   H     H_    0.478837 0.660241 0.702910 0.205822
H40   H     H_    0.393530 0.019265 0.836996 0.264266
H41   H     H_    0.392808 0.879719 0.823532 0.266360
H42   H     H_    0.531312 0.948022 0.907803 0.247005
H43   H     H_    0.547857 0.909408 0.755820 0.211640
H44   H     H_    0.549293 0.047910 0.771157 0.227227
H45   H     H_    0.309525 0.688922 0.239741 0.145049
H46   H     H_    0.312924 0.038010 0.657921 0.202548
H47   H     H_    0.328149 0.909779 0.629416 0.186949
H48   H     H_    0.650887 0.151903 0.214009 0.260592
H49   H     H_    0.692700 0.020566 0.205396 0.263339
H50   H     H_    0.547180 0.069077 0.116385 0.244956
H51   H     H_    0.509700 0.949381 0.232697 0.222380
H52   H     H_    0.479572 0.080935 0.249981 0.221742
H53   H     H_    0.693912 0.094789 0.394784 0.188685
H54   H     H_    0.723154 0.968073 0.373066 0.200129
H55   H     H_    0.765305 0.388585 0.807283 0.148436
H56   H     H_    0.829327 0.355584 0.980866 0.140384
H57   H     H_    0.343189 0.795129 0.115336 0.138792
H58   H     H_    0.667196 0.432670 0.196294 0.151956
N1    N     N_R   0.799120 0.480200 0.517090 -0.108901
N2    N     N_R   0.200880 0.519800 0.482910 -0.106406
O1    O     O_R   0.580150 0.341050 0.504560 -0.625672
O2    O     O_R   0.419850 0.658950 0.495440 -0.635016
O3    O     O_R   0.388090 0.353760 0.493600 -0.612650
O4    O     O_R   0.611910 0.646240 0.506400 -0.612545
O5    O     O_R   0.650890 0.490020 0.640860 -0.630185
O6    O     O_R   0.349110 0.509980 0.359140 -0.628988
O7    O     O_R   0.458830 0.502730 0.629890 -0.607029
O8    O     O_R   0.541170 0.497270 0.370110 -0.601268
Zn1   Zn    Zn3+2 0.628240 0.491510 0.507320 0.922301
Zn2   Zn    Zn3+2 0.371760 0.508490 0.492680 0.914310

loop_
_geom_bond_atom_site_label_1
_geom_bond_atom_site_label_2
_ccdc_geom_bond_type
C53   H52   S    
C21   C26   A    
O8    Zn1   S    
C23   C45   A    
C27   C29   A    
C14   C18   A    
C2    C7    A    
C44   H25   S    
C49   H46   S    
C7    C8    A    
C3    H6    S    
C36   H16   S    
C15   C19   A    
C4    H5    S    
C54   H49   S    
C6    H3    S    
C36   C37   S    
C16   O5    A    
C24   C26   A    
C25   H55   S    
C41   H19   S    
C17   O8    A    
C20   C25   A    
C52   H54   S    
C15   H7    S    
C29   C33   A    
C18   C19   A    
C1    O1    A    
O4    Zn1   S    
C8    C58   A    
C23   H58   S    
C12   O2    A    
C9    C19   A    
C14   N2    A    
C48   H33   S    
O7    Zn2   S    
C16   O7    A    
C32   C55   A    
O6    Zn2   S    
C51   H40   S    
C38   H11   S    
C10   H34   S    
C34   C55   A    
C48   H32   S    
C4    C56   A    
C34   H2    S    
N2    Zn2   S    
C50   C51   S    
C51   H41   S    
C48   H35   S    
C54   H48   S    
C13   C36   S    
C22   C31   A    
C39   C40   S    
C5    C7    A    
C49   H47   S    
C52   H53   S    
C53   C54   S    
C22   C25   A    
C17   C21   S    
C49   C58   S    
C15   N1    A    
C2    C4    A    
C43   C44   S    
C24   C32   A    
C37   C38   S    
C1    C57   S    
C26   H45   S    
C41   H17   S    
C9    C11   A    
C17   O6    A    
O5    Zn1   S    
C47   C48   S    
C16   C20   S    
C33   C34   A    
C14   H8    S    
C40   H21   S    
C46   H38   S    
C11   C39   S    
N1    Zn1   S    
C12   C56   S    
C2    C52   S    
O3    Zn2   S    
C3    C57   A    
C27   C46   S    
C40   C41   S    
C21   C28   A    
C38   H10   S    
C50   H44   S    
C23   C35   A    
C37   H13   S    
C40   H20   S    
C42   H30   S    
C42   C43   S    
C44   H27   S    
C52   C53   S    
C53   H51   S    
C51   H42   S    
C46   C47   S    
C45   H1    S    
C43   H28   S    
C46   H39   S    
C39   H24   S    
C6    C56   A    
C44   H26   S    
C10   C13   A    
C6    C8    A    
O2    Zn2   S    
C20   C27   A    
C54   H50   S    
C30   C35   A    
C5    C57   A    
C50   H43   S    
C42   H31   S    
C43   H29   S    
C39   H22   S    
C28   C30   A    
C29   C31   A    
C41   H18   S    
C30   C32   A    
C10   C18   A    
C28   C42   S    
C33   C35   A    
C47   H36   S    
C5    H4    S    
C1    O3    A    
C55   H12   S    
C36   H15   S    
C3    C58   A    
C22   H56   S    
C12   O4    A    
C38   H9    S    
C24   H57   S    
C49   C50   S    
C31   C45   A    
C37   H14   S    
C13   N1    A    
C47   H37   S    
C11   N2    A    
C9    H23   S    
O1    Zn1   S    
