data_str_m12_o4_o9_f0_bcu.sym.221
_audit_creation_date              2013-03-05T15:55:05-0500
_audit_creation_method            fapswitch 2.2
_symmetry_space_group_name_H-M    P1
_symmetry_Int_Tables_number       1
_space_group_crystal_system       triclinic
_cell_length_a                    14.778546
_cell_length_b                    14.949996
_cell_length_c                    15.036344
_cell_angle_alpha                 109.956941
_cell_angle_beta                  109.800756
_cell_angle_gamma                 108.800991
_cell_volume                      2552.55140857

loop_
_atom_site_label
_atom_site_type_symbol
_atom_site_description
_atom_site_fract_x
_atom_site_fract_y
_atom_site_fract_z
_atom_type_partial_charge
C1    C     C_R   0.184976 0.278927 0.252061 -0.135620
H1    H     H_    0.123179 0.302826 0.248517 0.116028
N1    N     N_R   0.291070 0.347930 0.293870 -0.047347
C2    C     C_R   0.533228 0.440901 0.755078 -0.080044
H2    H     H_    0.572894 0.395374 0.774388 0.118767
N2    N     N_R   0.554050 0.497220 0.706150 -0.057394
C3    C     C_R   0.500142 0.198442 0.408595 -0.065248
H3    H     H_    0.476981 0.146103 0.325153 0.110720
N3    N     N_R   0.497240 0.291100 0.443210 -0.037854
C4    C     C_R   0.290654 0.597545 0.589345 -0.111779
H4    H     H_    0.323800 0.658167 0.673168 0.086242
N4    N     N_R   0.347890 0.554050 0.556810 -0.036143
C5    C     C_R   0.591289 0.288573 0.591162 -0.077597
H5    H     H_    0.649982 0.317873 0.674921 0.088351
N5    N     N_R   0.554050 0.347900 0.556830 -0.049702
C6    C     C_R   0.199433 0.504542 0.407945 -0.143775
H6    H     H_    0.148085 0.475974 0.323096 0.116610
N6    N     N_R   0.291070 0.497250 0.443190 -0.038546
C7    C     C_R   0.440809 0.534479 0.756124 -0.170236
H7    H     H_    0.395195 0.574287 0.775734 0.107495
N7    N     N_R   0.497240 0.554030 0.706140 -0.045532
C8    C     C_R   0.275741 0.184895 0.247203 -0.045640
H8    H     H_    0.296716 0.120580 0.234593 0.103263
N8    N     N_R   0.347890 0.291110 0.293870 -0.040321
C9    C     C_R   0.172046 0.175221 0.221173 0.052955
C10   C     C_R   0.462080 0.463032 0.786479 0.105946
C11   C     C_R   0.557654 0.194254 0.499295 0.103579
C12   C     C_R   0.197685 0.570585 0.497434 0.061454
C13   C     C_R   0.478826 0.719515 0.408230 -0.144975
H9    H     H_    0.451665 0.696332 0.323732 0.124288
N9    N     N_R   0.445950 0.652100 0.443170 -0.047567
C14   C     C_R   0.815480 0.567509 0.593339 -0.130774
H10   H     H_    0.878314 0.617710 0.678652 0.117308
N10   N     N_R   0.708930 0.502750 0.556810 -0.054153
C15   C     C_R   0.492484 0.401523 0.195259 0.299392
N11   N     N_R   0.502760 0.445970 0.293860 -0.089869
C16   C     C_R   0.706745 0.799334 0.802797 -0.119674
H11   H     H_    0.669518 0.846242 0.829855 0.098739
N12   N     N_R   0.652110 0.708890 0.706130 -0.039414
C17   C     C_R   0.801259 0.710439 0.804650 -0.128316
H12   H     H_    0.854291 0.679236 0.833911 0.090872
N13   N     N_R   0.708930 0.652070 0.706130 -0.042673
C18   C     C_R   0.403335 0.495349 0.196396 -0.222839
H13   H     H_    0.348133 0.525532 0.169553 0.126929
N14   N     N_R   0.445950 0.502780 0.293850 -0.058049
C19   C     C_R   0.565177 0.814838 0.591290 -0.061581
H14   H     H_    0.615006 0.880291 0.675777 0.125369
N15   N     N_R   0.502760 0.708900 0.556790 -0.057067
C20   C     C_R   0.723690 0.479714 0.410556 -0.058706
H15   H     H_    0.702039 0.452063 0.326457 0.122629
N16   N     N_R   0.652110 0.445950 0.443190 -0.034500
Ni1   Ni    Ni4+2 0.369690 0.500010 0.369700 0.215823
Ni2   Ni    Ni4+2 0.630310 0.499990 0.630300 0.212571
Ni3   Ni    Ni4+2 0.500000 0.369720 0.369720 0.301570
Ni4   Ni    Ni4+2 0.500000 0.630280 0.630280 0.217592
C21   C     C_R   0.551922 0.822853 0.498487 0.136323
C22   C     C_R   0.827288 0.558181 0.503124 0.019994
C23   C     C_R   0.429865 0.430718 0.132915 -0.039768
C24   C     C_R   0.801419 0.803448 0.867158 0.066102
H16   H     H_    0.011350 0.469295 0.014707 0.117807
C25   C     C_R   0.094237 0.593556 0.184287 -0.131765
H17   H     H_    0.154861 0.651550 0.178271 0.118342
C26   C     C_R   0.097100 0.621402 0.284324 -0.106755
H18   H     H_    0.160532 0.701146 0.355398 0.143620
C27   C     C_R   0.018713 0.546070 0.292558 0.097688
C28   C     C_R   0.936513 0.443394 0.198924 -0.180976
H19   H     H_    0.875501 0.384200 0.203646 0.135706
C29   C     C_R   0.934339 0.415841 0.099231 -0.084995
H20   H     H_    0.871692 0.336251 0.027668 0.148667
C30   C     C_R   0.013171 0.490795 0.091952 -0.095953
C31   C     C_R   0.928934 0.571588 0.402876 -0.188453
H21   H     H_    0.853452 0.535502 0.326901 0.132025
C32   C     C_R   0.931149 0.608702 0.502999 0.046375
C33   C     C_R   0.034972 0.677320 0.600649 0.040953
C34   C     C_R   0.126687 0.672396 0.597058 -0.193035
H22   H     H_    0.204572 0.716278 0.672706 0.122759
C35   C     C_R   0.117166 0.609745 0.496759 0.050440
C36   C     C_R   0.022697 0.575377 0.398797 0.034407
C37   C     C_R   0.000361 0.824631 0.697550 -0.083929
H23   H     H_    0.947574 0.812883 0.619281 0.149116
C38   C     C_R   0.019309 0.906545 0.793311 -0.070729
H24   H     H_    0.980776 0.956541 0.788582 0.172461
C39   C     C_R   0.089004 0.924890 0.895265 -0.107391
H25   H     H_    0.104910 0.989576 0.969216 0.121868
C40   C     C_R   0.138289 0.860024 0.901711 -0.088478
H26   H     H_    0.191516 0.873860 0.980902 0.109282
C41   C     C_R   0.119683 0.777922 0.806130 -0.166636
H27   H     H_    0.158606 0.728504 0.812779 0.109600
C42   C     C_R   0.050918 0.759796 0.702916 0.086167
C43   C     C_R   0.377174 0.357219 0.853946 0.119175
C44   C     C_R   0.456374 0.455108 0.875374 -0.150939
C45   C     C_R   0.538078 0.540206 0.984095 -0.055653
C46   C     C_R   0.526593 0.529564 0.068398 -0.173375
H28   H     H_    0.585383 0.594169 0.153013 0.176434
C47   C     C_R   0.436811 0.436971 0.043967 0.037180
C48   C     C_R   0.367161 0.348075 0.938264 0.201701
C49   C     C_3   0.243640 0.285532 0.872827 -0.613072
C50   C     C_3   0.254220 0.295752 0.779001 0.182508
H29   H     H_    0.209996 0.200564 0.858225 0.240987
H30   H     H_    0.205713 0.331723 0.905527 0.187412
H31   H     H_    0.220432 0.345419 0.754454 0.073345
C51   C     C_R   0.513121 0.913877 0.395480 0.115065
C52   C     C_R   0.585643 0.920789 0.489734 -0.072464
C53   C     C_R   0.673621 0.025452 0.579200 0.354816
C54   C     C_R   0.670047 0.119171 0.580788 -0.276462
H32   H     H_    0.731507 0.199616 0.651596 0.167246
C55   C     C_R   0.582263 0.107280 0.493551 0.027733
C56   C     C_R   0.510096 0.005460 0.399253 -0.005704
C57   C     C_3   0.386156 0.946993 0.332788 0.208188
C58   C     C_3   0.388856 0.844403 0.324186 -0.628442
H33   H     H_    0.353888 0.945076 0.253319 0.048157
H34   H     H_    0.347933 0.808225 0.362804 0.225158
H35   H     H_    0.363257 0.784516 0.239774 0.168890
C59   C     C_R   0.966754 0.074626 0.119329 0.180896
C60   C     C_R   0.066698 0.074657 0.164533 0.036165
C61   C     C_R   0.062690 0.972861 0.136182 -0.141956
H36   H     H_    0.136255 0.967846 0.172532 0.164499
C62   C     C_R   0.967594 0.877259 0.045408 -0.182074
H37   H     H_    0.971519 0.802476 0.016540 0.130794
C63   C     C_R   0.877434 0.884290 0.983123 0.029163
C64   C     C_R   0.873181 0.980407 0.029733 0.154548
C65   C     C_3   0.836248 0.042078 0.979323 -0.474210
C66   C     C_3   0.938546 0.145045 0.076852 -0.521526
H38   H     H_    0.837394 0.024034 0.901673 0.239628
H39   H     H_    0.758659 0.038021 0.976064 0.202889
H40   H     H_    0.997142 0.184933 0.053787 0.212231
H41   H     H_    0.919713 0.200340 0.129402 0.201581
N17   N     N_R   0.510286 0.310978 0.153009 0.220207
O1    O     O_R   0.523178 0.257999 0.204934 -0.445059
O2    O     O_R   0.509268 0.277908 0.060487 -0.398015
C67   C     C_2   0.632635 0.640505 0.010648 0.526915
H42   H     H_    0.644732 0.650050 0.946592 0.015220
O3    O     O_2   0.699177 0.714294 0.105396 -0.565946
N18   N     N_R   0.214894 0.189825 0.686178 0.268803
O4    O     O_R   0.109742 0.118401 0.627734 -0.339923
O5    O     O_R   0.281667 0.170221 0.654528 -0.324184
N19   N     N_R   0.762398 0.037306 0.669315 0.227341
O6    O     O_R   0.819643 0.126418 0.764662 -0.433382
O7    O     O_R   0.794877 0.964945 0.653243 -0.426634
N20   N     N_R   0.335743 0.981932 0.397067 0.261875
O8    O     O_R   0.265130 0.012986 0.362121 -0.399157
O9    O     O_R   0.363873 0.986542 0.491195 -0.350969

loop_
_geom_bond_atom_site_label_1
_geom_bond_atom_site_label_2
_geom_bond_distance
_ccdc_geom_bond_type
C25   C30   1.397789 A    
C6    C12   1.385359 A    
N15   Ni4   1.868277 S    
C28   C29   1.398242 A    
C41   H27   1.082634 S    
C26   C27   1.406095 A    
C46   H28   1.085271 S    
C32   C33   1.411879 A    
C15   N11   1.331396 A    
N9    Ni1   1.857577 S    
C23   C47   1.407201 S    
N17   O1    1.300705 A    
C49   C50   1.522937 S    
N6    Ni1   1.855486 S    
C3    H3    1.081588 S    
C35   C36   1.417948 A    
C56   C57   1.499761 S    
N19   O7    1.301495 A    
N10   N16   1.386748 A    
C24   C63   1.456820 S    
C57   N20   1.468389 S    
N5    Ni2   1.857577 S    
C33   C42   1.487731 S    
C7    N7    1.327890 A    
C16   H11   1.079614 S    
N20   O9    1.302716 A    
C9    C60   1.458925 S    
N13   Ni2   1.857255 S    
N8    Ni3   1.838601 S    
C60   C61   1.408262 A    
C3    C11   1.376055 A    
C53   N19   1.438936 S    
C1    H1    1.074660 S    
C22   C32   1.477199 S    
C25   C26   1.398481 A    
C7    C10   1.378446 A    
C62   H37   1.081347 S    
C18   C23   1.366233 A    
C38   C39   1.395486 A    
C59   C64   1.377770 A    
N12   Ni4   1.838599 S    
C47   C48   1.385588 A    
C6    H6    1.071999 S    
C20   N16   1.338360 A    
C8    C9    1.390928 A    
C55   C56   1.385902 A    
C51   C56   1.366740 A    
C11   C55   1.442148 S    
C17   N13   1.341062 A    
C28   H19   1.083128 S    
C46   C47   1.396577 A    
C17   C24   1.386022 A    
C5    H5    1.081113 S    
C1    C9    1.383237 A    
N1    N8    1.373493 A    
C25   H17   1.081815 S    
C14   C22   1.391739 A    
C53   C54   1.411435 A    
C49   H29   1.112454 S    
C59   C60   1.400989 A    
N12   N13   1.373492 A    
C62   C63   1.405551 A    
C40   C41   1.399367 A    
C19   N15   1.342252 A    
C33   C34   1.398823 A    
C45   C67   1.491068 S    
N20   O8    1.299212 A    
C2    N2    1.324414 A    
C44   C45   1.414834 A    
C31   C32   1.400027 A    
C29   H20   1.082499 S    
C66   H40   1.112458 S    
N18   O5    1.302123 A    
N14   Ni1   1.856238 S    
C10   C44   1.409183 S    
C40   H26   1.082517 S    
N2    N7    1.373252 A    
C38   H24   1.082233 S    
C26   H18   1.083225 S    
C1    N1    1.328420 A    
C14   N10   1.336759 A    
C34   H22   1.079791 S    
C13   H9    1.076908 S    
C54   C55   1.405184 A    
C66   H41   1.112012 S    
C39   H25   1.081322 S    
C5    N5    1.338179 A    
H16   C30   1.082347 S    
C13   N9    1.321586 A    
C48   C49   1.493198 S    
N11   N14   1.373249 A    
C12   C35   1.484499 S    
C34   C35   1.406610 A    
C58   H35   1.111912 S    
C64   C65   1.497885 S    
C16   C24   1.372763 A    
C4    N4    1.339909 A    
C59   C66   1.500507 S    
C6    N6    1.332334 A    
C17   H12   1.080540 S    
C39   C40   1.397100 A    
C20   H15   1.075218 S    
N9    N15   1.386749 A    
C15   C23   1.370243 A    
C18   H13   1.081933 S    
C8    N8    1.338625 A    
C51   C58   1.509058 S    
N2    Ni2   1.856238 S    
N4    N6    1.386748 A    
C67   H42   1.083554 S    
C52   C53   1.419614 A    
C49   H30   1.112310 S    
C63   C64   1.400188 A    
N7    Ni4   1.868524 S    
C54   H32   1.082405 S    
C4    C12   1.391581 A    
C3    N3    1.323963 A    
C19   H14   1.080191 S    
C27   C36   1.479567 S    
C21   C52   1.454326 S    
C2    H2    1.080719 S    
C67   O3    1.221643 D    
N17   O2    1.300615 A    
C20   C22   1.393379 A    
C2    C10   1.375479 A    
N1    Ni1   1.857255 S    
C43   C48   1.371265 A    
N18   O4    1.300784 A    
C13   C21   1.376704 A    
C50   H31   1.112706 S    
N19   O6    1.301521 A    
C50   N18   1.463572 S    
C37   C38   1.397672 A    
N16   Ni3   1.838298 S    
C14   H10   1.075954 S    
C7    H7    1.081203 S    
C57   H33   1.112573 S    
N3    N5    1.386748 A    
C31   H21   1.080970 S    
C16   N12   1.323817 A    
C57   C58   1.509354 S    
C43   C44   1.390680 A    
C65   H39   1.111746 S    
C45   C46   1.388168 A    
C61   C62   1.398169 A    
C61   H36   1.079013 S    
C51   C52   1.402669 A    
C58   H34   1.112170 S    
C37   C42   1.408406 A    
N4    Ni4   1.838298 S    
N11   Ni3   1.868522 S    
C4    H4    1.079683 S    
C37   H23   1.083077 S    
N10   Ni2   1.855489 S    
C29   C30   1.397697 A    
C27   C28   1.406503 A    
C19   C21   1.394267 A    
C15   N17   1.435592 S    
C41   C42   1.407704 A    
C8    H8    1.078896 S    
C5    C11   1.377279 A    
N3    Ni3   1.868278 S    
C65   C66   1.504230 S    
C65   H38   1.112471 S    
C18   N14   1.332204 A    
C43   C50   1.498544 S    
C31   C36   1.391567 A    
