data_str_m9_o16_o25_f0_sra.sym.63
_audit_creation_date              2012-12-11T15:14:46-0500
_audit_creation_method            fapswitch 2.2
_symmetry_space_group_name_H-M    P1
_symmetry_Int_Tables_number       1
_space_group_crystal_system       triclinic
_cell_length_a                    22.299738
_cell_length_b                    7.240621
_cell_length_c                    19.187856
_cell_angle_alpha                 90.00054
_cell_angle_beta                  99.229979
_cell_angle_gamma                 90.001211
_cell_volume                      3058.03370851

loop_
_atom_site_label
_atom_site_type_symbol
_atom_type_description
_atom_site_fract_x
_atom_site_fract_y
_atom_site_fract_z
_atom_type_partial_charge
O1    O     O_R   0.448470 0.506130 0.415700 -0.531633
O2    O     O_R   0.551530 0.006130 0.584300 -0.531629
O3    O     O_R   0.436320 0.174490 0.555800 -0.533263
O4    O     O_R   0.563680 0.674490 0.444200 -0.533262
C1    C     C_R   0.421287 0.344391 0.575231 0.702310
C2    C     C_R   0.578713 0.844393 0.424770 0.702308
O5    O     O_R   0.441350 0.176340 0.414480 -0.534658
O6    O     O_R   0.558650 0.676340 0.585520 -0.534657
O7    O     O_R   0.556600 0.007100 0.441970 -0.533204
O8    O     O_R   0.443400 0.507100 0.558030 -0.533207
C3    C     C_R   0.427157 0.344760 0.388939 0.704255
C4    C     C_R   0.572842 0.844765 0.611061 0.704262
O9    O     O_3   0.537810 0.339550 0.509190 -0.373750
O10   O     O_3   0.462190 0.839550 0.490810 -0.373756
V1    V     V_3+5 0.492990 0.064280 0.498300 1.436071
V2    V     V_3+5 0.507010 0.564280 0.501700 1.436068
C5    C     C_R   0.863895 0.016594 0.696792 -0.167534
C6    C     C_R   0.136124 0.516853 0.303190 -0.167543
H1    H     H_    0.951481 0.044098 0.760770 0.106092
H2    H     H_    0.048538 0.544339 0.239213 0.106099
H3    H     H_    0.780909 0.012653 0.581808 0.118273
H4    H     H_    0.219119 0.513071 0.418166 0.118281
H5    H     H_    0.881026 0.057001 0.649260 0.112611
H6    H     H_    0.119002 0.557382 0.350713 0.112611
C7    C     C_R   0.884513 0.945612 0.821406 -0.041719
C8    C     C_R   0.115489 0.445641 0.178594 -0.041739
C9    C     C_R   0.589196 0.817487 0.740148 -0.286525
C10   C     C_R   0.410789 0.317253 0.259858 -0.286516
C11   C     C_R   0.622563 0.846186 0.807545 0.398037
C12   C     C_R   0.377420 0.345845 0.192455 0.398035
C13   C     C_R   0.684082 0.902142 0.815458 0.099119
C14   C     C_R   0.315911 0.401908 0.184533 0.099119
C15   C     C_R   0.714329 0.907431 0.754593 -0.038849
C16   C     C_R   0.285672 0.407386 0.245401 -0.038847
C17   C     C_R   0.676985 0.897421 0.686203 0.041070
C18   C     C_R   0.323020 0.397477 0.313790 0.041074
C19   C     C_R   0.779152 0.930220 0.757635 0.096128
C20   C     C_R   0.220852 0.430251 0.242359 0.096126
C21   C     C_R   0.802006 0.976754 0.694788 0.149291
C22   C     C_R   0.198009 0.476947 0.305196 0.149295
C23   C     C_R   0.763416 0.980219 0.629942 -0.205075
C24   C     C_R   0.236604 0.480509 0.370039 -0.205082
C25   C     C_R   0.702537 0.934767 0.625346 -0.159391
C26   C     C_R   0.297478 0.434994 0.374641 -0.159414
C27   C     C_R   0.822873 0.900242 0.819335 -0.240959
C28   C     C_R   0.177123 0.400200 0.180671 -0.240965
C29   C     C_R   0.904320 0.006780 0.759989 -0.161708
C30   C     C_R   0.095694 0.506958 0.239999 -0.161691
C31   C     C_R   0.614363 0.852712 0.679720 -0.118778
C32   C     C_R   0.385635 0.352679 0.320279 -0.118788
H7    H     H_    0.810463 0.841161 0.866239 0.134321
H8    H     H_    0.189523 0.341016 0.133778 0.134339
H9    H     H_    0.541642 0.779321 0.734643 0.123149
H10   H     H_    0.458335 0.279006 0.265367 0.123158
H11   H     H_    0.675257 0.932125 0.573312 0.102695
H12   H     H_    0.324762 0.432431 0.426673 0.102733
C33   C     C_3   0.774970 0.809187 0.309366 0.127386
C34   C     C_3   0.225026 0.309216 0.690629 0.127387
C35   C     C_3   0.798119 0.993559 0.282637 0.191142
C36   C     C_3   0.201889 0.493589 0.717369 0.191142
H13   H     H_    0.717257 0.207719 0.280796 0.144460
H14   H     H_    0.282765 0.707713 0.719225 0.144471
C37   C     C_1   0.875097 0.940062 0.120741 -0.191141
C38   C     C_1   0.124903 0.440068 0.879259 -0.191142
C39   C     C_1   0.624646 0.854313 0.379164 -0.172301
C40   C     C_1   0.375354 0.354307 0.620836 -0.172304
C41   C     C_3   0.768613 0.726714 0.233792 -0.242591
C42   C     C_3   0.231376 0.226718 0.766198 -0.242591
C43   C     C_3   0.791283 0.912639 0.207291 0.037701
C44   C     C_3   0.208718 0.412644 0.792710 0.037702
C45   C     C_3   0.703433 0.803956 0.218791 0.389925
C46   C     C_3   0.296561 0.303926 0.781205 0.389921
C47   C     C_3   0.709175 0.882742 0.293528 0.063642
C48   C     C_3   0.290825 0.382737 0.706473 0.063640
C49   C     C_3   0.725496 0.987031 0.190696 -0.207758
C50   C     C_3   0.274510 0.487003 0.809311 -0.207750
C51   C     C_3   0.732046 0.067971 0.266809 -0.225018
C52   C     C_3   0.267966 0.567968 0.733204 -0.225023
C53   C     C_1   0.837121 0.928636 0.159434 -0.038047
C54   C     C_1   0.162879 0.428643 0.840567 -0.038048
C55   C     C_1   0.662731 0.866027 0.340618 -0.002370
C56   C     C_1   0.337269 0.366019 0.659383 -0.002373
H15   H     H_    0.704706 0.057375 0.141284 0.141224
H16   H     H_    0.295305 0.557322 0.858727 0.141226
H17   H     H_    0.782807 0.586492 0.219581 0.128585
H18   H     H_    0.217172 0.086497 0.780400 0.128581
O11   O     O_R   0.056650 0.288730 0.942060 -0.532270
O12   O     O_R   0.943350 0.788730 0.057940 -0.532270
O13   O     O_R   0.058660 0.616870 0.085540 -0.535105
O14   O     O_R   0.941340 0.116870 0.914460 -0.535103
C57   C     C_R   0.072710 0.448981 0.111230 0.683378
C58   C     C_R   0.927290 0.948976 0.888770 0.683379
O15   O     O_R   0.063700 0.618520 0.944220 -0.534781
O16   O     O_R   0.936300 0.118520 0.055780 -0.534782
O17   O     O_R   0.948460 0.787610 0.915680 -0.533253
O18   O     O_R   0.051540 0.287610 0.084320 -0.533255
C59   C     C_R   0.078930 0.449981 0.924810 0.713063
C60   C     C_R   0.921070 0.949980 0.075190 0.713057
O19   O     O_3   0.962230 0.453430 0.990860 -0.373171
O20   O     O_3   0.037770 0.953430 0.009140 -0.373173
V3    V     V_3+5 0.007010 0.728750 0.001700 1.417706
V4    V     V_3+5 0.992990 0.228750 0.998300 1.417702
C61   C     C_3   0.798831 0.700847 0.376516 -0.341702
C62   C     C_3   0.865485 0.648056 0.380662 -0.766777
H19   H     H_    0.871856 0.560842 0.334833 0.231452
H20   H     H_    0.894615 0.772010 0.381817 0.230642
H21   H     H_    0.880405 0.570219 0.430186 0.216219
H22   H     H_    0.792680 0.783501 0.423540 0.172845
H23   H     H_    0.771341 0.573147 0.377063 0.177150
C63   C     C_3   0.201157 0.200908 0.623473 -0.341690
C64   C     C_3   0.134500 0.148140 0.619326 -0.766770
H24   H     H_    0.128126 0.060915 0.665150 0.231448
H25   H     H_    0.105377 0.272104 0.618180 0.230641
H26   H     H_    0.119574 0.070324 0.569797 0.216209
H27   H     H_    0.207312 0.283577 0.576454 0.172848
H28   H     H_    0.228639 0.073200 0.622916 0.177150
O21   O     O_3   0.652982 0.704497 0.185979 -0.633249
H29   H     H_    0.662289 0.671370 0.138738 0.289450
O22   O     O_3   0.347004 0.204435 0.814012 -0.633256
H30   H     H_    0.337694 0.171298 0.861250 0.289445
C65   C     C_3   0.710066 0.990572 0.886007 -0.313399
C66   C     C_3   0.724028 0.849314 0.946064 -0.708629
H31   H     H_    0.682334 0.815361 0.968153 0.262252
H32   H     H_    0.742619 0.719046 0.927727 0.213343
H33   H     H_    0.757591 0.908499 0.989330 0.197516
H34   H     H_    0.750263 0.077684 0.882466 0.158210
H35   H     H_    0.676506 0.091276 0.900579 0.203003
C67   C     C_3   0.289937 0.490230 0.113962 -0.313398
C68   C     C_3   0.275950 0.348867 0.053943 -0.708624
H36   H     H_    0.317635 0.314815 0.031852 0.262242
H37   H     H_    0.257347 0.218661 0.072319 0.213351
H38   H     H_    0.242388 0.408009 0.010667 0.197512
H39   H     H_    0.249754 0.577413 0.117484 0.158202
H40   H     H_    0.323512 0.590846 0.099359 0.202999
O23   O     O_3   0.594700 0.831370 0.866710 -0.641925
H41   H     H_    0.551858 0.792367 0.852427 0.297790
O24   O     O_3   0.405271 0.330807 0.133289 -0.641923
H42   H     H_    0.448093 0.291609 0.147573 0.297780
C69   C     C_3   0.852777 0.110683 0.314512 -0.339751
C70   C     C_3   0.849690 0.168199 0.390283 -0.781387
H43   H     H_    0.808115 0.250774 0.392496 0.231247
H44   H     H_    0.849913 0.046579 0.425173 0.230256
H45   H     H_    0.890311 0.252020 0.410717 0.219497
H46   H     H_    0.895305 0.032551 0.312754 0.175055
H47   H     H_    0.853968 0.236626 0.281709 0.174111
C71   C     C_3   0.147240 0.610747 0.685499 -0.339756
C72   C     C_3   0.150330 0.668272 0.609731 -0.781377
H48   H     H_    0.191913 0.750814 0.607519 0.231236
H49   H     H_    0.150093 0.546658 0.574834 0.230254
H50   H     H_    0.109717 0.752126 0.589302 0.219502
H51   H     H_    0.104706 0.532636 0.687254 0.175056
H52   H     H_    0.146058 0.736686 0.718307 0.174111

loop_
_geom_bond_atom_site_label_1
_geom_bond_atom_site_label_2
_ccdc_geom_bond_type
C12   C14   A    
O18   V4    S    
C9    C11   A    
C42   H18   S    
C72   H48   S    
O1    C3    A    
C70   H45   S    
C46   C50   S    
O2    C4    A    
C67   C68   S    
C50   H16   S    
C2    O7    A    
C62   H20   S    
O12   V3    S    
O3    V1    S    
O23   H41   S    
C21   C23   A    
C37   C53   T    
O5    C3    A    
C36   C52   S    
C5    H5    S    
C36   C71   S    
C6    H6    S    
C72   H49   S    
C70   H44   S    
C68   H36   S    
C37   C60   S    
H1    C29   S    
C33   C35   S    
C27   H7    S    
C34   C36   S    
C28   H8    S    
C5    C21   A    
C33   C47   S    
C6    C22   A    
C63   C64   S    
O14   V4    S    
C57   O18   A    
C10   C32   A    
C2    C39   S    
C64   H24   S    
H13   C51   S    
C17   C31   A    
C13   C15   A    
C61   H22   S    
C35   C69   S    
O13   C57   A    
C17   C25   A    
C7    C29   A    
C16   C18   A    
C8    C30   A    
C68   H38   S    
C22   C24   A    
O6    V2    S    
C12   O24   S    
C16   C20   A    
C63   H28   S    
C38   C54   T    
C35   C51   S    
C24   C26   A    
C48   C56   S    
C47   C55   S    
C62   H19   S    
C4    C31   S    
C33   C61   S    
C69   C70   S    
C41   H17   S    
C45   O21   S    
C44   C54   S    
C72   H50   S    
C70   H43   S    
C13   C65   S    
C46   C48   S    
O15   V3    S    
C45   C47   S    
C10   H10   S    
C8    C57   S    
C58   O17   A    
C15   C19   A    
C42   C46   S    
C41   C43   S    
C14   C16   A    
O4    V2    S    
C67   H40   S    
C40   C56   T    
O11   V4    S    
C69   H46   S    
C26   H12   S    
O15   C59   A    
O14   C58   A    
O10   V1    S    
C36   C44   S    
O6    C4    A    
C64   H25   S    
O1    V2    S    
O2    V1    S    
C49   C51   S    
C65   C66   S    
H2    C30   S    
C35   C43   S    
H3    C23   S    
C34   C42   S    
C38   C59   S    
C11   O23   S    
C45   C49   S    
C44   C50   S    
C71   H52   S    
C43   C53   S    
O4    C2    A    
C66   H32   S    
C7    C27   A    
C18   C32   A    
C34   C48   S    
C71   C72   S    
C25   H11   S    
C69   H47   S    
C7    C58   S    
C47   C51   S    
O13   V3    S    
C34   C63   S    
H14   C52   S    
C23   C25   A    
C5    C29   A    
C50   C52   S    
C1    C40   S    
O3    C1    A    
C6    C30   A    
O22   H30   S    
C9    H9    S    
C65   H35   S    
O24   H42   S    
C61   H23   S    
C14   C67   S    
C66   H33   S    
C10   C12   A    
O7    V1    S    
C65   H34   S    
C19   C21   A    
C3    C32   S    
O8    V2    S    
O21   H29   S    
C20   C22   A    
C33   C41   S    
C49   H15   S    
H4    C24   S    
C46   O22   S    
O5    V1    S    
O20   V3    S    
C15   C17   A    
C43   C49   S    
C64   H26   S    
C41   C45   S    
C20   C28   A    
C18   C26   A    
C8    C28   A    
C71   H51   S    
O17   V3    S    
C1    O8    A    
O19   V4    S    
O16   V4    S    
C11   C13   A    
C48   C52   S    
O9    V2    S    
C61   C62   S    
C42   C44   S    
O16   C60   A    
C39   C55   T    
C68   H37   S    
C66   H31   S    
C67   H39   S    
C19   C27   A    
C63   H27   S    
C62   H21   S    
O12   C60   A    
C9    C31   A    
O11   C59   A    
