data_str_m9_o18_o18_f0_sra.sym.26
_audit_creation_date              2012-12-11T15:26:34-0500
_audit_creation_method            fapswitch 2.2
_symmetry_space_group_name_H-M    P1
_symmetry_Int_Tables_number       1
_space_group_crystal_system       triclinic
_cell_length_a                    7.222723
_cell_length_b                    12.072396
_cell_length_c                    29.109504
_cell_angle_alpha                 90.000647
_cell_angle_beta                  89.986763
_cell_angle_gamma                 90.003246
_cell_volume                      2538.21978735

loop_
_atom_site_label
_atom_site_type_symbol
_atom_type_description
_atom_site_fract_x
_atom_site_fract_y
_atom_site_fract_z
_atom_type_partial_charge
O1    O     O_R   0.647170 0.849180 0.201220 -0.535748
O2    O     O_R   0.352830 0.150820 0.798780 -0.535745
O3    O     O_R   0.352830 0.150820 0.701220 -0.535745
O4    O     O_R   0.647170 0.849180 0.298780 -0.535745
O5    O     O_R   0.147170 0.650820 0.298780 -0.535750
O6    O     O_R   0.852830 0.349180 0.701220 -0.535750
O7    O     O_R   0.852830 0.349180 0.798780 -0.535748
O8    O     O_R   0.147170 0.650820 0.201220 -0.535748
O9    O     O_R   0.317430 0.862210 0.298450 -0.537812
O10   O     O_R   0.682570 0.137790 0.701550 -0.537811
O11   O     O_R   0.682570 0.137790 0.798450 -0.537805
O12   O     O_R   0.317430 0.862210 0.201550 -0.537802
O13   O     O_R   0.817430 0.637790 0.201550 -0.537804
O14   O     O_R   0.182570 0.362210 0.798450 -0.537806
O15   O     O_R   0.182570 0.362210 0.701550 -0.537812
O16   O     O_R   0.817430 0.637790 0.298450 -0.537812
C1    C     C_R   0.485705 0.887973 0.313350 0.681876
C2    C     C_R   0.514295 0.112027 0.686650 0.681877
C3    C     C_R   0.514263 0.112027 0.813349 0.681880
C4    C     C_R   0.485738 0.887975 0.186652 0.681878
C5    C     C_R   0.985728 0.612025 0.186651 0.681888
C6    C     C_R   0.014272 0.387974 0.813349 0.681890
C7    C     C_R   0.014305 0.387971 0.686649 0.681882
C8    C     C_R   0.985695 0.612029 0.313351 0.681882
H1    H     H_    0.990997 0.258711 0.372051 0.171271
H2    H     H_    0.008986 0.741289 0.627949 0.171271
H3    H     H_    0.006656 0.741292 0.872040 0.171269
H4    H     H_    0.993424 0.258712 0.127955 0.171270
H5    H     H_    0.494199 0.241288 0.127964 0.171274
H6    H     H_    0.505791 0.758719 0.872039 0.171275
H7    H     H_    0.507950 0.758711 0.627951 0.171275
H8    H     H_    0.492045 0.241288 0.372050 0.171275
H9    H     H_    0.001432 0.337647 0.599676 0.095222
H10   H     H_    0.998579 0.662352 0.400323 0.095222
H11   H     H_    0.997126 0.662365 0.099672 0.095198
H12   H     H_    0.002898 0.337641 0.900328 0.095196
H13   H     H_    0.503661 0.162370 0.900333 0.095189
H14   H     H_    0.496516 0.837639 0.099668 0.095191
H15   H     H_    0.497692 0.837642 0.400325 0.095207
H16   H     H_    0.502305 0.162357 0.599675 0.095207
O17   O     O_3   0.480630 0.680630 0.250000 -0.376292
O18   O     O_3   0.519370 0.319370 0.750000 -0.376292
O19   O     O_3   0.980630 0.819370 0.250000 -0.376292
O20   O     O_3   0.019370 0.180630 0.750000 -0.376292
V1    V     V_3+5 0.205800 0.762860 0.250000 1.453048
V2    V     V_3+5 0.794200 0.237140 0.750000 1.453047
V3    V     V_3+5 0.705800 0.737140 0.250000 1.453047
V4    V     V_3+5 0.294200 0.262860 0.750000 1.453048
H17   H     H_    0.000803 0.283189 0.533328 0.152202
H18   H     H_    0.999177 0.716810 0.466672 0.152202
H19   H     H_    0.998921 0.716820 0.033326 0.152206
H20   H     H_    0.001613 0.283193 0.966673 0.152209
H21   H     H_    0.500986 0.216822 0.966677 0.152207
H22   H     H_    0.499344 0.783189 0.033325 0.152208
H23   H     H_    0.499823 0.783187 0.466670 0.152203
H24   H     H_    0.500157 0.216812 0.533331 0.152203
C9    C     C_R   0.992862 0.533736 0.351697 -0.023511
C10   C     C_R   0.007137 0.466263 0.648303 -0.023511
C11   C     C_R   0.006974 0.466260 0.851696 -0.023475
C12   C     C_R   0.993037 0.533742 0.148303 -0.023475
C13   C     C_R   0.493096 0.966257 0.148304 -0.023464
C14   C     C_R   0.506920 0.033749 0.851697 -0.023458
C15   C     C_R   0.507068 0.033739 0.648303 -0.023494
C16   C     C_R   0.492931 0.966261 0.351697 -0.023493
C17   C     C_R   0.992827 0.346193 0.380060 -0.089732
C18   C     C_R   0.007161 0.653806 0.619940 -0.089732
C19   C     C_R   0.005622 0.653807 0.880052 -0.089714
C20   C     C_R   0.994463 0.346198 0.119944 -0.089706
C21   C     C_R   0.494984 0.153802 0.119950 -0.089734
C22   C     C_R   0.505051 0.846205 0.880053 -0.089727
C23   C     C_R   0.506470 0.846195 0.619941 -0.089741
C24   C     C_R   0.493524 0.153804 0.380059 -0.089741
C25   C     C_R   0.990271 0.420207 0.343442 -0.193514
C26   C     C_R   0.009721 0.579793 0.656558 -0.193513
C27   C     C_R   0.008420 0.579793 0.843435 -0.193553
C28   C     C_R   0.991581 0.420208 0.156562 -0.193548
C29   C     C_R   0.492076 0.079790 0.156566 -0.193556
C30   C     C_R   0.507880 0.920216 0.843435 -0.193560
C31   C     C_R   0.509068 0.920207 0.656559 -0.193527
C32   C     C_R   0.490931 0.079792 0.343441 -0.193528
C33   C     C_R   0.997287 0.573657 0.396733 -0.162633
C34   C     C_R   0.002714 0.426342 0.603267 -0.162632
C35   C     C_R   0.003253 0.426338 0.896734 -0.162605
C36   C     C_R   0.996827 0.573668 0.103265 -0.162602
C37   C     C_R   0.496632 0.926334 0.103265 -0.162596
C38   C     C_R   0.503506 0.073675 0.896737 -0.162596
C39   C     C_R   0.503001 0.073662 0.603267 -0.162613
C40   C     C_R   0.496995 0.926338 0.396733 -0.162613
C41   C     C_R   0.998060 0.500570 0.434927 0.088461
C42   C     C_R   0.001935 0.499429 0.565073 0.088461
C43   C     C_R   0.001939 0.499430 0.934927 0.088454
C44   C     C_R   0.998247 0.500580 0.065072 0.088454
C45   C     C_R   0.498278 0.999426 0.065074 0.088453
C46   C     C_R   0.501910 0.000584 0.934928 0.088454
C47   C     C_R   0.501895 0.000572 0.565073 0.088460
C48   C     C_R   0.498095 0.999427 0.434928 0.088460
C49   C     C_R   0.996405 0.384589 0.425820 0.109140
C50   C     C_R   0.003585 0.615411 0.574180 0.109141
C51   C     C_R   0.002748 0.615412 0.925816 0.109150
C52   C     C_R   0.997441 0.384597 0.074181 0.109155
C53   C     C_R   0.497662 0.115408 0.074186 0.109140
C54   C     C_R   0.502497 0.884602 0.925817 0.109148
C55   C     C_R   0.503282 0.884591 0.574180 0.109139
C56   C     C_R   0.496708 0.115408 0.425820 0.109139
C57   C     C_R   0.999686 0.539035 0.481567 0.034519
C58   C     C_R   0.000307 0.460964 0.518433 0.034519
C59   C     C_R   0.000603 0.460969 0.981567 0.034502
C60   C     C_R   0.999663 0.539043 0.018432 0.034502
C61   C     C_R   0.499685 0.960968 0.018433 0.034505
C62   C     C_R   0.500556 0.039044 0.981569 0.034506
C63   C     C_R   0.500264 0.039036 0.518434 0.034517
C64   C     C_R   0.499723 0.960964 0.481567 0.034517
C65   C     C_R   0.999739 0.346859 0.507533 -0.153707
C66   C     C_R   0.000247 0.653140 0.492467 -0.153708
C67   C     C_R   0.999838 0.653148 0.007530 -0.153721
C68   C     C_R   0.000541 0.346865 0.992468 -0.153729
C69   C     C_R   0.500313 0.153149 0.992473 -0.153708
C70   C     C_R   0.499963 0.846863 0.007530 -0.153719
C71   C     C_R   0.500458 0.846859 0.492466 -0.153712
C72   C     C_R   0.499526 0.153141 0.507534 -0.153712
C73   C     C_R   0.997770 0.309072 0.462462 0.395001
C74   C     C_R   0.002215 0.690927 0.537538 0.395001
C75   C     C_R   0.001323 0.690932 0.962458 0.395007
C76   C     C_R   0.998992 0.309079 0.037540 0.394998
C77   C     C_R   0.499017 0.190929 0.037546 0.395003
C78   C     C_R   0.501223 0.809082 0.962457 0.395002
C79   C     C_R   0.502128 0.809073 0.537538 0.394997
C80   C     C_R   0.497858 0.190926 0.462463 0.394997
Cl1   Cl    Cl    0.997074 0.164089 0.453930 -0.670423
Cl2   Cl    Cl    0.002905 0.835911 0.546070 -0.670423
Cl3   Cl    Cl    0.001596 0.835915 0.953924 -0.670412
Cl4   Cl    Cl    0.998782 0.164095 0.046072 -0.670415
Cl5   Cl    Cl    0.498718 0.335913 0.046081 -0.670424
Cl6   Cl    Cl    0.501559 0.664098 0.953923 -0.670425
Cl7   Cl    Cl    0.502916 0.664089 0.546068 -0.670424
Cl8   Cl    Cl    0.497067 0.335910 0.453932 -0.670424
H25   H     H_    0.013935 0.611131 0.691425 0.101011
H26   H     H_    0.986055 0.388869 0.308575 0.101012
H27   H     H_    0.987951 0.388865 0.191432 0.100993
H28   H     H_    0.011987 0.611131 0.808563 0.100993
H29   H     H_    0.511154 0.888871 0.808563 0.100988
H30   H     H_    0.488705 0.111133 0.191439 0.100989
H31   H     H_    0.487068 0.111132 0.308572 0.101003
H32   H     H_    0.512933 0.888868 0.691428 0.101004

loop_
_geom_bond_atom_site_label_1
_geom_bond_atom_site_label_2
_ccdc_geom_bond_type
C7    C10   S    
H17   C65   S    
C40   C48   A    
O9    V1    S    
C22   C30   A    
C16   C32   A    
C21   C29   A    
C63   C64   A    
C23   C31   A    
H8    C24   S    
C15   C31   A    
C14   C38   A    
O11   C3    A    
H15   C40   S    
H16   C39   S    
C74   Cl2   S    
H4    C20   S    
C11   C35   A    
C27   H28   S    
C80   Cl8   S    
C1    C16   S    
O6    V2    S    
H21   C69   S    
C2    C15   S    
C25   H26   S    
H12   C35   S    
C18   C26   A    
O3    V4    S    
C17   C25   A    
C76   Cl4   S    
O3    C2    A    
C9    C25   A    
C4    C13   S    
O8    V1    S    
C49   C73   A    
C38   C46   A    
C29   H30   S    
C37   C45   A    
C44   C60   A    
O20   V2    S    
C8    C9    S    
C39   C47   A    
O10   V2    S    
C53   C77   A    
C59   C60   A    
H10   C33   S    
C55   C79   A    
H9    C34   S    
C19   C51   A    
C33   C41   A    
O15   C7    A    
C60   C67   A    
O16   C8    A    
H24   C72   S    
O15   V4    S    
O16   V3    S    
H6    C22   S    
C47   C55   A    
C61   C70   A    
H5    C21   S    
H20   C68   S    
C26   H25   S    
C67   C75   A    
H14   C37   S    
H2    C18   S    
O7    V2    S    
C43   C59   A    
C57   C66   A    
H1    C17   S    
C42   C58   A    
C5    C12   S    
C30   H29   S    
C13   C29   A    
C6    C11   S    
O13   V3    S    
C44   C52   A    
O1    V3    S    
O14   V4    S    
C24   C56   A    
O2    V4    S    
O5    V1    S    
C46   C62   A    
H19   C67   S    
C41   C49   A    
C63   C72   A    
H18   C66   S    
C20   C52   A    
C48   C64   A    
H13   C38   S    
C31   H32   S    
C56   C80   A    
C32   H31   S    
C75   Cl3   S    
O12   C4    A    
C22   C54   A    
O8    C5    A    
O17   V3    S    
O13   C5    A    
O18   V4    S    
C36   C44   A    
O19   V1    S    
C46   C54   A    
C13   C37   A    
C58   C65   A    
O9    C1    A    
C48   C56   A    
C9    C33   A    
C19   C27   A    
O4    C1    A    
C45   C53   A    
H22   C70   S    
C11   C27   A    
C10   C26   A    
C51   C75   A    
C28   H27   S    
C77   Cl5   S    
C50   C74   A    
C23   C55   A    
O1    C4    A    
C16   C40   A    
C68   C76   A    
C15   C39   A    
O2    C3    A    
C14   C30   A    
C73   Cl1   S    
O12   V1    S    
C54   C78   A    
C64   C71   A    
H11   C36   S    
C72   C80   A    
C21   C53   A    
C20   C28   A    
O7    C6    A    
C35   C43   A    
C57   C58   A    
C34   C42   A    
C43   C51   A    
C18   C50   A    
C10   C34   A    
C17   C49   A    
C70   C78   A    
C47   C63   A    
C61   C62   A    
C12   C36   A    
O14   C6    A    
O5    C8    A    
O10   C2    A    
C62   C69   A    
O6    C7    A    
H7    C23   S    
C12   C28   A    
C79   Cl7   S    
C59   C68   A    
H3    C19   S    
C66   C74   A    
H23   C71   S    
C65   C73   A    
C78   Cl6   S    
C24   C32   A    
C41   C57   A    
O11   V2    S    
C3    C14   S    
C52   C76   A    
C69   C77   A    
C42   C50   A    
C45   C61   A    
O4    V3    S    
C71   C79   A    
