data_str_m9_o17_o18_f0_sra.sym.82
_audit_creation_date              2012-12-11T15:18:41-0500
_audit_creation_method            fapswitch 2.2
_symmetry_space_group_name_H-M    P1
_symmetry_Int_Tables_number       1
_space_group_crystal_system       triclinic
_cell_length_a                    6.937604
_cell_length_b                    19.914606
_cell_length_c                    23.72731
_cell_angle_alpha                 93.390276
_cell_angle_beta                  91.227128
_cell_angle_gamma                 88.84489
_cell_volume                      3271.08291619

loop_
_atom_site_label
_atom_site_type_symbol
_atom_type_description
_atom_site_fract_x
_atom_site_fract_y
_atom_site_fract_z
_atom_type_partial_charge
O1    O     O_R   0.620100 0.812200 0.810870 -0.538443
O2    O     O_R   0.379900 0.187800 0.189130 -0.538435
O3    O     O_R   0.296960 0.671650 0.794750 -0.537757
O4    O     O_R   0.703040 0.328350 0.205250 -0.538049
O5    O     O_R   0.120160 0.687800 0.689130 -0.537169
O6    O     O_R   0.879840 0.312200 0.310870 -0.537445
C1    C     C_R   0.468299 0.647114 0.804892 0.705211
C2    C     C_R   0.531670 0.352830 0.195038 0.703494
O7    O     O_R   0.290810 0.810670 0.817290 -0.543792
O8    O     O_R   0.709190 0.189330 0.182710 -0.543705
O9    O     O_R   0.113980 0.827820 0.711840 -0.535958
O10   O     O_R   0.886020 0.172180 0.288160 -0.536069
C3    C     C_R   0.459630 0.831884 0.834233 0.704430
C4    C     C_R   0.540369 0.168116 0.165766 0.704551
O11   O     O_R   0.626290 0.672180 0.788160 -0.538052
O12   O     O_R   0.373710 0.327820 0.211840 -0.537573
O13   O     O_3   0.451520 0.755460 0.715370 -0.366987
O14   O     O_3   0.548480 0.244540 0.284630 -0.367264
V1    V     V_3+5 0.179200 0.748980 0.756420 1.405075
V2    V     V_3+5 0.820800 0.251020 0.243580 1.403633
O15   O     O_R   0.783880 0.828350 0.705250 -0.537953
O16   O     O_R   0.216120 0.171650 0.294750 -0.538244
C5    C     C_R   0.950459 0.852750 0.694845 0.714565
C6    C     C_R   0.049552 0.147221 0.305127 0.713976
O17   O     O_R   0.790030 0.689320 0.682700 -0.545340
O18   O     O_R   0.209970 0.310680 0.317300 -0.544268
C7    C     C_R   0.958515 0.667357 0.666446 0.705575
C8    C     C_R   0.041536 0.332821 0.333399 0.707321
V3    V     V_3+5 0.678400 0.751010 0.743570 1.401265
V4    V     V_3+5 0.321600 0.248990 0.256430 1.401769
O19   O     O_3   0.955950 0.744540 0.784620 -0.367883
O20   O     O_3   0.044050 0.255460 0.215380 -0.367870
C9    C     C_R   0.140361 0.443271 0.382361 0.174392
C10   C     C_R   0.859295 0.558102 0.615421 0.168746
C11   C     C_R   0.032644 0.383899 0.381449 -0.114768
C12   C     C_R   0.967996 0.617245 0.617716 -0.136008
C13   C     C_R   0.909954 0.373342 0.425511 -0.250465
C14   C     C_R   0.093882 0.628081 0.574352 -0.236919
C15   C     C_R   0.888788 0.420697 0.471485 0.040159
C16   C     C_R   0.107793 0.583332 0.526175 0.047321
C17   C     C_R   0.005624 0.478741 0.474709 -0.060323
C18   C     C_R   0.995883 0.524318 0.522981 -0.079523
C19   C     C_R   0.132524 0.490803 0.429914 0.043930
C20   C     C_R   0.878942 0.509726 0.569149 0.055622
C21   C     C_R   0.762325 0.408856 0.515999 0.072662
C22   C     C_R   0.233991 0.595884 0.481864 0.128898
C23   C     C_R   0.782994 0.447346 0.567778 0.225582
C24   C     C_R   0.250408 0.549044 0.435063 0.162061
H1    H     H_    0.839894 0.325326 0.424340 0.116613
H2    H     H_    0.178738 0.672948 0.579112 0.136394
C25   C     C_R   0.952832 0.915564 0.664549 -0.116951
C26   C     C_R   0.047240 0.084382 0.335405 -0.116901
C27   C     C_R   0.932500 0.038129 0.665463 0.156647
C28   C     C_R   0.068038 0.961816 0.334484 0.156117
C29   C     C_R   0.931950 0.978175 0.694417 0.150854
C30   C     C_R   0.068349 0.021781 0.305534 0.151199
C31   C     C_R   0.974395 0.912445 0.605893 -0.259662
C32   C     C_R   0.025703 0.087472 0.394060 -0.260292
C33   C     C_R   0.976569 0.971437 0.574938 0.057700
C34   C     C_R   0.023888 0.028471 0.425015 0.057817
C35   C     C_R   0.958545 0.034804 0.605731 0.057943
C36   C     C_R   0.042083 0.965116 0.394221 0.057558
C37   C     C_R   0.997073 0.969410 0.514424 0.085518
C38   C     C_R   0.003544 0.030488 0.485532 0.085511
C39   C     C_R   0.990933 0.091707 0.518224 -0.193184
C40   C     C_R   0.009972 0.908190 0.481737 -0.192300
C41   C     C_R   0.968477 0.093711 0.576227 -0.199276
C42   C     C_R   0.032449 0.906198 0.423732 -0.198541
H3    H     H_    0.961643 0.143136 0.597431 0.134006
H4    H     H_    0.039535 0.856774 0.402531 0.135456
H5    H     H_    0.009231 0.137176 0.413956 0.108180
H6    H     H_    0.990556 0.862727 0.585996 0.108099
H7    H     H_    0.999063 0.139998 0.500460 0.118110
H8    H     H_    0.002190 0.859892 0.499512 0.117531
C43   C     C_R   0.488273 0.585512 0.836221 -0.083068
C44   C     C_R   0.511580 0.414360 0.163618 -0.081843
C45   C     C_R   0.599870 0.469131 0.837662 0.141184
C46   C     C_R   0.399781 0.530687 0.162032 0.144195
C47   C     C_R   0.553707 0.526334 0.808110 -0.174078
C48   C     C_R   0.445714 0.473529 0.191646 -0.174170
C49   C     C_R   0.452345 0.586015 0.894128 -0.220162
C50   C     C_R   0.547637 0.413789 0.105704 -0.220395
C51   C     C_R   0.502823 0.529506 0.925683 0.047432
C52   C     C_R   0.496879 0.470217 0.074070 0.047007
C53   C     C_R   0.604633 0.474829 0.897816 0.049785
C54   C     C_R   0.394994 0.524904 0.101895 0.050032
C55   C     C_R   0.461261 0.526664 0.984279 0.025088
C56   C     C_R   0.538330 0.473012 0.015455 0.025195
C57   C     C_R   0.668299 0.427115 0.988490 -0.201283
C58   C     C_R   0.331162 0.572534 0.011217 -0.201420
C59   C     C_R   0.711942 0.430107 0.931359 0.109848
C60   C     C_R   0.287576 0.569574 0.068345 0.109728
H9    H     H_    0.602115 0.367355 0.085632 0.103173
H10   H     H_    0.398149 0.632454 0.914264 0.103123
H11   H     H_    0.434729 0.475604 0.237102 0.128138
H12   H     H_    0.564171 0.524309 0.762640 0.131589
H13   H     H_    0.749292 0.391246 0.012329 0.131405
H14   H     H_    0.250043 0.608355 0.987358 0.131446
C61   C     C_R   0.683118 0.073163 0.105019 -0.203979
C62   C     C_R   0.316883 0.926839 0.894979 -0.204008
C63   C     C_R   0.529777 0.118865 0.116352 -0.108154
C64   C     C_R   0.470223 0.881137 0.883647 -0.108122
C65   C     C_R   0.365024 0.116658 0.080849 -0.177188
C66   C     C_R   0.634977 0.883344 0.919149 -0.177177
C67   C     C_R   0.353676 0.070204 0.034055 0.089468
C68   C     C_R   0.646326 0.929799 0.965943 0.089463
C69   C     C_R   0.506573 0.023700 0.023340 -0.011389
C70   C     C_R   0.493429 0.976302 0.976658 -0.011397
C71   C     C_R   0.672190 0.024561 0.059357 0.086949
C72   C     C_R   0.327812 0.975442 0.940641 0.086946
C73   C     C_R   0.191378 0.069809 0.997809 -0.186490
C74   C     C_R   0.808624 0.930194 0.002189 -0.186429
C75   C     C_R   0.177193 0.023212 0.951026 0.186266
C76   C     C_R   0.822810 0.976791 0.048971 0.186273
H15   H     H_    0.809442 0.074999 0.132637 0.152525
H16   H     H_    0.190558 0.925002 0.867362 0.152518
H17   H     H_    0.246466 0.151923 0.089172 0.123576
H18   H     H_    0.753535 0.848079 0.910827 0.123560
H19   H     H_    0.074875 0.105940 0.005984 0.122426
H20   H     H_    0.925128 0.894063 0.994014 0.122432
N1    N     N_3   0.249447 0.456364 0.333690 -0.713956
H21   H     H_    0.361767 0.420838 0.329256 0.239013
H22   H     H_    0.159051 0.453073 0.297829 0.220173
N2    N     N_3   0.726283 0.547596 0.659428 -0.643925
H23   H     H_    0.800291 0.551696 0.698285 0.210787
H24   H     H_    0.616299 0.584160 0.658666 0.239015
C77   C     C_3   0.894955 0.393676 0.910882 -0.393496
C78   C     C_3   0.073701 0.419077 0.943912 -0.715244
H25   H     H_    0.082406 0.474549 0.942200 0.238850
H26   H     H_    0.070736 0.405941 0.988687 0.221090
H27   H     H_    0.205526 0.395687 0.924821 0.216530
H28   H     H_    0.881559 0.338693 0.915039 0.176296
H29   H     H_    0.923902 0.402264 0.866246 0.182662
C79   C     C_3   0.104578 0.606001 0.088838 -0.393412
C80   C     C_3   0.925780 0.580502 0.055891 -0.715311
H30   H     H_    0.928617 0.593525 0.011087 0.221145
H31   H     H_    0.917146 0.525039 0.057704 0.238850
H32   H     H_    0.793985 0.603923 0.074976 0.216603
H33   H     H_    0.075845 0.597495 0.133506 0.183287
H34   H     H_    0.117846 0.660975 0.084602 0.176405
C81   C     C_3   0.620223 0.402175 0.803833 -0.386549
C82   C     C_3   0.438925 0.385826 0.768170 -0.737214
H35   H     H_    0.309904 0.387920 0.795236 0.223902
H36   H     H_    0.418052 0.421477 0.734225 0.237705
H37   H     H_    0.453468 0.334309 0.747906 0.212065
H38   H     H_    0.746072 0.403438 0.775726 0.179748
H39   H     H_    0.641363 0.359900 0.831840 0.180730
C83   C     C_3   0.380173 0.597713 0.195775 -0.392098
C84   C     C_3   0.562394 0.614067 0.231009 -0.741438
H40   H     H_    0.584718 0.578256 0.264772 0.229375
H41   H     H_    0.690520 0.612201 0.203589 0.227210
H42   H     H_    0.548080 0.665498 0.251456 0.215142
H43   H     H_    0.358368 0.639936 0.167750 0.182537
H44   H     H_    0.255020 0.596532 0.224149 0.179727
N3    N     N_3   0.010270 0.024341 0.914057 -0.668192
H45   H     H_    0.905150 0.057915 0.930551 0.232800
H46   H     H_    0.053039 0.042880 0.876046 0.232766
N4    N     N_3   0.989733 0.975662 0.085940 -0.668161
H47   H     H_    0.094855 0.942090 0.069446 0.232844
H48   H     H_    0.946966 0.957121 0.123951 0.232800
C85   C     C_3   0.597016 0.358998 0.507885 -0.369002
C86   C     C_3   0.402316 0.390866 0.524888 -0.701945
H49   H     H_    0.385272 0.394156 0.571285 0.237314
H50   H     H_    0.388410 0.442150 0.509309 0.236695
H51   H     H_    0.283188 0.359815 0.506245 0.206520
H52   H     H_    0.575133 0.341748 0.463098 0.184275
H53   H     H_    0.627690 0.313506 0.531684 0.164028
C87   C     C_3   0.358171 0.658566 0.484082 -0.328248
C88   C     C_3   0.542005 0.648379 0.519413 -0.711044
H54   H     H_    0.507601 0.637156 0.563286 0.222847
H55   H     H_    0.629759 0.606062 0.500242 0.241815
H56   H     H_    0.628806 0.694699 0.520810 0.204753
H57   H     H_    0.400232 0.671638 0.441271 0.207598
H58   H     H_    0.276247 0.703926 0.499985 0.147182
N5    N     N_3   0.715724 0.422035 0.619521 -0.622196
H59   H     H_    0.680284 0.371408 0.614210 0.216956
H60   H     H_    0.833365 0.421615 0.647835 0.226274
N6    N     N_3   0.397118 0.560739 0.395131 -0.680608
H61   H     H_    0.334140 0.571569 0.356239 0.264437
H62   H     H_    0.493384 0.519690 0.391964 0.262156
N7    N     N_3   0.086510 0.018500 0.245199 -0.686517
H63   H     H_    0.964762 0.041564 0.227486 0.223291
H64   H     H_    0.208317 0.045113 0.235170 0.231996
N8    N     N_3   0.913773 0.981475 0.754752 -0.686536
H65   H     H_    0.035445 0.958371 0.772471 0.223304
H66   H     H_    0.791875 0.954912 0.764783 0.231972
C89   C     C_3   0.905179 0.104928 0.699401 -0.328325
C90   C     C_3   0.099067 0.136551 0.715247 -0.758362
H67   H     H_    0.185394 0.102907 0.742191 0.239147
H68   H     H_    0.181907 0.145492 0.676986 0.221208
H69   H     H_    0.074882 0.185454 0.739254 0.211233
H70   H     H_    0.811418 0.140233 0.676281 0.151445
H71   H     H_    0.826411 0.098386 0.738891 0.213036
C91   C     C_3   0.095515 0.895032 0.300538 -0.328934
C92   C     C_3   0.901708 0.863330 0.284730 -0.755403
H72   H     H_    0.819025 0.854337 0.323006 0.221802
H73   H     H_    0.815183 0.896948 0.257817 0.238495
H74   H     H_    0.925995 0.814448 0.260705 0.212172
H75   H     H_    0.174153 0.901611 0.261033 0.213068
H76   H     H_    0.189455 0.859764 0.323639 0.152902

loop_
_geom_bond_atom_site_label_1
_geom_bond_atom_site_label_2
_ccdc_geom_bond_type
C6    C26   S    
C80   H32   S    
C51   C55   A    
C55   C56   A    
C62   C72   A    
C28   C91   S    
N3    H46   S    
C69   C71   A    
C17   C18   A    
C40   C42   A    
C62   H16   S    
O4    C2    A    
V1    O19   S    
C78   H25   S    
C66   C68   A    
N6    H61   S    
C53   C59   A    
C80   H30   S    
N5    H60   S    
C68   C74   A    
N7    H63   S    
C16   C22   A    
C67   C69   A    
O9    V1    S    
C59   C77   S    
C90   H69   S    
C90   H68   S    
C11   C13   A    
C52   C54   A    
O5    V1    S    
C86   H49   S    
O3    C1    A    
C84   H41   S    
C79   H34   S    
C46   C48   A    
C32   H5    S    
C31   C33   A    
C30   N7    S    
O12   V4    S    
C40   H8    S    
C2    C44   S    
C39   H7    S    
N8    H65   S    
C73   H19   S    
C88   H54   S    
O7    C3    A    
C77   H28   S    
C76   N4    S    
C21   C85   S    
C9    C11   A    
O5    C7    A    
C58   C60   A    
O7    V1    S    
C91   H76   S    
C73   C75   A    
N5    H59   S    
C8    C11   S    
O8    V2    S    
C39   C41   A    
C69   C70   A    
O3    V1    S    
C25   C31   A    
C57   C59   A    
C19   C24   A    
C86   H50   S    
C85   H52   S    
C20   C23   A    
C46   C83   S    
C15   C21   A    
C92   H74   S    
C46   C54   A    
C21   C23   A    
C91   C92   S    
C67   C73   A    
C37   C40   A    
C45   C53   A    
C2    O12   A    
C50   H9    S    
C80   H31   S    
C89   H71   S    
N4    H48   S    
C17   C19   A    
C82   H37   S    
C65   H17   S    
C81   C82   S    
C18   C20   A    
C75   N3    S    
C74   C76   A    
C49   C51   A    
V2    O20   S    
O11   V3    S    
C32   C34   A    
C66   H18   S    
C27   C29   A    
O17   V3    S    
C87   H57   S    
C13   C15   A    
O6    C8    A    
C33   C35   A    
C9    C19   A    
C52   C56   A    
C10   C20   A    
C83   C84   S    
C15   C17   A    
O8    C4    A    
N7    H64   S    
C44   C50   A    
C79   H33   S    
C74   H20   S    
C43   C49   A    
C4    C63   S    
C1    C43   S    
C1    O11   A    
C28   C36   A    
C25   C29   A    
O15   V3    S    
C92   H72   S    
C57   H13   S    
C90   H67   S    
C41   H3    S    
C9    N1    S    
C87   H58   S    
C86   H51   S    
C13   H1    S    
C35   C41   A    
C5    C25   S    
C91   H75   S    
C29   N8    S    
O10   V2    S    
O1    V3    S    
N1    H21   S    
C45   C47   A    
C65   C67   A    
C48   H11   S    
C64   C66   A    
C72   C75   A    
C89   H70   S    
C85   H53   S    
C26   C32   A    
C71   C76   A    
O14   V4    S    
C81   H38   S    
C42   H4    S    
C87   C88   S    
C51   C53   A    
O18   V4    S    
C50   C52   A    
O15   C5    A    
N4    H47   S    
C88   H56   S    
O16   C6    A    
C84   H42   S    
O1    C3    A    
C83   H43   S    
C27   C35   A    
C77   C78   S    
C78   H27   S    
C82   H36   S    
C68   C70   A    
N2    H24   S    
C62   C64   A    
C88   H55   S    
C83   H44   S    
C10   N2    S    
O16   V4    S    
C61   C63   A    
O18   C8    A    
C60   C79   S    
O2    V4    S    
C77   H29   S    
C16   C18   A    
C78   H26   S    
N6    H62   S    
C44   C48   A    
C28   C30   A    
C79   C80   S    
C14   H2    S    
C7    C12   S    
O17   C7    A    
O6    V2    S    
O10   C6    A    
C33   C37   A    
N8    H66   S    
C36   C42   A    
C34   C38   A    
C38   C39   A    
C12   C14   A    
C22   C87   S    
C89   C90   S    
V3    O19   S    
C85   C86   S    
O13   V3    S    
C34   C36   A    
V4    O20   S    
C49   H10   S    
C14   C16   A    
C24   N6    S    
C61   H15   S    
O9    C5    A    
O13   V1    S    
C10   C12   A    
C70   C72   A    
O14   V2    S    
C31   H6    S    
C27   C89   S    
O2    C4    A    
C45   C81   S    
N1    H22   S    
C81   H39   S    
C37   C38   A    
O4    V2    S    
C22   C24   A    
C47   H12   S    
C56   C57   A    
C63   C65   A    
C55   C58   A    
N3    H45   S    
C82   H35   S    
C54   C60   A    
C3    C64   S    
C84   H40   S    
C43   C47   A    
C58   H14   S    
C23   N5    S    
C26   C30   A    
N2    H23   S    
C92   H73   S    
C61   C71   A    
