data_str_m4_o15_o24_f0_acs.sym.13
_audit_creation_date              2012-12-11T14:28:18-0500
_audit_creation_method            fapswitch 2.2
_symmetry_space_group_name_H-M    P1
_symmetry_Int_Tables_number       1
_space_group_crystal_system       monoclinic
_cell_length_a                    11.015275
_cell_length_b                    19.07896
_cell_length_c                    18.489471
_cell_angle_alpha                 90.0
_cell_angle_beta                  89.830186
_cell_angle_gamma                 90.0
_cell_volume                      3885.7299945

loop_
_atom_site_label
_atom_site_type_symbol
_atom_type_description
_atom_site_fract_x
_atom_site_fract_y
_atom_site_fract_z
_atom_type_partial_charge
C1    C     C_R   0.319240 0.970311 0.646935 0.517497
C2    C     C_3   0.164310 0.698320 0.026885 0.129615
C3    C     C_3   0.020752 0.198542 0.981485 -0.132900
C4    C     C_3   0.520752 0.301458 0.481485 -0.132900
C5    C     C_3   0.632048 0.310829 0.034871 -0.147340
C6    C     C_3   0.632048 0.689171 0.534871 -0.147340
C7    C     C_3   0.520752 0.698542 0.981485 -0.132900
C8    C     C_3   0.152556 0.819445 0.503802 -0.112011
C9    C     C_3   0.213753 0.762806 0.987581 -0.117549
C10   C     C_3   0.213753 0.237194 0.487581 -0.117549
C11   C     C_3   0.152556 0.180555 0.003802 -0.112011
C12   C     C_3   0.652556 0.319445 0.503802 -0.112011
C13   C     C_3   0.164310 0.301679 0.526885 0.129615
C14   C     C_3   0.713753 0.262806 0.987581 -0.117549
C15   C     C_3   0.713753 0.737194 0.487581 -0.117549
C16   C     C_3   0.652556 0.680555 0.003802 -0.112011
C17   C     C_3   0.144941 0.761875 0.561522 0.034580
C18   C     C_3   0.108011 0.754777 0.933622 0.035735
C19   C     C_3   0.108011 0.245223 0.433622 0.035735
C20   C     C_3   0.144941 0.238125 0.061522 0.034580
C21   C     C_3   0.644941 0.261875 0.561522 0.034580
C22   C     C_3   0.608011 0.254777 0.933622 0.035735
C23   C     C_3   0.608011 0.745223 0.433622 0.035735
C24   C     C_3   0.200026 0.236349 0.951157 0.083978
C25   C     C_3   0.644941 0.738125 0.061522 0.034580
C26   C     C_3   0.014176 0.744392 0.540779 -0.136987
C27   C     C_3   0.027914 0.803700 0.979177 -0.128525
C28   C     C_3   0.027914 0.196300 0.479177 -0.128525
C29   C     C_3   0.014176 0.255608 0.040780 -0.136987
C30   C     C_3   0.514177 0.244392 0.540779 -0.136987
C31   C     C_3   0.527914 0.303700 0.979177 -0.128525
C32   C     C_3   0.527914 0.696300 0.479177 -0.128525
C33   C     C_3   0.514177 0.755608 0.040780 -0.136987
C34   C     C_3   0.064241 0.689276 0.487563 -0.131814
C35   C     C_3   0.700026 0.263651 0.451157 0.083978
C36   C     C_3   0.981478 0.737408 0.018785 -0.138324
C37   C     C_3   0.981478 0.262592 0.518785 -0.138324
C38   C     C_3   0.064241 0.310724 0.987563 -0.131814
C39   C     C_3   0.564241 0.189276 0.487563 -0.131814
C40   C     C_3   0.481478 0.237408 0.018785 -0.138324
C41   C     C_3   0.481478 0.762592 0.518785 -0.138324
C42   C     C_3   0.564241 0.810724 0.987563 -0.131814
C43   C     C_3   0.196301 0.706098 0.509032 -0.107440
C44   C     C_3   0.062395 0.689105 0.972375 -0.101546
C45   C     C_3   0.062395 0.310895 0.472375 -0.101545
C46   C     C_3   0.664310 0.198320 0.026885 0.129615
C47   C     C_3   0.196301 0.293902 0.009032 -0.107439
C48   C     C_3   0.696301 0.206098 0.509032 -0.107440
C49   C     C_3   0.562395 0.189105 0.972375 -0.101546
C50   C     C_3   0.562395 0.810895 0.472375 -0.101545
C51   C     C_3   0.696301 0.793902 0.009032 -0.107439
C52   C     C_3   0.664310 0.801679 0.526885 0.129615
C53   C     C_3   0.700026 0.736349 0.951157 0.083978
C54   C     C_3   0.072257 0.746371 0.429454 0.087402
C55   C     C_3   0.084732 0.745501 0.073534 0.075479
C56   C     C_3   0.084732 0.254499 0.573534 0.075479
C57   C     C_R   0.321040 0.970149 0.853061 0.530065
C58   C     C_3   0.072257 0.253629 0.929454 0.087402
C59   C     C_3   0.572257 0.246371 0.429454 0.087402
C60   C     C_3   0.584732 0.245501 0.073534 0.075479
C61   C     C_3   0.584732 0.754499 0.573534 0.075479
C62   C     C_3   0.572257 0.753629 0.929454 0.087402
C63   C     C_R   0.330922 0.995631 0.424279 -0.045676
C64   C     C_R   0.322321 0.994625 0.075759 -0.049043
C65   C     C_R   0.322321 0.005375 0.575759 -0.049043
C66   C     C_R   0.330922 0.004369 0.924279 -0.045677
C67   C     C_R   0.830922 0.495631 0.424279 -0.045676
C68   C     C_R   0.321040 0.029851 0.353061 0.530065
C69   C     C_R   0.822321 0.494625 0.075759 -0.049043
C70   C     C_R   0.822321 0.505375 0.575759 -0.049043
C71   C     C_R   0.830922 0.504369 0.924279 -0.045677
C72   C     C_R   0.556346 0.000265 0.431095 -0.090549
C73   C     C_R   0.540275 0.971245 0.078603 -0.061547
C74   C     C_R   0.540275 0.028755 0.578603 -0.061547
C75   C     C_R   0.556346 0.999735 0.931095 -0.090549
C76   C     C_R   0.056346 0.500265 0.431095 -0.090549
C77   C     C_R   0.040275 0.471245 0.078603 -0.061547
C78   C     C_R   0.040275 0.528755 0.578603 -0.061547
C79   C     C_R   0.319240 0.029689 0.146935 0.517497
C80   C     C_R   0.056346 0.499735 0.931095 -0.090549
C81   C     C_R   0.660357 0.016795 0.470375 -0.128286
C82   C     C_R   0.651666 0.967660 0.043751 -0.104421
C83   C     C_R   0.651666 0.032340 0.543751 -0.104421
C84   C     C_R   0.660357 0.983205 0.970375 -0.128286
C85   C     C_R   0.160357 0.516795 0.470375 -0.128286
C86   C     C_R   0.151666 0.467660 0.043751 -0.104421
C87   C     C_R   0.151666 0.532340 0.543751 -0.104421
C88   C     C_R   0.160357 0.483205 0.970375 -0.128286
C89   C     C_R   0.434412 0.011263 0.540059 0.001372
C90   C     C_R   0.819240 0.470311 0.646935 0.517497
C91   C     C_R   0.440504 0.998267 0.964333 -0.012842
C92   C     C_R   0.440504 0.001733 0.464333 -0.012842
C93   C     C_R   0.434412 0.988737 0.040059 0.001372
C94   C     C_R   0.934412 0.511263 0.540059 0.001372
C95   C     C_R   0.940504 0.498267 0.964333 -0.012842
C96   C     C_R   0.940504 0.501733 0.464333 -0.012842
C97   C     C_R   0.934412 0.488737 0.040059 0.001372
C98   C     C_R   0.213507 0.004875 0.534552 0.000947
C99   C     C_R   0.220070 0.012789 0.961271 0.008383
C100  C     C_R   0.220070 0.987211 0.461271 0.008383
C101  C     C_R   0.821040 0.470149 0.853061 0.530065
C102  C     C_R   0.213507 0.995125 0.034552 0.000947
C103  C     C_R   0.713507 0.504875 0.534552 0.000947
C104  C     C_R   0.720070 0.512789 0.961271 0.008383
C105  C     C_R   0.720070 0.487211 0.461271 0.008383
C106  C     C_R   0.713507 0.495125 0.034552 0.000947
C107  C     C_R   0.097003 0.015647 0.565424 -0.075547
C108  C     C_R   0.113352 0.035452 0.925584 -0.065141
C109  C     C_R   0.113352 0.964548 0.425584 -0.065141
C110  C     C_R   0.097003 0.984353 0.065424 -0.075548
C111  C     C_R   0.597003 0.515647 0.565424 -0.075547
C112  C     C_R   0.821040 0.529851 0.353061 0.530065
C113  C     C_R   0.613352 0.535452 0.925584 -0.065141
C114  C     C_R   0.613352 0.464548 0.425584 -0.065141
C115  C     C_R   0.597003 0.484353 0.065424 -0.075548
C116  C     C_R   0.992308 0.998423 0.527675 -0.129818
C117  C     C_R   0.000458 0.028295 0.958136 -0.132071
C118  C     C_R   0.000458 0.971705 0.458136 -0.132071
C119  C     C_R   0.992308 0.001576 0.027675 -0.129818
C120  C     C_R   0.492308 0.498423 0.527675 -0.129818
C121  C     C_R   0.500458 0.528295 0.958136 -0.132071
C122  C     C_R   0.500458 0.471705 0.458136 -0.132071
C123  C     C_R   0.819240 0.529689 0.146935 0.517497
C124  C     C_R   0.492308 0.501576 0.027675 -0.129818
C125  C     C_R   0.182685 0.770852 0.636039 0.554146
C126  C     C_R   0.135814 0.758523 0.857322 0.550026
C127  C     C_R   0.135814 0.241477 0.357322 0.550026
C128  C     C_R   0.182685 0.229148 0.136039 0.554146
C129  C     C_R   0.682685 0.270852 0.636039 0.554146
C130  C     C_R   0.635814 0.258523 0.857322 0.550026
C131  C     C_R   0.635814 0.741477 0.357322 0.550026
C132  C     C_R   0.682685 0.729148 0.136039 0.554146
C133  C     C_R   0.547640 0.768171 0.647170 0.545877
C134  C     C_3   0.200026 0.763651 0.451157 0.083978
C135  C     C_R   0.538054 0.770798 0.856586 0.581652
C136  C     C_R   0.538054 0.229202 0.356586 0.581652
C137  C     C_R   0.547640 0.231829 0.147170 0.545877
C138  C     C_R   0.047640 0.268171 0.647170 0.545877
C139  C     C_R   0.038054 0.270798 0.856586 0.581652
C140  C     C_R   0.038054 0.729202 0.356586 0.581652
C141  C     C_R   0.047640 0.731829 0.147170 0.545877
C142  C     C_3   0.020752 0.801458 0.481485 -0.132899
C143  C     C_3   0.132048 0.810829 0.034871 -0.147340
C144  C     C_3   0.132048 0.189171 0.534871 -0.147340
Cr1   Cr    Cr6+3 0.488160 0.884660 0.750000 1.014664
Cr2   Cr    Cr6+3 0.333410 0.272740 0.250000 0.995112
Cr3   Cr    Cr6+3 0.833410 0.227260 0.750000 0.995112
Cr4   Cr    Cr6+3 0.833410 0.772740 0.250000 0.995112
Cr5   Cr    Cr6+3 0.488160 0.115340 0.250000 1.014664
Cr6   Cr    Cr6+3 0.988160 0.384660 0.750000 1.014664
Cr7   Cr    Cr6+3 0.988160 0.615340 0.250000 1.014664
Cr8   Cr    Cr6+3 0.173480 0.883120 0.750000 1.012125
Cr9   Cr    Cr6+3 0.173480 0.116880 0.250000 1.012125
Cr10  Cr    Cr6+3 0.673480 0.383120 0.750000 1.012125
Cr11  Cr    Cr6+3 0.673480 0.616880 0.250000 1.012125
Cr12  Cr    Cr6+3 0.333410 0.727260 0.750000 0.995112
H1    H     H_    0.198463 0.868221 0.518928 0.126746
H2    H     H_    0.919937 0.044343 0.929332 0.093437
H3    H     H_    0.919937 0.955657 0.429332 0.093437
H4    H     H_    0.905583 0.996707 0.053714 0.108999
H5    H     H_    0.405583 0.503293 0.553714 0.108999
H6    H     H_    0.419936 0.544343 0.929332 0.093437
H7    H     H_    0.419936 0.455657 0.429332 0.093437
H8    H     H_    0.405583 0.496707 0.053714 0.108999
H9    H     H_    0.946448 0.836917 0.465666 0.119504
H10   H     H_    0.167544 0.856379 0.064613 0.110611
H11   H     H_    0.167543 0.143621 0.564613 0.110611
H12   H     H_    0.307227 0.774710 0.969676 0.113445
H13   H     H_    0.946448 0.163083 0.965666 0.119504
H14   H     H_    0.446448 0.336917 0.465666 0.119505
H15   H     H_    0.667543 0.356379 0.064613 0.110611
H16   H     H_    0.667544 0.643621 0.564613 0.110611
H17   H     H_    0.446448 0.663083 0.965666 0.119504
H18   H     H_    0.939891 0.735441 0.580400 0.120534
H19   H     H_    0.971438 0.847208 0.957931 0.125342
H20   H     H_    0.971438 0.152792 0.457931 0.125342
H21   H     H_    0.939891 0.264558 0.080400 0.120534
H22   H     H_    0.439891 0.235441 0.580400 0.120534
H23   H     H_    0.307227 0.225290 0.469676 0.113445
H24   H     H_    0.471438 0.347208 0.957931 0.125342
H25   H     H_    0.471438 0.652792 0.457931 0.125342
H26   H     H_    0.439891 0.764559 0.080400 0.120534
H27   H     H_    0.020407 0.638375 0.477113 0.144595
H28   H     H_    0.890087 0.722496 0.037141 0.114166
H29   H     H_    0.890087 0.277504 0.537141 0.114166
H30   H     H_    0.020407 0.361625 0.977113 0.144595
H31   H     H_    0.520407 0.138375 0.477113 0.144595
H32   H     H_    0.390087 0.222496 0.037141 0.114166
H33   H     H_    0.390087 0.777504 0.537141 0.114166
H34   H     H_    0.198463 0.131779 0.018928 0.126746
H35   H     H_    0.520407 0.861625 0.977113 0.144595
H36   H     H_    0.268785 0.667708 0.521613 0.113656
H37   H     H_    0.034651 0.639947 0.945420 0.114716
H38   H     H_    0.034651 0.360053 0.445420 0.114716
H39   H     H_    0.268784 0.332292 0.021612 0.113656
H40   H     H_    0.768784 0.167708 0.521613 0.113656
H41   H     H_    0.534651 0.139947 0.945420 0.114716
H42   H     H_    0.534651 0.860052 0.445420 0.114716
H43   H     H_    0.768784 0.832292 0.021612 0.113656
H44   H     H_    0.746995 0.019681 0.443227 0.103314
H45   H     H_    0.698463 0.368221 0.518928 0.126746
H46   H     H_    0.729885 0.950860 0.074018 0.106111
H47   H     H_    0.729885 0.049140 0.574018 0.106111
H48   H     H_    0.746995 0.980319 0.943227 0.103314
H49   H     H_    0.246995 0.519681 0.443227 0.103314
H50   H     H_    0.229885 0.450860 0.074018 0.106111
H51   H     H_    0.229885 0.549140 0.574018 0.106111
H52   H     H_    0.246995 0.480319 0.943227 0.103314
H53   H     H_    0.567817 0.985878 0.374927 0.132416
H54   H     H_    0.536477 0.956924 0.135234 0.127370
H55   H     H_    0.536477 0.043076 0.635234 0.127370
H56   H     H_    0.807226 0.274710 0.969676 0.113445
H57   H     H_    0.567817 0.014122 0.874927 0.132416
H58   H     H_    0.067817 0.485878 0.374927 0.132416
H59   H     H_    0.036477 0.456924 0.135234 0.127370
H60   H     H_    0.036477 0.543076 0.635234 0.127370
H61   H     H_    0.067817 0.514122 0.874927 0.132416
H62   H     H_    0.117349 0.941662 0.371985 0.137852
H63   H     H_    0.086101 0.962523 0.119111 0.131736
H64   H     H_    0.086101 0.037477 0.619111 0.131735
H65   H     H_    0.117349 0.058338 0.871985 0.137852
H66   H     H_    0.617349 0.441662 0.371985 0.137852
H67   H     H_    0.807227 0.725290 0.469676 0.113445
H68   H     H_    0.586102 0.462523 0.119111 0.131736
H69   H     H_    0.586101 0.537477 0.619111 0.131735
H70   H     H_    0.617349 0.558338 0.871985 0.137852
H71   H     H_    0.343558 0.731478 0.389062 0.239582
H72   H     H_    0.342849 0.818731 0.409047 0.220779
H73   H     H_    0.273062 0.613865 0.010431 0.217511
H74   H     H_    0.309314 0.661862 0.083739 0.228862
H75   H     H_    0.273062 0.386135 0.510431 0.217511
H76   H     H_    0.309314 0.338137 0.583739 0.228862
H77   H     H_    0.343558 0.268522 0.889062 0.239583
H78   H     H_    0.698463 0.631779 0.018928 0.126746
H79   H     H_    0.342849 0.181268 0.909047 0.220779
H80   H     H_    0.843558 0.231478 0.389062 0.239583
H81   H     H_    0.842849 0.318731 0.409047 0.220779
H82   H     H_    0.773062 0.113864 0.010431 0.217511
H83   H     H_    0.809314 0.161862 0.083739 0.228862
H84   H     H_    0.773062 0.886135 0.510431 0.217511
H85   H     H_    0.809314 0.838137 0.583739 0.228862
H86   H     H_    0.843558 0.768522 0.889062 0.239583
H87   H     H_    0.842849 0.681269 0.909047 0.220779
H88   H     H_    0.905583 0.003293 0.553714 0.108999
N1    N     N_3   0.289432 0.776014 0.394358 -0.635755
N2    N     N_3   0.236960 0.640610 0.054739 -0.589626
N3    N     N_3   0.236960 0.359390 0.554739 -0.589626
N4    N     N_3   0.289432 0.223986 0.894358 -0.635755
N5    N     N_3   0.789431 0.276014 0.394358 -0.635755
N6    N     N_3   0.736960 0.140610 0.054739 -0.589626
N7    N     N_3   0.736960 0.859390 0.554739 -0.589626
N8    N     N_3   0.789431 0.723986 0.894358 -0.635755
O1    O     O_R   0.575450 0.828820 0.667950 -0.478528
O2    O     O_R   0.416860 0.942890 0.825320 -0.514941
O3    O     O_R   0.416860 0.057110 0.325320 -0.514941
O4    O     O_R   0.416860 0.057110 0.174680 -0.497239
O5    O     O_R   0.916860 0.442890 0.674680 -0.497239
O6    O     O_R   0.916860 0.442890 0.825320 -0.514941
O7    O     O_R   0.916860 0.557110 0.325320 -0.514941
O8    O     O_R   0.916860 0.557110 0.174680 -0.497239
O9    O     O_R   0.213790 0.953680 0.668330 -0.533844
O10   O     O_R   0.213790 0.953680 0.831670 -0.515931
O11   O     O_R   0.213790 0.046320 0.331670 -0.515931
O12   O     O_R   0.575450 0.828820 0.832050 -0.512905
O13   O     O_R   0.213790 0.046320 0.168330 -0.533844
O14   O     O_R   0.713790 0.453680 0.668330 -0.533844
O15   O     O_R   0.713790 0.453680 0.831670 -0.515931
O16   O     O_R   0.713790 0.546320 0.331670 -0.515931
O17   O     O_R   0.713790 0.546320 0.168330 -0.533844
O18   O     O_R   0.121360 0.817890 0.672660 -0.495773
O19   O     O_R   0.121360 0.817890 0.827340 -0.495408
O20   O     O_R   0.121360 0.182110 0.327340 -0.495408
O21   O     O_R   0.121360 0.182110 0.172660 -0.495773
O22   O     O_R   0.621360 0.317890 0.672660 -0.495773
O23   O     O_R   0.575450 0.171180 0.332050 -0.512905
O24   O     O_R   0.621360 0.317890 0.827340 -0.495408
O25   O     O_R   0.621360 0.682110 0.327340 -0.495408
O26   O     O_R   0.621360 0.682110 0.172660 -0.495773
O27   O     O_R   0.206850 0.711370 0.665820 -0.527400
O28   O     O_R   0.206850 0.711370 0.834180 -0.528760
O29   O     O_R   0.206850 0.288630 0.334180 -0.528760
O30   O     O_R   0.206850 0.288630 0.165820 -0.527400
O31   O     O_R   0.706850 0.211370 0.665820 -0.527400
O32   O     O_R   0.706850 0.211370 0.834180 -0.528760
O33   O     O_R   0.706850 0.788630 0.334180 -0.528760
O34   O     O_R   0.575450 0.171180 0.167950 -0.478528
O35   O     O_R   0.706850 0.788630 0.165820 -0.527400
O36   O     O_R   0.457710 0.733190 0.672630 -0.533830
O37   O     O_R   0.457710 0.733190 0.827370 -0.522982
O38   O     O_R   0.457710 0.266810 0.327370 -0.522982
O39   O     O_R   0.457710 0.266810 0.172630 -0.533830
O40   O     O_R   0.957710 0.233190 0.672630 -0.533830
O41   O     O_R   0.957710 0.233190 0.827370 -0.522982
O42   O     O_R   0.957710 0.766810 0.327370 -0.522982
O43   O     O_R   0.957710 0.766810 0.172630 -0.533830
O44   O     O_3   0.331690 0.831680 0.750000 -0.277643
O45   O     O_R   0.075450 0.328820 0.667950 -0.478528
O46   O     O_3   0.331690 0.168320 0.250000 -0.277643
O47   O     O_3   0.831690 0.331680 0.750000 -0.277643
O48   O     O_3   0.831690 0.668320 0.250000 -0.277643
O49   O     O_R   0.075450 0.328820 0.832050 -0.512905
O50   O     O_R   0.075450 0.671180 0.332050 -0.512905
O51   O     O_R   0.075450 0.671180 0.167950 -0.478528
O52   O     O_R   0.416860 0.942890 0.674680 -0.497239

loop_
_geom_bond_atom_site_label_1
_geom_bond_atom_site_label_2
_ccdc_geom_bond_type
Cr8   O9    S    
C6    C32   S    
C71   C104  A    
C73   C82   A    
C73   C93   A    
C74   C83   A    
C50   H42   S    
C61   C133  S    
Cr5   O4    S    
C65   C89   A    
C47   H39   S    
Cr8   O44   S    
Cr11  O26   S    
C2    C55   S    
C117  C119  A    
C112  O7    A    
C86   C88   A    
C71   C95   A    
C69   C123  S    
Cr5   O46   S    
C54   C134  S    
C16   C25   S    
C57   O2    A    
C129  O31   A    
C46   N6    S    
C109  H62   S    
C37   C56   S    
C37   H29   S    
C50   C52   S    
C28   C144  S    
C41   C61   S    
C4    C12   S    
C112  O16   A    
C89   C92   A    
H74   N2    S    
Cr1   O52   S    
C21   C48   S    
C84   H48   S    
C100  C109  A    
C29   H21   S    
C22   C130  S    
C7    C33   S    
C129  O22   A    
C88   H52   S    
C8    H1    S    
C109  C118  A    
C9    C143  S    
C11   C20   S    
C111  H69   S    
C115  H68   S    
Cr12  O27   S    
C133  O1    A    
C82   H46   S    
C70   C103  A    
C3    H13   S    
Cr11  O48   S    
C17   C43   S    
C7    C62   S    
C18   C44   S    
C73   H54   S    
Cr1   O12   S    
Cr7   O50   S    
C94   C96   A    
C135  O37   A    
Cr2   O29   S    
C22   C49   S    
Cr4   O48   S    
C34   C54   S    
C82   C84   A    
C27   C36   S    
C64   C79   S    
Cr1   O2    S    
C36   C44   S    
C37   C45   S    
C132  O26   A    
C140  O50   A    
C45   H38   S    
C141  O51   A    
C46   C60   S    
H75   N3    S    
C95   C97   A    
C125  O27   A    
C74   H55   S    
C8    C17   S    
C41   H33   S    
C106  C115  A    
C52   C61   S    
C11   H34   S    
C28   C37   S    
C80   C88   A    
C36   C55   S    
C76   C96   A    
C13   C45   S    
Cr3   O32   S    
C78   C94   A    
C116  C118  A    
C128  O21   A    
C20   C47   S    
C3    C11   S    
C67   C112  S    
H84   N7    S    
C33   H26   S    
Cr9   O21   S    
C76   C85   A    
C78   C87   A    
C116  H88   S    
C40   C60   S    
H85   N7    S    
C128  O30   A    
C57   C66   S    
C81   H44   S    
C31   H24   S    
Cr7   O7    S    
C6    H16   S    
C64   C102  A    
C99   C108  A    
C4    H14   S    
C10   H23   S    
C6    C61   S    
C103  C111  A    
C75   C84   A    
C40   C49   S    
C59   C136  S    
Cr6   O49   S    
C3    C29   S    
C2    C44   S    
C29   C38   S    
C1    C65   S    
C32   C41   S    
C77   C97   A    
C42   C62   S    
C75   C91   A    
C13   C56   S    
C135  O12   A    
H82   N6    S    
C81   C83   A    
Cr2   O46   S    
C55   C143  S    
C144  H11   S    
C8    C134  S    
C32   H25   S    
Cr10  O15   S    
C80   H61   S    
C38   H30   S    
C75   H57   S    
C51   C53   S    
C62   C135  S    
C110  H63   S    
Cr2   O39   S    
C27   C143  S    
C72   H53   S    
C133  O36   A    
C30   H22   S    
C23   C131  S    
C34   H27   S    
C103  C105  A    
C10   C144  S    
C12   C35   S    
Cr10  O24   S    
C19   C28   S    
C21   C129  S    
Cr3   O47   S    
C43   H36   S    
C136  O23   A    
Cr7   O51   S    
C130  O24   A    
H79   N4    S    
Cr8   O10   S    
Cr4   O43   S    
C63   C68   S    
C5    C60   S    
C117  H2    S    
C108  C117  A    
C9    H12   S    
C34   C43   S    
C72   C81   A    
C110  C119  A    
Cr10  O47   S    
C19   C45   S    
C40   H32   S    
C80   C95   A    
Cr5   O3    S    
Cr6   O47   S    
C125  O18   A    
H86   N8    S    
C14   C22   S    
Cr11  O25   S    
C136  O38   A    
C18   C126  S    
C108  H65   S    
C68   O3    A    
C137  O34   A    
C30   C39   S    
Cr9   O11   S    
C107  C116  A    
C139  O49   A    
C104  C113  A    
C76   H58   S    
C9    C18   S    
C113  C121  A    
C2    C9    S    
C25   C33   S    
C69   C97   A    
Cr9   O46   S    
C55   C141  S    
Cr5   O34   S    
C104  C106  A    
C14   C46   S    
C46   C49   S    
C44   H37   S    
C70   C94   A    
C65   C98   A    
Cr12  O28   S    
Cr6   O5    S    
C72   C92   A    
C132  O35   A    
C26   H18   S    
Cr8   O19   S    
C31   C40   S    
C35   C59   S    
Cr10  O22   S    
C138  O40   A    
C38   C58   S    
C42   H35   S    
C79   O4    A    
C1    O52   A    
Cr11  O16   S    
Cr2   O30   S    
C123  O17   A    
C71   C101  S    
H83   N6    S    
Cr1   O1    S    
C118  H3    S    
C35   C48   S    
Cr3   O40   S    
C57   O10   A    
Cr6   O45   S    
C85   H49   S    
C126  O19   A    
C83   H47   S    
C27   H19   S    
C28   H20   S    
C23   C50   S    
C49   H41   S    
C98   C107  A    
C53   N8    S    
C43   C134  S    
Cr9   O13   S    
C91   C93   A    
Cr3   O31   S    
C16   H78   S    
C10   C19   S    
C39   C59   S    
C101  O6    A    
C15   C52   S    
C114  H66   S    
C5    C14   S    
C7    C16   S    
C54   C142  S    
C98   C100  A    
Cr4   O33   S    
C102  C110  A    
Cr9   O20   S    
C33   C42   S    
C41   C50   S    
C77   H59   S    
C131  O33   A    
C115  C124  A    
C67   C105  A    
Cr7   O48   S    
Cr1   O44   S    
C69   C106  A    
C123  O8    A    
Cr4   O42   S    
C21   C30   S    
C14   H56   S    
C23   C32   S    
C2    N2    S    
C113  H70   S    
C121  H6    S    
C15   H67   S    
C131  O25   A    
C107  H64   S    
C56   C144  S    
C3    C58   S    
C99   C102  A    
C24   C58   S    
C8    C142  S    
C90   O5    A    
C39   C48   S    
C124  H8    S    
C58   C139  S    
H80   N5    S    
C86   H50   S    
C143  H10   S    
C17   C26   S    
Cr5   O23   S    
C74   C89   A    
C90   O14   A    
C64   C93   A    
C20   C128  S    
C140  O42   A    
C141  O43   A    
H71   N1    S    
C11   C24   S    
C35   N5    S    
C137  O39   A    
C16   C53   S    
C121  C124  A    
C130  O32   A    
C6    C15   S    
C25   C132  S    
C26   C34   S    
C54   C140  S    
Cr8   O18   S    
C119  H4    S    
Cr4   O35   S    
C63   C92   A    
C36   H28   S    
C134  N1    S    
C60   C137  S    
C39   H31   S    
C15   C23   S    
C101  O15   A    
C48   H40   S    
H81   N5    S    
C70   C90   S    
Cr11  O17   S    
C120  C122  A    
Cr7   O8    S    
C20   C29   S    
C85   C87   A    
C22   C31   S    
Cr12  O44   S    
C105  C114  A    
C78   H60   S    
C139  O41   A    
H72   N1    S    
Cr3   O41   S    
C126  O28   A    
C12   C21   S    
C122  H7    S    
C111  C120  A    
C66   C99   A    
C25   C51   S    
C63   C100  A    
C56   C138  S    
C53   C62   S    
C5    H15   S    
C12   H45   S    
C138  O45   A    
C87   H51   S    
C38   C47   S    
C51   H43   S    
C120  H5    S    
C1    O9    A    
H73   N2    S    
C77   C86   A    
C127  O20   A    
C67   C96   A    
C24   N4    S    
Cr12  O36   S    
H87   N8    S    
C13   N3    S    
C24   C47   S    
C18   C27   S    
Cr10  O14   S    
C10   C13   S    
H77   N4    S    
C66   C91   A    
C42   C51   S    
H76   N3    S    
C127  O29   A    
Cr6   O6    S    
C142  H9    S    
Cr2   O38   S    
C17   C125  S    
C7    H17   S    
C4    C59   S    
C19   C127  S    
C79   O13   A    
Cr12  O37   S    
C52   N7    S    
C114  C122  A    
C26   C142  S    
C68   O11   A    
C4    C30   S    
C5    C31   S    
