data_str_m12_o9_o22_f0_bcu.sym.21
_audit_creation_date              2012-12-11T17:45:25-0500
_audit_creation_method            fapswitch 2.2
_symmetry_space_group_name_H-M    P1
_symmetry_Int_Tables_number       1
_space_group_crystal_system       triclinic
_cell_length_a                    14.920671
_cell_length_b                    14.941439
_cell_length_c                    15.076473
_cell_angle_alpha                 110.282807
_cell_angle_beta                  108.88486
_cell_angle_gamma                 108.645621
_cell_volume                      2605.89665737

loop_
_atom_site_label
_atom_site_type_symbol
_atom_type_description
_atom_site_fract_x
_atom_site_fract_y
_atom_site_fract_z
_atom_type_partial_charge
C1    C     C_R   0.914807 0.198489 0.000710 -0.132892
C2    C     C_R   0.685242 0.234446 0.774950 0.195542
C3    C     C_R   0.792239 0.591909 0.099339 -0.141475
C4    C     C_R   0.298137 0.800847 0.206623 -0.158776
C5    C     C_R   0.006111 0.408079 0.702572 -0.155696
C6    C     C_R   0.704379 0.502210 0.076786 -0.039473
C7    C     C_R   0.061973 0.497682 0.697552 0.061347
C8    C     C_R   0.678408 0.211916 0.674667 -0.021950
C9    C     C_R   0.941280 0.767867 0.944554 0.056936
C10   C     C_R   0.696975 0.263425 0.180374 -0.116835
C11   C     C_R   0.795380 0.342570 0.274922 -0.129606
C12   C     C_R   0.302134 0.861206 0.300958 0.061056
C13   C     C_R   0.873885 0.314067 0.316517 0.119300
C14   C     C_R   0.850399 0.204624 0.265190 -0.195073
C15   C     C_R   0.752001 0.126320 0.170120 -0.147491
C16   C     C_R   0.223640 0.408323 0.976293 -0.144198
C17   C     C_R   0.675853 0.155869 0.127326 -0.075278
C18   C     C_R   0.996778 0.399271 0.507305 -0.238637
C19   C     C_R   0.079715 0.490541 0.607012 0.062521
C20   C     C_R   0.161783 0.576581 0.612699 0.027954
C21   C     C_R   0.151207 0.571814 0.515614 -0.246401
C22   C     C_R   0.059316 0.487096 0.417081 0.071503
C23   C     C_R   0.325041 0.499908 0.052857 -0.007059
C24   C     C_R   0.981275 0.399037 0.412920 0.016470
C25   C     C_R   0.277069 0.780151 0.733292 -0.152721
C26   C     C_R   0.351295 0.872136 0.836055 -0.078332
C27   C     C_R   0.399823 0.859644 0.923851 -0.095365
C28   C     C_R   0.057962 0.589886 0.314038 -0.138316
C29   C     C_R   0.377529 0.755635 0.908139 -0.113454
C30   C     C_R   0.308571 0.663892 0.804547 -0.168931
C31   C     C_R   0.253004 0.674647 0.717016 0.112957
C32   C     C_R   0.126504 0.040636 0.307200 -0.111071
C33   C     C_R   0.223499 0.037176 0.330483 -0.138459
C34   C     C_R   0.040587 0.495882 0.321126 0.042027
C35   C     C_R   0.288807 0.054841 0.432798 0.114598
C36   C     C_R   0.255838 0.077304 0.511731 -0.169628
C37   C     C_R   0.158526 0.080510 0.487977 -0.119616
C38   C     C_R   0.093852 0.062053 0.385754 -0.091587
C39   C     C_R   0.487253 0.134822 0.549732 -0.200718
C40   C     C_R   0.313248 0.591342 0.066755 -0.133540
C41   C     C_R   0.584127 0.130768 0.571615 0.104395
C42   C     C_R   0.588437 0.045763 0.497159 0.023300
C43   C     C_R   0.494210 0.963208 0.405401 -0.242278
C44   C     C_R   0.396036 0.962033 0.387402 0.065164
C45   C     C_R   0.705112 0.411485 0.012599 -0.103705
C46   C     C_R   0.391188 0.049782 0.456751 0.018755
C47   C     C_R   0.733785 0.043562 0.449884 -0.193791
C48   C     C_R   0.827697 0.034618 0.468195 -0.118494
C49   C     C_R   0.873790 0.014177 0.550540 -0.100749
C50   C     C_R   0.825543 0.001954 0.614212 -0.127222
C51   C     C_R   0.732010 0.011298 0.596577 -0.110879
C52   C     C_R   0.977137 0.407284 0.218331 -0.107092
C53   C     C_R   0.686429 0.033627 0.515196 0.114057
C54   C     C_3   0.536165 0.489074 0.970828 -0.379524
C55   C     C_3   0.436464 0.497179 0.967988 -0.408001
C56   C     C_R   0.088719 0.589732 0.787980 -0.141573
C57   C     C_3   0.539216 0.404254 0.089136 -0.426072
C58   C     C_3   0.633425 0.607928 0.175805 -0.403748
C59   C     C_3   0.606259 0.501130 0.079832 0.405835
C60   C     C_3   0.428054 0.500383 0.068591 0.393623
C61   C     C_3   0.429897 0.399277 0.073619 -0.408872
C62   C     C_3   0.528302 0.603630 0.173948 -0.386396
C63   C     C_R   0.167080 0.028454 0.755257 -0.103473
C64   C     C_R   0.210443 0.801587 0.301797 -0.116625
C65   C     C_R   0.069839 0.991034 0.757967 -0.192576
C66   C     C_R   0.070458 0.023962 0.857648 0.115758
C67   C     C_R   0.781249 0.253785 0.688085 -0.152078
C68   C     C_R   0.170074 0.090562 0.954351 -0.125694
C69   C     C_R   0.267218 0.123478 0.951186 -0.159810
C70   C     C_R   0.265807 0.094426 0.851885 -0.113430
C71   C     C_R   0.943069 0.863631 0.841807 -0.220393
C72   C     C_R   0.896818 0.825958 0.897670 0.053855
C73   C     C_R   0.837347 0.872284 0.932586 0.017993
C74   C     C_R   0.844975 0.966290 0.930491 -0.220717
C75   C     C_R   0.922437 0.023425 0.909712 0.049731
C76   C     C_R   0.005865 0.199926 0.909492 -0.137988
C77   C     C_R   0.971355 0.969438 0.861985 0.001943
C78   C     C_R   0.928206 0.743486 0.022319 -0.143519
C79   C     C_R   0.662562 0.746173 0.903131 -0.131251
C80   C     C_R   0.590227 0.721095 0.941464 -0.115477
C81   C     C_R   0.624852 0.777914 0.052379 -0.095553
C82   C     C_R   0.731848 0.860335 0.125126 -0.151058
C83   C     C_R   0.803285 0.888894 0.086478 -0.200757
C84   C     C_R   0.769066 0.830800 0.975353 0.119418
C85   C     C_R   0.952016 0.138074 0.943695 0.053893
C86   C     C_R   0.021949 0.745210 0.932945 -0.119468
H1    H     H_    0.856769 0.170474 0.026035 0.112039
H2    H     H_    0.811597 0.426264 0.314197 0.108817
H3    H     H_    0.350684 0.828267 0.175380 0.094434
H4    H     H_    0.909552 0.180980 0.296677 0.113713
H5    H     H_    0.734956 0.043043 0.128454 0.140481
H6    H     H_    0.932851 0.333700 0.502036 0.130343
H7    H     H_    0.211629 0.637045 0.516964 0.133121
H8    H     H_    0.235216 0.791253 0.667813 0.113463
H9    H     H_    0.368442 0.952818 0.848333 0.130539
H10   H     H_    0.453395 0.930170 0.004351 0.097646
H11   H     H_    0.411580 0.745653 0.976645 0.097228
H12   H     H_    0.138128 0.673944 0.813740 0.119130
H13   H     H_    0.291974 0.583863 0.794380 0.113122
H14   H     H_    0.018638 0.064623 0.367489 0.087662
H15   H     H_    0.204340 0.323788 0.940728 0.109547
H16   H     H_    0.077014 0.027005 0.228252 0.106635
H17   H     H_    0.247811 0.020973 0.268804 0.111324
H18   H     H_    0.304595 0.090831 0.590978 0.136235
H19   H     H_    0.133172 0.097155 0.548783 0.103876
H20   H     H_    0.486717 0.203248 0.606214 0.143057
H21   H     H_    0.496910 0.894528 0.351830 0.131377
H22   H     H_    0.699013 0.060059 0.386257 0.122280
H23   H     H_    0.804457 0.248304 0.626436 0.127803
H24   H     H_    0.864920 0.043924 0.418850 0.098366
H25   H     H_    0.946685 0.007672 0.564626 0.097921
H26   H     H_    0.860302 0.985488 0.677496 0.116467
H27   H     H_    0.103229 0.673574 0.379630 0.099534
H28   H     H_    0.695798 0.002407 0.646871 0.134788
H29   H     H_    0.509775 0.408414 0.902485 0.169696
H30   H     H_    0.583785 0.552172 0.957625 0.171525
H31   H     H_    0.439929 0.571296 0.965359 0.150428
H32   H     H_    0.363426 0.425926 0.891713 0.158256
H33   H     H_    0.521863 0.324751 0.026873 0.156716
H34   H     H_    0.872872 0.748812 0.052014 0.125434
H35   H     H_    0.364573 0.324879 0.995990 0.170203
H36   H     H_    0.687809 0.619123 0.254182 0.152191
H37   H     H_    0.676461 0.679948 0.170473 0.164540
H38   H     H_    0.530071 0.680480 0.181179 0.138784
H39   H     H_    0.375401 0.675740 0.113578 0.084529
H40   H     H_    0.526047 0.601000 0.246095 0.162007
H41   H     H_    0.585242 0.415981 0.170485 0.156919
H42   H     H_    0.415900 0.393998 0.140206 0.156006
H43   H     H_    0.341249 0.121444 0.849831 0.131087
H44   H     H_    0.166072 0.003431 0.678261 0.106970
H45   H     H_    0.056104 0.756315 0.882418 0.096365
H46   H     H_    0.994641 0.933377 0.682679 0.108722
H47   H     H_    0.172512 0.112156 0.031833 0.110906
H48   H     H_    0.343774 0.171328 0.025895 0.118890
H49   H     H_    0.978418 0.822522 0.802345 0.127335
H50   H     H_    0.797122 0.999086 0.955886 0.135591
H51   H     H_    0.953536 0.323225 0.194438 0.117324
H52   H     H_    0.634354 0.703328 0.816901 0.114429
H53   H     H_    0.507437 0.657274 0.884505 0.113975
H54   H     H_    0.569160 0.758868 0.082501 0.091314
H55   H     H_    0.758206 0.904676 0.210722 0.112870
H56   H     H_    0.821307 0.676632 0.154482 0.099872
H57   H     H_    0.884341 0.957270 0.142382 0.111678
H58   H     H_    0.184294 0.829207 0.360111 0.104698
H59   H     H_    0.027164 0.172357 0.847129 0.110270
H60   H     H_    0.657652 0.330013 0.994331 0.135560
H61   H     H_    0.986005 0.324554 0.653504 0.103093
H62   H     H_    0.600576 0.095621 0.052860 0.115895
H63   H     H_    0.637270 0.285171 0.147249 0.099239
I1    I     I_    0.561773 0.141859 0.797064 -0.588159
N1    N     N_R   0.947080 0.293830 0.002870 -0.040354
N2    N     N_R   0.153670 0.443180 0.946090 -0.037399
N3    N     N_R   0.002360 0.556820 0.208890 -0.041901
N4    N     N_R   0.210070 0.556820 0.002870 -0.035748
N5    N     N_R   0.945960 0.443180 0.152110 -0.041037
N6    N     N_R   0.151710 0.706170 0.208890 -0.041589
N7    N     N_R   0.004320 0.293830 0.946090 -0.039413
N8    N     N_R   0.789930 0.443180 0.997130 -0.035276
N9    N     N_R   0.054040 0.556820 0.847890 -0.040754
N10   N     N_R   0.848290 0.293830 0.791110 -0.050425
N11   N     N_R   0.995680 0.706170 0.053910 -0.042622
N12   N     N_R   0.052920 0.706170 0.997130 -0.042422
N13   N     N_R   0.791050 0.293830 0.847890 -0.056881
N14   N     N_R   0.846330 0.556820 0.053910 -0.039252
N15   N     N_R   0.997640 0.443180 0.791110 -0.038110
N16   N     N_R   0.208950 0.706170 0.152110 -0.035619
Ni1   Ni    Ni4+2 0.869690 0.369690 0.000000 0.235957
Ni2   Ni    Ni4+2 0.130310 0.630310 0.000000 0.210752
Ni3   Ni    Ni4+2 0.000970 0.369690 0.869780 0.214607
Ni4   Ni    Ni4+2 0.999030 0.630310 0.130220 0.212294

loop_
_geom_bond_atom_site_label_1
_geom_bond_atom_site_label_2
_ccdc_geom_bond_type
C25   C31   A    
C39   H20   S    
C66   C68   A    
C63   C65   A    
C58   C62   S    
C69   H48   S    
C5    H61   S    
C6    C45   A    
C27   C29   A    
C41   C42   A    
N14   Ni4   S    
C35   C36   A    
C9    C72   S    
C56   H12   S    
C3    C6    A    
N4    Ni2   S    
C62   H38   S    
N11   N12   A    
C39   C41   A    
C52   N5    A    
C26   C27   A    
C29   C30   A    
C2    I1    S    
C18   C24   A    
N1    N7    A    
C61   H35   S    
C68   H47   S    
N13   Ni1   S    
C56   N9    A    
C32   C38   A    
C42   C53   S    
C71   H49   S    
C30   C31   A    
C12   C64   A    
C86   H45   S    
C57   C59   S    
C40   H39   S    
C10   C17   A    
C23   C40   A    
N9    Ni2   S    
C60   C62   S    
C18   C19   A    
C73   C74   A    
C63   H44   S    
C1    H1    S    
C14   H4    S    
C13   C14   A    
N7    Ni3   S    
C75   C85   S    
C83   C84   A    
N5    Ni1   S    
C68   C69   A    
C54   H30   S    
N3    Ni4   S    
N10   Ni3   S    
C67   N10   A    
C86   N12   A    
C5    N15   A    
C4    C12   A    
C81   H54   S    
N8    N14   A    
C57   H33   S    
C28   C34   A    
C25   H8    S    
C21   C22   A    
N16   Ni2   S    
C40   N4    A    
C27   H10   S    
C3    H56   S    
C7    C56   A    
C82   H55   S    
C44   C46   A    
N8    Ni1   S    
C81   C82   A    
C54   C59   S    
N15   Ni3   S    
C23   C60   S    
C22   C34   S    
C76   N7    A    
C58   H36   S    
C51   H28   S    
C74   C75   A    
C45   H60   S    
N10   N13   A    
C17   H62   S    
C8    C41   S    
C38   H14   S    
C10   C11   A    
C5    C7    A    
C72   C73   A    
C64   H58   S    
C50   C51   A    
C25   C26   A    
C30   H13   S    
C82   C83   A    
C70   H43   S    
N9    N15   A    
C13   C24   S    
C74   H50   S    
C60   C61   S    
C51   C53   A    
C78   H34   S    
C43   C44   A    
C37   H19   S    
C37   C38   A    
C9    C86   A    
C47   C48   A    
C63   C70   A    
N6    N16   A    
C11   H2    S    
C54   H29   S    
C50   H26   S    
C52   H51   S    
C58   H37   S    
C16   N2    A    
C43   H21   S    
C75   C77   A    
C3    N14   A    
C8    C67   A    
C39   C46   A    
N12   Ni2   S    
N11   Ni4   S    
C48   C49   A    
N2    N4    A    
C76   H59   S    
C47   H22   S    
C16   C23   A    
C7    C19   S    
C28   N3    A    
C32   H16   S    
C1    C85   A    
N3    N5    A    
C42   C43   A    
C71   C77   A    
C65   H46   S    
C62   H40   S    
C4    H3    S    
C55   H31   S    
C26   H9    S    
C15   C17   A    
C66   C77   S    
C54   C55   S    
C36   C37   A    
C73   C84   S    
C33   H17   S    
C6    C59   S    
C2    C8    A    
C45   N8    A    
C80   C81   A    
C2    N13   A    
C57   H41   S    
C57   C61   S    
C29   H11   S    
C80   H53   S    
C64   N6    A    
C34   C52   A    
C49   H25   S    
C36   H18   S    
C18   H6    S    
C32   C33   A    
C19   C20   A    
C58   C59   S    
C71   C72   A    
C10   H63   S    
C83   H57   S    
N2    Ni3   S    
C11   C13   A    
C67   H23   S    
C79   C84   A    
C21   H7    S    
N1    Ni1   S    
C47   C53   A    
N6    Ni4   S    
C33   C35   A    
C4    N16   A    
C1    N1    A    
C61   H42   S    
C22   C24   A    
C9    C78   A    
C65   C66   A    
C69   C70   A    
C28   H27   S    
C15   H5    S    
C79   C80   A    
C16   H15   S    
C79   H52   S    
C20   C21   A    
C78   N11   A    
C12   C44   S    
C49   C50   A    
C14   C15   A    
C48   H24   S    
C55   C60   S    
C35   C46   S    
C76   C85   A    
C55   H32   S    
C20   C31   S    
