data_str_m3_o10_o29_f0_pcu.sym.59
_audit_creation_date              2012-12-10T16:59:21-0500
_audit_creation_method            fapswitch 2.2
_symmetry_space_group_name_H-M    P1
_symmetry_Int_Tables_number       1
_space_group_crystal_system       triclinic
_cell_length_a                    7.727338
_cell_length_b                    8.612115
_cell_length_c                    27.742987
_cell_angle_alpha                 91.072563
_cell_angle_beta                  86.348874
_cell_angle_gamma                 93.374802
_cell_volume                      1839.11009419

loop_
_atom_site_label
_atom_site_type_symbol
_atom_type_description
_atom_site_fract_x
_atom_site_fract_y
_atom_site_fract_z
_atom_type_partial_charge
C1    C     C_R   0.545130 0.794265 0.498954 0.911637
C2    C     C_R   0.522579 0.643006 0.127738 -0.028522
C3    C     C_R   0.510049 0.498747 0.646519 -0.187889
C4    C     C_R   0.489985 0.501494 0.353482 -0.189348
C5    C     C_R   0.535552 0.642659 0.025624 0.047545
C6    C     C_R   0.464597 0.357960 0.974376 0.047559
C7    C     C_R   0.457051 0.359671 0.025580 0.047582
C8    C     C_R   0.543099 0.640948 0.974419 0.047594
C9    C     C_R   0.493065 0.501924 0.050843 0.073545
C10   C     C_R   0.507081 0.498696 0.949157 0.073504
C11   C     C_R   0.568855 0.780910 0.052796 -0.224480
C12   C     C_R   0.455036 0.205566 0.501930 0.933042
C13   C     C_R   0.431291 0.219709 0.947204 -0.224484
C14   C     C_R   0.562549 0.780632 0.102779 -0.138309
C15   C     C_R   0.437584 0.219987 0.897222 -0.138488
C16   C     C_R   0.503267 0.500088 0.593958 0.901828
C17   C     C_R   0.496743 0.499971 0.406042 0.913837
C18   C     C_R   0.586057 0.777098 0.947287 -0.224375
C19   C     C_R   0.414095 0.223520 0.052711 -0.224351
C20   C     C_2   0.564342 0.955336 0.491710 -0.107923
C21   C     C_2   0.436893 0.044527 0.510437 -0.082946
C22   C     C_R   0.557180 0.631888 0.821866 0.520907
C23   C     C_R   0.513280 0.497220 0.897964 -0.049545
C24   C     C_R   0.442938 0.368728 0.178132 0.521293
C25   C     C_R   0.481811 0.359212 0.821821 0.520585
C26   C     C_R   0.518292 0.641406 0.178180 0.520758
C27   C     C_R   0.357933 0.486631 0.725461 -0.093091
C28   C     C_R   0.642130 0.514190 0.274550 -0.091890
C29   C     C_R   0.354158 0.488508 0.675551 -0.271355
C30   C     C_R   0.645886 0.512140 0.324459 -0.267150
C31   C     C_R   0.670310 0.507413 0.668333 0.606943
C32   C     C_R   0.329736 0.492642 0.331661 0.609838
C33   C     C_R   0.672983 0.505855 0.718353 -0.176673
C34   C     C_R   0.486854 0.503399 0.102036 -0.049458
C35   C     C_R   0.327082 0.494380 0.281642 -0.175345
C36   C     C_R   0.517135 0.495396 0.746766 0.228800
C37   C     C_R   0.482939 0.505203 0.253236 0.227851
C38   C     C_R   0.554619 0.635454 0.872304 -0.028083
C39   C     C_R   0.445512 0.365165 0.127694 -0.028343
C40   C     C_R   0.591266 0.774046 0.897306 -0.139695
C41   C     C_R   0.408878 0.226572 0.102692 -0.139515
C42   C     C_R   0.477545 0.357613 0.872262 -0.028368
F1    F     F_    0.823995 0.519069 0.641695 -0.669373
F2    F     F_    0.176049 0.480599 0.358291 -0.667062
H1    H     H_    0.014427 0.383238 0.463553 0.223951
H2    H     H_    0.237392 0.478950 0.747680 0.159750
H3    H     H_    0.590017 0.889444 0.121814 0.194360
H4    H     H_    0.410110 0.111175 0.878187 0.194292
H5    H     H_    0.600759 0.892609 0.036888 0.140038
H6    H     H_    0.399392 0.108009 0.963112 0.140040
H7    H     H_    0.617083 0.889190 0.963223 0.140306
H8    H     H_    0.383077 0.111427 0.036776 0.140300
H9    H     H_    0.822472 0.989508 0.473490 0.211154
H10   H     H_    0.697623 0.953152 0.426095 0.193909
H11   H     H_    0.209053 0.069347 0.552888 0.205079
H12   H     H_    0.985568 0.616748 0.536451 0.223834
H13   H     H_    0.354954 0.960813 0.576259 0.187955
H14   H     H_    0.795972 0.512940 0.735175 0.161701
H15   H     H_    0.204101 0.487115 0.264816 0.161905
H16   H     H_    0.624291 0.881599 0.878301 0.192941
H17   H     H_    0.375852 0.119018 0.121696 0.193001
H18   H     H_    0.770804 0.519485 0.340249 0.227438
H19   H     H_    0.229229 0.481338 0.659768 0.227223
H20   H     H_    0.762680 0.522144 0.252337 0.159863
N1    N     N_R   0.520118 0.495250 0.797969 -0.347184
N2    N     N_R   0.479979 0.505367 0.202031 -0.347292
N3    N     N_2   0.950320 0.457960 0.486880 -0.154302
N4    N     N_2   0.049680 0.542040 0.513120 -0.153225
N5    N     N_3   0.705253 0.013304 0.459068 -0.419473
N6    N     N_3   0.298840 0.985540 0.544152 -0.425862
O1    O     O_R   0.389250 0.738570 0.503220 -0.590633
O2    O     O_2   0.405637 0.236758 0.203180 -0.526873
O3    O     O_2   0.552089 0.774339 0.203313 -0.526473
O4    O     O_2   0.447991 0.226281 0.796690 -0.527646
O5    O     O_R   0.610750 0.261430 0.496780 -0.595895
O6    O     O_R   0.678390 0.711630 0.494810 -0.640753
O7    O     O_R   0.321610 0.288370 0.505190 -0.644358
O8    O     O_R   0.355440 0.513440 0.575450 -0.620623
O9    O     O_R   0.644560 0.486560 0.424550 -0.615374
O10   O     O_R   0.644590 0.486500 0.567040 -0.569081
O11   O     O_R   0.355410 0.513500 0.432960 -0.566630
O12   O     O_2   0.594492 0.763849 0.796815 -0.528269
Zn1   Zn    Zn3+2 0.306940 0.517990 0.505620 1.006255
Zn2   Zn    Zn3+2 0.693060 0.482010 0.494380 1.006067

loop_
_geom_bond_atom_site_label_1
_geom_bond_atom_site_label_2
_ccdc_geom_bond_type
C29   H19   S    
C33   H14   S    
C40   H16   S    
C27   C29   A    
C41   H17   S    
O10   Zn2   S    
H9    N5    S    
C24   C39   A    
C39   C41   A    
C1    O1    A    
C23   C42   A    
C31   F1    S    
C22   O12   S    
C35   C37   A    
C5    C11   A    
C30   H18   S    
O9    Zn2   S    
C11   C14   A    
O5    Zn2   S    
O7    Zn1   S    
C22   C38   A    
C17   O9    A    
C26   O3    S    
C35   H15   S    
C25   O4    S    
C3    C29   A    
C18   C40   A    
O8    Zn1   S    
H1    N3    S    
C31   C33   A    
C33   C36   A    
H13   N6    S    
C17   O11   A    
C24   N2    A    
C2    C34   A    
N3    Zn2   S    
C37   N2    S    
C1    O6    A    
O6    Zn2   S    
C15   H4    S    
C19   H8    S    
O11   Zn1   S    
C18   H7    S    
O1    Zn1   S    
N3    N4    D    
C26   N2    A    
C32   C35   A    
C25   N1    A    
C36   N1    S    
H12   N4    S    
C12   C21   S    
C8    C18   A    
C34   C39   A    
C16   O10   A    
C22   N1    A    
C5    C9    A    
C11   H5    S    
C12   O7    A    
C32   F2    S    
C2    C26   A    
C4    C32   A    
C3    C31   A    
C6    C7    A    
C4    C17   S    
C28   H20   S    
C27   H2    S    
C7    C19   A    
C13   C15   A    
C9    C34   A    
C27   C36   A    
C20   N5    S    
C24   O2    S    
C7    C9    A    
C1    C20   S    
N4    Zn1   S    
C15   C42   A    
C25   C42   A    
C6    C10   A    
C5    C8    A    
C14   H3    S    
C10   C23   A    
C23   C38   A    
C21   N6    S    
C28   C30   A    
C6    C13   A    
C38   C40   A    
H10   N5    S    
C28   C37   A    
C16   O8    A    
C2    C14   A    
H11   N6    S    
C13   H6    S    
C20   C21   D    
C8    C10   A    
C12   O5    A    
C4    C30   A    
C3    C16   S    
C19   C41   A    
