data_str_m12_o4_o22_f0_bcu.sym.240
_audit_creation_date              2013-03-05T15:54:21-0500
_audit_creation_method            fapswitch 2.2
_symmetry_space_group_name_H-M    P1
_symmetry_Int_Tables_number       1
_space_group_crystal_system       triclinic
_cell_length_a                    15.11467
_cell_length_b                    14.851685
_cell_length_c                    14.790337
_cell_angle_alpha                 109.900915
_cell_angle_beta                  109.10573
_cell_angle_gamma                 109.096286
_cell_volume                      2565.45073361

loop_
_atom_site_label
_atom_site_type_symbol
_atom_site_description
_atom_site_fract_x
_atom_site_fract_y
_atom_site_fract_z
_atom_type_partial_charge
C1    C     C_R   0.930237 0.744349 0.022964 -0.072909
H1    H     H_    0.871989 0.746728 0.048947 0.110146
N1    N     N_R   0.995640 0.706130 0.053910 -0.047102
C2    C     C_R   0.776612 0.246792 0.684395 -0.068528
H2    H     H_    0.791651 0.225827 0.616323 0.184567
N2    N     N_R   0.848310 0.293860 0.791110 -0.050726
C3    C     C_R   0.093146 0.590241 0.789407 -0.044932
H3    H     H_    0.155051 0.673238 0.825214 0.175700
N3    N     N_R   0.054010 0.556790 0.847890 -0.073282
C4    C     C_R   0.703684 0.411406 0.009033 -0.143770
H4    H     H_    0.647680 0.326951 0.979229 0.118612
N4    N     N_R   0.789940 0.443190 0.997130 -0.049835
C5    C     C_R   0.000663 0.408369 0.696130 0.311199
N5    N     N_R   0.997630 0.443170 0.791110 -0.098495
C6    C     C_R   0.794354 0.594133 0.099044 -0.093491
H5    H     H_    0.825022 0.679766 0.155351 0.128834
N6    N     N_R   0.846320 0.556810 0.053910 -0.039989
C7    C     C_R   0.687196 0.249320 0.778622 -0.101748
H6    H     H_    0.623789 0.232863 0.799621 0.130723
N7    N     N_R   0.791080 0.293860 0.847890 -0.057788
C8    C     C_R   0.025925 0.751116 0.935185 -0.030146
H7    H     H_    0.059556 0.764803 0.883900 0.150243
N8    N     N_R   0.052880 0.706130 0.997130 -0.062239
C9    C     C_R   0.947214 0.774237 0.948827 0.096421
C10   C     C_R   0.676619 0.220833 0.675705 0.039695
C11   C     C_R   0.063459 0.499233 0.693313 -0.075959
C12   C     C_R   0.704165 0.504907 0.071674 0.068815
C13   C     C_R   0.070538 0.592314 0.313417 -0.030145
H8    H     H_    0.129463 0.676525 0.372638 0.169650
N9    N     N_R   0.002370 0.556830 0.208890 -0.030326
C14   C     C_R   0.224888 0.408434 0.968443 0.316232
N10   N     N_R   0.153680 0.443190 0.946090 -0.095173
C15   C     C_R   0.295570 0.805574 0.206446 0.193127
N11   N     N_R   0.208920 0.706140 0.152110 -0.122797
C16   C     C_R   0.901817 0.194787 0.991719 -0.165837
H9    H     H_    0.839104 0.168182 0.012046 0.126252
N12   N     N_R   0.947120 0.293870 0.002870 -0.057971
C17   C     C_R   0.989271 0.191489 0.898186 0.078852
H10   H     H_    0.005666 0.161042 0.832270 0.216903
N13   N     N_R   0.004360 0.293870 0.946090 -0.072257
C18   C     C_R   0.204304 0.807404 0.297088 0.503474
N14   N     N_R   0.151690 0.706140 0.208890 -0.130915
C19   C     C_R   0.977310 0.409199 0.224195 -0.087935
H11   H     H_    0.947280 0.324117 0.203341 0.105873
N15   N     N_R   0.945990 0.443210 0.152110 -0.053501
C20   C     C_R   0.313761 0.592237 0.063204 0.043944
H12   H     H_    0.374822 0.677524 0.115343 0.124224
N16   N     N_R   0.210060 0.556810 0.002870 -0.052068
Ni1   Ni    Ni4+2 0.999010 0.630300 0.130220 0.304024
Ni2   Ni    Ni4+2 0.000990 0.369700 0.869780 0.318916
Ni3   Ni    Ni4+2 0.130280 0.630280 0.000000 0.313648
Ni4   Ni    Ni4+2 0.869720 0.369720 0.000000 0.218809
C21   C     C_R   0.057208 0.502226 0.326982 0.016326
C22   C     C_R   0.327277 0.500847 0.040008 -0.058488
C23   C     C_R   0.293852 0.870150 0.296735 -0.205736
C24   C     C_R   0.926931 0.127870 0.926737 0.079767
C25   C     C_3   0.529354 0.465329 0.950952 -0.472000
H13   H     H_    0.509220 0.380057 0.895978 0.163218
H14   H     H_    0.569233 0.518059 0.922234 0.227338
C26   C     C_3   0.425375 0.464822 0.939537 0.311599
H15   H     H_    0.360487 0.377864 0.883280 0.098615
H16   H     H_    0.545326 0.347970 0.066615 0.164722
H17   H     H_    0.389615 0.339863 0.033231 0.108059
C27   C     C_3   0.559028 0.432328 0.113446 -0.485302
C28   C     C_3   0.632806 0.625047 0.146333 -0.380679
C29   C     C_3   0.608576 0.507181 0.072303 0.191132
H18   H     H_    0.692659 0.658457 0.233712 0.197673
H19   H     H_    0.666879 0.681484 0.118065 0.177910
C30   C     C_3   0.430669 0.504671 0.055467 -0.034693
C31   C     C_3   0.450495 0.425508 0.098227 0.338850
C32   C     C_3   0.528981 0.623076 0.139543 -0.306587
H20   H     H_    0.520960 0.684316 0.116100 0.210042
H21   H     H_    0.535905 0.652341 0.222535 0.210728
H22   H     H_    0.616837 0.465635 0.201488 0.239676
C33   C     C_R   0.552885 0.028680 0.551325 0.112300
C34   C     C_R   0.578182 0.136263 0.578396 0.014452
C35   C     C_R   0.500363 0.158403 0.522980 -0.165236
H23   H     H_    0.515990 0.242216 0.549665 0.171808
C36   C     C_R   0.403550 0.070587 0.429150 -0.004467
H24   H     H_    0.344462 0.086189 0.382194 0.174138
C37   C     C_R   0.387296 0.963295 0.394149 0.095967
C38   C     C_R   0.459311 0.943449 0.459578 0.253929
C39   C     C_3   0.510247 0.875095 0.431045 -0.486187
C40   C     C_3   0.614535 0.969970 0.534027 -0.370187
H25   H     H_    0.478730 0.799867 0.437306 0.250707
H26   H     H_    0.512527 0.861143 0.353264 0.209259
H27   H     H_    0.641968 0.949711 0.600113 0.231907
H28   H     H_    0.677368 0.010436 0.515963 0.233530
C41   C     C_R   0.172991 0.603712 0.535096 0.004018
C42   C     C_R   0.111186 0.505774 0.432015 0.045018
C43   C     C_R   0.085066 0.407313 0.435300 -0.127103
H29   H     H_    0.051195 0.329575 0.361839 0.137633
C44   C     C_R   0.088064 0.406591 0.530921 -0.068308
H30   H     H_    0.065143 0.329528 0.529659 0.192163
C45   C     C_R   0.109898 0.502550 0.619545 0.080299
C46   C     C_R   0.170172 0.601721 0.626822 0.081034
C47   C     C_3   0.183885 0.714888 0.676757 -0.044108
C48   C     C_3   0.192465 0.719561 0.577998 0.298421
H31   H     H_    0.110656 0.714698 0.677861 0.119187
H32   H     H_    0.126777 0.729120 0.528308 0.071405
C49   C     C_R   0.855844 0.884480 0.960827 0.133357
C50   C     C_R   0.897159 0.830002 0.904435 -0.129179
C51   C     C_R   0.903362 0.845361 0.816913 0.218318
C52   C     C_R   0.900447 0.938469 0.811825 0.203132
C53   C     C_R   0.887823 0.010837 0.892628 -0.144797
C54   C     C_R   0.850829 0.972833 0.954611 0.153901
C55   C     C_3   0.879460 0.031863 0.073458 -0.460513
C56   C     C_3   0.885159 0.934980 0.080303 -0.425818
H33   H     H_    0.959069 0.108568 0.126053 0.206619
H34   H     H_    0.812067 0.040408 0.082694 0.212657
H35   H     H_    0.968061 0.956676 0.136617 0.229260
H36   H     H_    0.821088 0.888186 0.093597 0.205478
N17   N     N_R   0.200460 0.296967 0.910389 0.190930
O1    O     O_R   0.163155 0.247616 0.804143 -0.346342
O2    O     O_R   0.205568 0.241159 0.961460 -0.410757
N18   N     N_R   0.351423 0.848155 0.155814 0.242531
O3    O     O_R   0.436954 0.945000 0.214253 -0.361695
O4    O     O_R   0.311331 0.794956 0.049186 -0.360753
S1    S     S_3+6 0.140919 0.867251 0.358756 -0.035560
O5    O     O_2   0.211177 0.930156 0.482207 -0.211739
O6    O     O_2   0.126932 0.945825 0.320514 -0.308013
O7    O     O_3   0.019601 0.771768 0.323756 -0.591015
H37   H     H_    0.993406 0.813180 0.365710 0.387265
S2    S     S_3+6 0.394165 0.535678 0.865742 0.013801
O8    O     O_2   0.470600 0.657560 0.934554 -0.210591
O9    O     O_2   0.402870 0.492087 0.763021 -0.244244
O10   O     O_3   0.267988 0.512244 0.827103 -0.515567
H38   H     H_    0.222070 0.432409 0.772698 0.350046
S3    S     S_3+6 0.440858 0.443702 0.221383 0.015792
O11   O     O_2   0.536218 0.548483 0.321518 -0.233044
O12   O     O_2   0.339555 0.446258 0.211151 -0.273067
O13   O     O_3   0.439562 0.337537 0.239397 -0.455751
H39   H     H_    0.373070 0.271591 0.173780 0.367611
N19   N     N_R   0.282165 0.793826 0.784089 0.301851
O14   O     O_R   0.342764 0.761920 0.834456 -0.228180
O15   O     O_R   0.301964 0.894552 0.835940 -0.278066
S4    S     S_3+6 0.324305 0.809500 0.607048 0.037563
O16   O     O_2   0.324972 0.784664 0.500220 -0.358762
O17   O     O_2   0.351502 0.927394 0.667699 -0.199703
O18   O     O_3   0.417631 0.789472 0.684092 -0.443988
H40   H     H_    0.486475 0.840615 0.694521 0.366903
N20   N     N_R   0.909606 0.766078 0.733857 0.245892
O19   O     O_R   0.981458 0.797080 0.704792 -0.345619
O20   O     O_R   0.849882 0.661421 0.694787 -0.373412
N21   N     N_R   0.908917 0.958072 0.725815 0.255615
O21   O     O_R   0.834468 0.968596 0.662623 -0.399187
O22   O     O_R   0.998045 0.983166 0.721976 -0.255877
N22   N     N_R   0.965712 0.295829 0.624912 0.198919
O23   O     O_R   0.897247 0.248641 0.520294 -0.417108
O24   O     O_R   0.978184 0.234316 0.667331 -0.361865

loop_
_geom_bond_atom_site_label_1
_geom_bond_atom_site_label_2
_geom_bond_distance
_ccdc_geom_bond_type
C4    C12   1.378351 A    
C15   C23   1.367787 A    
C44   H30   1.073347 S    
N10   N16   1.380143 A    
C18   N14   1.341144 A    
N9    N15   1.380144 A    
N1    N8    1.389025 A    
C45   C46   1.400277 A    
N3    Ni3   1.840894 S    
C40   H27   1.111017 S    
C25   C29   1.545374 S    
N3    N5    1.380143 A    
N21   O21   1.300095 A    
N1    Ni1   1.846627 S    
C3    H3    1.073275 S    
C35   H23   1.083109 S    
S4    O17   1.502590 D    
N11   Ni3   1.841523 S    
C49   C50   1.397272 A    
C3    C11   1.387839 A    
C13   H8    1.067395 S    
C16   N12   1.327807 A    
N22   O24   1.299699 A    
S3    O11   1.502834 D    
N12   N13   1.389026 A    
C17   H10   1.071313 S    
C33   C40   1.493267 S    
C25   H14   1.114543 S    
C54   C55   1.500104 S    
C6    H5    1.080000 S    
C49   C54   1.370649 A    
N18   O3    1.301008 A    
C26   S2    1.814074 S    
C7    H6    1.080718 S    
C30   C32   1.561624 S    
C18   C23   1.372235 A    
H16   C27   1.112581 S    
N21   O22   1.301102 A    
N8    Ni3   1.871298 S    
C19   C21   1.398186 A    
N16   Ni3   1.872281 S    
C16   H9    1.080453 S    
O13   H39   0.990705 S    
C28   H18   1.113181 S    
N11   N14   1.388900 A    
N4    N6    1.380143 A    
C55   C56   1.504190 S    
C27   C31   1.544669 S    
C23   C37   1.420185 S    
C7    N7    1.326114 A    
S3    O13   1.681270 S    
C49   C56   1.499728 S    
S1    O6    1.502958 D    
C44   C45   1.412596 A    
C5    N5    1.343882 A    
C55   H33   1.112559 S    
C50   C51   1.415264 A    
C7    C10   1.370975 A    
C47   N19   1.466605 S    
C52   C53   1.424375 A    
C47   H31   1.111394 S    
C47   C48   1.530472 S    
C25   H13   1.114639 S    
C34   C35   1.403141 A    
C35   C36   1.399227 A    
O18   H40   0.990702 S    
S4    O18   1.682201 S    
C20   N16   1.324788 A    
C48   S4    1.801922 S    
N22   O23   1.302033 A    
C2    N2    1.337061 A    
N6    Ni1   1.897206 S    
C43   H29   1.081991 S    
C32   H21   1.108831 S    
N12   Ni4   1.871297 S    
C25   C26   1.521901 S    
N19   O15   1.300539 A    
N15   Ni4   1.840893 S    
C28   C32   1.529180 S    
C31   S3    1.810128 S    
C37   C38   1.386621 A    
C56   H36   1.112105 S    
C26   H15   1.107960 S    
C1    N1    1.325410 A    
C27   C29   1.543086 S    
C33   C34   1.387067 A    
C43   C44   1.403930 A    
C6    C12   1.367389 A    
C39   C40   1.517887 S    
H17   C31   1.100650 S    
S1    O5    1.501531 D    
C28   H19   1.113411 S    
C46   C47   1.496677 S    
C20   C22   1.382727 A    
C15   N11   1.333971 A    
C18   S1    1.765515 S    
C19   N15   1.344857 A    
N10   Ni2   1.897203 S    
C4    N4    1.325777 A    
S2    O10   1.673817 S    
C39   H25   1.111243 S    
N9    Ni1   1.846341 S    
C28   C29   1.552559 S    
C48   H32   1.109790 S    
C8    N8    1.342482 A    
C19   H11   1.079639 S    
C55   H34   1.111867 S    
N20   O20   1.301433 A    
C5    C11   1.396352 A    
O10   H38   0.990696 S    
C51   N20   1.438146 S    
C2    C10   1.381020 A    
C21   C42   1.472458 S    
S2    O9    1.503884 D    
N17   O1    1.299968 A    
C53   C54   1.397491 A    
S1    O7    1.678915 S    
C11   C45   1.483509 S    
C3    N3    1.334213 A    
C20   H12   1.074746 S    
C15   N18   1.435390 S    
N2    Ni2   1.896657 S    
C16   C24   1.375091 A    
C52   N21   1.433098 S    
C14   N10   1.334507 A    
C40   H28   1.111959 S    
C2    H2    1.070047 S    
C13   C21   1.379783 A    
C33   C38   1.358996 A    
C6    N6    1.321360 A    
N19   O14   1.302327 A    
N2    N7    1.388902 A    
S4    O16   1.499576 D    
N4    Ni4   1.872281 S    
C36   C37   1.402326 A    
C56   H35   1.112463 S    
C41   C48   1.500896 S    
C10   C34   1.416846 S    
C41   C46   1.381136 A    
C13   N9    1.332940 A    
C41   C42   1.407714 A    
C32   H20   1.105192 S    
N7    Ni4   1.841525 S    
C12   C29   1.459172 S    
C17   N13   1.341598 A    
C42   C43   1.407033 A    
N5    Ni2   1.846341 S    
C22   C30   1.482174 S    
C26   C30   1.576404 S    
N13   Ni2   1.846625 S    
C1    H1    1.075469 S    
N18   O4    1.300553 A    
C9    C50   1.464375 S    
C14   C22   1.395697 A    
C30   C31   1.576294 S    
C24   C53   1.469911 S    
C4    H4    1.081081 S    
N14   Ni1   1.896657 S    
C36   H24   1.082858 S    
C39   H26   1.111708 S    
C17   C24   1.381465 A    
C1    C9    1.380658 A    
C38   C39   1.494588 S    
C8    C9    1.396883 A    
C51   C52   1.424198 A    
C27   H22   1.112496 S    
N20   O19   1.299778 A    
C5    N22   1.428862 S    
N17   O2    1.301323 A    
O7    H37   0.990155 S    
C8    H7    1.079269 S    
C14   N17   1.427923 S    
S2    O8    1.501648 D    
S3    O12   1.503003 D    
