data_str_m2_o9_o18_f0_pcu.sym.120
_audit_creation_date              2012-12-10T19:45:39-0500
_audit_creation_method            fapswitch 2.2
_symmetry_space_group_name_H-M    P1
_symmetry_Int_Tables_number       1
_space_group_crystal_system       triclinic
_cell_length_a                    10.860464
_cell_length_b                    14.618928
_cell_length_c                    14.955958
_cell_angle_alpha                 64.351325
_cell_angle_beta                  103.635637
_cell_angle_gamma                 102.434954
_cell_volume                      2062.75915797

loop_
_atom_site_label
_atom_site_type_symbol
_atom_type_description
_atom_site_fract_x
_atom_site_fract_y
_atom_site_fract_z
_atom_type_partial_charge
C1    C     C_R   0.472361 0.120630 0.312718 0.793072
C2    C     C_R   0.522014 0.879610 0.687074 0.827699
C3    C     C_R   0.871546 0.995597 0.502199 -0.071343
C4    C     C_R   0.130539 0.997825 0.506664 -0.054120
C5    C     C_R   0.909732 0.938636 0.459630 0.068765
C6    C     C_R   0.094081 0.046107 0.558363 0.033928
C7    C     C_R   0.434721 0.189803 0.207086 -0.066243
C8    C     C_R   0.528131 0.811185 0.793443 -0.012625
C9    C     C_R   0.323676 0.217811 0.038270 -0.159190
C10   C     C_R   0.573961 0.784963 0.967880 -0.189571
C11   C     C_R   0.367439 0.151286 0.135826 -0.238566
C12   C     C_R   0.576613 0.849274 0.867645 -0.216347
C13   C     C_R   0.456939 0.295732 0.179522 -0.218488
C14   C     C_R   0.480972 0.707411 0.820636 -0.235425
C15   C     C_R   0.412028 0.364300 0.081975 0.049673
C16   C     C_R   0.471588 0.641963 0.921252 0.028207
C17   C     C_R   0.346492 0.324572 0.009624 0.079612
C18   C     C_R   0.517918 0.682515 0.995198 0.066923
C19   C     C_R   0.435481 0.471520 0.053862 0.000072
C20   C     C_R   0.419342 0.537164 0.950672 0.009118
C21   C     C_R   0.347353 0.497096 0.880942 -0.335802
C22   C     C_R   0.470203 0.515625 0.125222 -0.302053
C23   C     C_R   0.263291 0.999093 0.502796 0.845064
C24   C     C_R   0.737565 0.998682 0.500387 0.809367
C25   C     C_R   0.304736 0.391271 0.910127 0.432934
C26   C     C_R   0.502754 0.621249 0.094974 0.439019
C27   C     C_R   0.713493 0.281100 0.669259 -0.325940
C28   C     C_R   0.254741 0.701309 0.361881 -0.333461
C29   C     C_R   0.683018 0.202051 0.636579 0.080921
C30   C     C_R   0.304124 0.790829 0.376137 0.060110
C31   C     C_R   0.512810 0.283093 0.514605 0.031679
C32   C     C_R   0.480209 0.713036 0.492207 0.017779
C33   C     C_R   0.537217 0.364993 0.545613 -0.019888
C34   C     C_R   0.435315 0.619852 0.480550 -0.015393
C35   C     C_R   0.640792 0.362729 0.624264 0.161902
C36   C     C_R   0.321820 0.616495 0.411687 0.148025
C37   C     C_R   0.462512 0.447819 0.502327 0.063660
C38   C     C_R   0.500457 0.531604 0.532304 0.071911
C39   C     C_R   0.600996 0.523901 0.613576 -0.252655
C40   C     C_R   0.349166 0.448341 0.432563 -0.247331
C41   C     C_R   0.669656 0.440859 0.658578 -0.220997
C42   C     C_R   0.278176 0.529817 0.390828 -0.233386
C43   C     C_R   0.350878 0.058685 0.775864 -0.196921
C44   C     C_R   0.689435 0.818360 0.290745 -0.246384
C45   C     C_R   0.259165 0.018897 0.714104 0.483897
C46   C     C_R   0.752454 0.895126 0.325960 0.511877
C47   C     C_R   0.187075 0.085670 0.627447 0.035283
C48   C     C_R   0.823939 0.863931 0.423761 0.074199
C49   C     C_R   0.205235 0.190503 0.606251 -0.231546
C50   C     C_R   0.831732 0.759755 0.483865 -0.261841
C51   C     C_R   0.296717 0.228953 0.668597 -0.131317
C52   C     C_R   0.772283 0.686156 0.446840 -0.168167
C53   C     C_R   0.369206 0.163412 0.753191 -0.169428
C54   C     C_R   0.700145 0.715100 0.351264 -0.148038
C55   C     C_R   0.964740 0.048568 0.551477 -0.279295
C56   C     C_R   0.038172 0.944557 0.458540 -0.241833
Cu1   Cu    Cu3+1 0.466270 0.918260 0.475690 0.935402
Cu2   Cu    Cu3+1 0.533730 0.081740 0.524310 0.951242
H1    H     H_    0.440561 0.194354 0.800287 0.158947
H2    H     H_    0.654670 0.656690 0.324088 0.205113
H3    H     H_    0.273563 0.185097 0.984988 0.180823
H4    H     H_    0.614064 0.816211 0.023854 0.168018
H5    H     H_    0.747096 0.438411 0.720130 0.144957
H6    H     H_    0.190988 0.526714 0.338420 0.143489
H7    H     H_    0.566562 0.722467 0.542139 0.131390
H8    H     H_    0.437175 0.279121 0.454734 0.119461
H9    H     H_    0.252140 0.856368 0.338309 0.127607
H10   H     H_    0.736944 0.137610 0.672657 0.117131
H11   H     H_    0.792300 0.277829 0.730057 0.139518
H12   H     H_    0.165860 0.698937 0.311024 0.151511
H13   H     H_    0.408419 0.008266 0.840930 0.143269
H14   H     H_    0.635812 0.836847 0.215907 0.149908
H15   H     H_    0.151007 0.242689 0.540091 0.148324
H16   H     H_    0.888989 0.736111 0.558121 0.149326
H17   H     H_    0.313841 0.310147 0.650050 0.141705
H18   H     H_    0.783743 0.606499 0.491695 0.169300
H19   H     H_    0.937041 0.087181 0.589954 0.156964
H20   H     H_    0.065894 0.904029 0.421873 0.159665
H21   H     H_    0.452805 0.679032 0.762200 0.151004
H22   H     H_    0.513134 0.323925 0.234452 0.153861
H23   H     H_    0.616188 0.928845 0.848312 0.148561
H24   H     H_    0.347668 0.069601 0.155578 0.153156
N1    N     N_R   0.584450 0.204570 0.560790 -0.179193
N2    N     N_R   0.415550 0.795430 0.439210 -0.185157
O1    O     O_R   0.455540 0.022090 0.338120 -0.595238
O2    O     O_R   0.544460 0.977910 0.661880 -0.584284
O3    O     O_R   0.512510 0.160150 0.379180 -0.586754
O4    O     O_R   0.487490 0.839850 0.620820 -0.597870
O5    O     O_R   0.291160 0.930970 0.479480 -0.596145
O6    O     O_R   0.708840 0.069030 0.520520 -0.590992
O7    O     O_R   0.348130 0.069020 0.520540 -0.579452
O8    O     O_R   0.651870 0.930980 0.479460 -0.586150
H25   H     H_    0.317658 0.549328 0.805435 0.150544
H26   H     H_    0.466010 0.470313 0.204094 0.155024
H27   H     H_    0.628100 0.580973 0.644598 0.140974
H28   H     H_    0.310479 0.385318 0.410790 0.137304
O9    O     O_3   0.248489 0.916286 0.733861 -0.631168
C57   C     C_3   0.152699 0.862317 0.794049 0.015079
H29   H     H_    0.058758 0.890196 0.754576 0.146409
H30   H     H_    0.178344 0.871185 0.866749 0.145015
C58   C     C_3   0.140380 0.748921 0.815465 -0.309356
H31   H     H_    0.115393 0.739167 0.743314 0.222742
H32   H     H_    0.233288 0.720124 0.854950 0.230311
C59   C     C_3   0.038241 0.685807 0.880781 -0.935696
H33   H     H_    0.062957 0.692896 0.954154 0.262544
H34   H     H_    0.032179 0.604003 0.894878 0.257235
H35   H     H_    0.943608 0.711997 0.842223 0.256643
O10   O     O_3   0.760420 0.999985 0.266381 -0.633324
C60   C     C_3   0.654640 0.029974 0.189103 0.073145
H36   H     H_    0.635136 0.103608 0.184164 0.174971
H37   H     H_    0.564634 0.976517 0.204846 0.133250
C61   C     C_3   0.688591 0.049586 0.087970 -0.353130
H38   H     H_    0.774439 0.107866 0.073312 0.235931
H39   H     H_    0.711958 0.978599 0.089580 0.204848
C62   C     C_3   0.579058 0.088263 0.002171 -0.957947
H40   H     H_    0.491015 0.032478 0.015630 0.254367
H41   H     H_    0.605766 0.098540 0.930858 0.252915
H42   H     H_    0.559661 0.163033 0.994702 0.270590
O11   O     O_3   0.217718 0.348624 0.848409 -0.629005
C63   C     C_3   0.203687 0.410891 0.744165 0.066026
H43   H     H_    0.173179 0.358938 0.704566 0.162649
H44   H     H_    0.295665 0.455117 0.719459 0.134513
C64   C     C_3   0.096059 0.477482 0.711249 -0.370960
H45   H     H_    0.002460 0.427883 0.715519 0.214566
H46   H     H_    0.104642 0.516908 0.761736 0.220794
C65   C     C_3   0.097511 0.557377 0.603703 -0.902980
H47   H     H_    0.188906 0.609758 0.598379 0.263879
H48   H     H_    0.017839 0.603246 0.581018 0.252469
H49   H     H_    0.085811 0.519604 0.551246 0.262141
O12   O     O_3   0.524160 0.664606 0.163865 -0.650625
C66   C     C_3   0.406611 0.684789 0.172799 0.030502
H50   H     H_    0.424021 0.698668 0.242097 0.195508
H51   H     H_    0.330721 0.617892 0.182376 0.146735
C67   C     C_3   0.360449 0.781358 0.084315 -0.379566
H52   H     H_    0.439659 0.845495 0.071778 0.219913
H53   H     H_    0.329092 0.766401 0.015157 0.223046
C68   C     C_3   0.248577 0.814113 0.103471 -0.944181
H54   H     H_    0.169941 0.749705 0.122679 0.257948
H55   H     H_    0.212067 0.878746 0.034908 0.249062
H56   H     H_    0.280550 0.840830 0.165231 0.258827

loop_
_geom_bond_atom_site_label_1
_geom_bond_atom_site_label_2
_ccdc_geom_bond_type
C1    O3    A    
C31   H8    S    
C58   H31   S    
Cu1   O8    S    
C27   C29   A    
C5    C56   A    
C36   C42   A    
C19   C20   A    
C18   C26   A    
C6    C55   A    
C66   C67   S    
Cu2   O3    S    
C67   C68   S    
C61   H39   S    
O9    C57   S    
C53   H1    S    
C31   N1    A    
C64   H45   S    
C39   C41   A    
C54   H2    S    
C15   C19   A    
C68   H55   S    
C65   H47   S    
Cu1   O5    S    
C9    H3    S    
C51   H17   S    
C29   N1    A    
C37   C40   A    
C50   H16   S    
C38   C39   A    
C55   H19   S    
C64   H46   S    
C62   H40   S    
C24   O8    A    
C56   H20   S    
O10   C60   S    
C59   H33   S    
C44   H14   S    
C3    C55   A    
C43   C53   A    
C25   O11   S    
C63   H44   S    
C49   C51   A    
C46   O10   S    
C50   C52   A    
C23   O5    A    
C2    O4    A    
C14   C16   A    
C23   O7    A    
Cu2   O7    S    
C30   H9    S    
C27   H11   S    
C63   C64   S    
C16   C20   A    
C3    C5    A    
C48   C50   A    
C13   H22   S    
C58   H32   S    
C1    C7    S    
C4    C56   A    
C22   H26   S    
C3    C24   S    
C10   H4    S    
C40   H28   S    
Cu2   O2    S    
C59   H34   S    
C61   H38   S    
C5    C48   S    
C52   C54   A    
C45   C47   A    
C11   H24   S    
C1    O1    A    
C32   N2    A    
C68   H56   S    
C46   C48   A    
C6    C47   S    
C19   C22   A    
C43   H13   S    
C4    C6    A    
C60   C61   S    
C4    C23   S    
C64   C65   S    
C67   H53   S    
C44   C46   A    
C65   H49   S    
C62   H41   S    
C33   C37   A    
C24   O6    A    
C51   C53   A    
C32   C34   A    
C7    C11   A    
C37   C38   A    
C29   H10   S    
C43   C45   A    
C8    C12   A    
C62   H42   S    
C31   C33   A    
Cu1   N2    S    
C14   H21   S    
C65   H48   S    
C9    C11   A    
C39   H27   S    
C10   C12   A    
Cu2   O6    S    
C9    C17   A    
C58   C59   S    
C57   H30   S    
C13   C15   A    
C52   H18   S    
C49   H15   S    
C41   H5    S    
C66   H50   S    
C42   H6    S    
C63   H43   S    
C15   C17   A    
C21   C25   A    
C8    C14   A    
C34   C38   A    
C28   H12   S    
C40   C42   A    
C66   H51   S    
C26   O12   S    
O11   C63   S    
C67   H52   S    
C47   C49   A    
C57   C58   S    
C68   H54   S    
Cu1   O4    S    
C27   C35   A    
C60   H37   S    
O12   C66   S    
C17   C25   A    
C45   O9    S    
C60   H36   S    
Cu1   Cu2   S    
C21   H25   S    
C10   C18   A    
C28   C30   A    
C33   C35   A    
Cu1   O1    S    
C12   H23   S    
C2    O2    A    
C34   C36   A    
C59   H35   S    
C30   N2    A    
C35   C41   A    
C44   C54   A    
C7    C13   A    
C20   C21   A    
C28   C36   A    
C16   C18   A    
C57   H29   S    
C22   C26   A    
C2    C8    S    
Cu2   N1    S    
C61   C62   S    
C32   H7    S    
