data_str_m2_o16_o16_f0_pcu.sym.192
_audit_creation_date              2013-03-05T15:54:33-0500
_audit_creation_method            fapswitch 2.2
_symmetry_space_group_name_H-M    P1
_symmetry_Int_Tables_number       1
_space_group_crystal_system       triclinic
_cell_length_a                    19.418767
_cell_length_b                    18.745272
_cell_length_c                    12.391813
_cell_angle_alpha                 89.912332
_cell_angle_beta                  129.587654
_cell_angle_gamma                 90.141676
_cell_volume                      3476.19737468

loop_
_atom_site_label
_atom_site_type_symbol
_atom_site_description
_atom_site_fract_x
_atom_site_fract_y
_atom_site_fract_z
_atom_type_partial_charge
O1    O     O_R   0.608610 0.924520 0.551740 -0.562626
O2    O     O_R   0.608610 0.075480 0.551740 -0.543048
O3    O     O_R   0.108610 0.424520 0.551740 -0.571104
O4    O     O_R   0.108610 0.575480 0.551740 -0.542873
O5    O     O_R   0.564110 0.924510 0.685150 -0.609553
O6    O     O_R   0.564110 0.075490 0.685150 -0.618854
O7    O     O_R   0.064110 0.424510 0.685150 -0.613179
O8    O     O_R   0.064110 0.575490 0.685150 -0.614543
C1    C     C_R   0.613735 0.900166 0.656160 0.789698
C2    C     C_R   0.607255 0.104233 0.647792 0.790945
C3    C     C_R   0.107482 0.395933 0.648141 0.798414
C4    C     C_R   0.112778 0.600601 0.654941 0.788107
Cu1   Cu    Cu3+1 0.526340 0.000000 0.421010 0.961556
Cu2   Cu    Cu3+1 0.026340 0.500000 0.421010 0.951938
Cu3   Cu    Cu3+1 0.473640 0.000000 0.578990 0.921264
Cu4   Cu    Cu3+1 0.973640 0.500000 0.578990 0.922391
O9    O     O_R   0.435880 0.075470 0.314850 -0.569317
O10   O     O_R   0.435880 0.924530 0.314850 -0.617410
O11   O     O_R   0.935880 0.575470 0.314850 -0.583717
O12   O     O_R   0.935880 0.424530 0.314850 -0.619492
O13   O     O_R   0.391380 0.075460 0.448260 -0.593666
O14   O     O_R   0.391380 0.924540 0.448260 -0.601380
O15   O     O_R   0.891380 0.575460 0.448260 -0.602271
O16   O     O_R   0.891380 0.424540 0.448260 -0.585778
C5    C     C_R   0.384612 0.098009 0.341702 0.787685
C6    C     C_R   0.386842 0.899790 0.345448 0.786438
C7    C     C_R   0.886820 0.600137 0.345343 0.784980
C8    C     C_R   0.883740 0.402673 0.340380 0.780453
C9    C     C_R   0.663883 0.308071 0.132066 -0.203676
C10   C     C_R   0.678169 0.710386 0.151557 -0.155413
C11   C     C_R   0.182077 0.784619 0.161068 -0.151420
C12   C     C_R   0.162905 0.188476 0.130306 -0.201914
H1    H     H_    0.249319 0.855302 0.336068 0.160746
H2    H     H_    0.237756 0.124730 0.314428 0.160921
H3    H     H_    0.741260 0.367871 0.321381 0.158137
H4    H     H_    0.744041 0.639247 0.325888 0.164397
H5    H     H_    0.611694 0.301784 0.139435 0.143615
H6    H     H_    0.622817 0.716413 0.151009 0.197220
H7    H     H_    0.128460 0.776714 0.164429 0.197297
H8    H     H_    0.108271 0.190495 0.132592 0.143109
C13   C     C_R   0.321236 0.843747 0.257163 -0.048698
C14   C     C_R   0.310318 0.144694 0.238824 -0.043252
C15   C     C_R   0.808491 0.356978 0.234962 -0.035944
C16   C     C_R   0.820594 0.655519 0.256013 -0.062622
C17   C     C_R   0.711016 0.197040 0.688534 -0.303040
C18   C     C_R   0.768963 0.861315 0.789228 -0.293582
C19   C     C_R   0.265312 0.644492 0.781701 -0.303698
C20   C     C_R   0.211253 0.302355 0.689283 -0.284787
C21   C     C_R   0.344703 0.668062 0.906932 0.044501
C22   C     C_R   0.265150 0.243100 0.759384 0.034750
C23   C     C_R   0.764123 0.256961 0.754868 0.052969
C24   C     C_R   0.847654 0.835446 0.912437 0.039170
C25   C     C_R   0.342238 0.707245 0.000193 -0.170624
C26   C     C_R   0.276297 0.216704 0.875204 -0.158415
C27   C     C_R   0.771736 0.288081 0.865055 -0.171351
C28   C     C_R   0.844003 0.793764 0.002182 -0.134475
C29   C     C_R   0.718914 0.263224 0.899702 0.038712
C30   C     C_R   0.761520 0.778518 0.970661 0.041148
C31   C     C_R   0.260340 0.721109 0.971018 0.036556
C32   C     C_R   0.223046 0.241482 0.908233 0.031566
C33   C     C_R   0.653318 0.210165 0.813329 0.028273
C34   C     C_R   0.682142 0.807823 0.847981 0.009823
C35   C     C_R   0.180818 0.691171 0.849685 0.030271
C36   C     C_R   0.155461 0.292088 0.817879 0.019358
C37   C     C_R   0.256483 0.759886 0.064750 0.048570
C38   C     C_R   0.230286 0.212921 0.021528 0.042083
C39   C     C_R   0.726329 0.291700 0.013399 0.046018
C40   C     C_R   0.756616 0.739052 0.063045 0.052131
C41   C     C_R   0.657659 0.278600 0.021545 0.103315
C42   C     C_R   0.677789 0.741938 0.048154 0.067681
C43   C     C_R   0.179760 0.754292 0.055085 0.070047
C44   C     C_R   0.159126 0.221885 0.024707 0.102101
C45   C     C_R   0.584547 0.235623 0.920147 0.188779
C46   C     C_R   0.599121 0.772063 0.926741 0.236815
C47   C     C_R   0.100894 0.723108 0.935705 0.224016
C48   C     C_R   0.085779 0.264245 0.922835 0.193409
C49   C     C_R   0.583519 0.201223 0.819430 -0.218507
C50   C     C_R   0.600808 0.796796 0.821655 -0.216068
C51   C     C_R   0.100511 0.699775 0.827795 -0.223996
C52   C     C_R   0.085019 0.299684 0.822871 -0.213849
C53   C     C_R   0.325418 0.806593 0.164008 -0.248287
C54   C     C_R   0.307095 0.176628 0.133305 -0.177501
C55   C     C_R   0.801964 0.330366 0.122709 -0.245102
C56   C     C_R   0.826961 0.694834 0.167132 -0.189276
C57   C     C_R   0.252068 0.829213 0.260943 -0.181907
C58   C     C_R   0.237717 0.150619 0.236149 -0.198262
C59   C     C_R   0.738777 0.346048 0.238034 -0.194906
C60   C     C_R   0.748512 0.666884 0.253697 -0.184804
C61   C     C_R   0.657609 0.171030 0.718756 -0.086606
C62   C     C_R   0.686698 0.851099 0.758561 -0.082920
C63   C     C_R   0.184341 0.650924 0.756150 -0.086048
C64   C     C_R   0.158603 0.329746 0.720510 -0.089139
H9    H     H_    0.379927 0.818104 0.163871 0.139564
H10   H     H_    0.365864 0.174339 0.141577 0.171978
H11   H     H_    0.857736 0.338260 0.124369 0.140581
H12   H     H_    0.885014 0.686797 0.175146 0.185967
H13   H     H_    0.708638 0.172251 0.607722 0.158311
H14   H     H_    0.773750 0.896822 0.725990 0.144273
H15   H     H_    0.268307 0.612955 0.712288 0.172175
H16   H     H_    0.207513 0.324979 0.605393 0.134870
H17   H     H_    0.405211 0.722922 0.098658 0.161557
H18   H     H_    0.322064 0.173518 0.931891 0.213192
H19   H     H_    0.814742 0.334034 0.916642 0.136129
H20   H     H_    0.906732 0.777587 0.100088 0.163165
H21   H     H_    0.523805 0.171444 0.741344 0.208644
H22   H     H_    0.538715 0.810379 0.720884 0.176449
H23   H     H_    0.037627 0.686129 0.728136 0.177857
H24   H     H_    0.024817 0.328598 0.743971 0.212149
C65   C     C_R   0.681789 0.993240 0.285667 -0.331216
C66   C     C_R   0.181410 0.496980 0.284221 -0.318764
H25   H     H_    0.752717 0.991011 0.339898 0.174101
H26   H     H_    0.251405 0.490848 0.335310 0.175980
N1    N     N_R   0.566260 1.000000 0.302220 -0.226838
N2    N     N_R   0.066260 0.500000 0.302220 -0.236148
C67   C     C_R   0.345396 0.991501 0.624786 0.126396
C68   C     C_R   0.844859 0.498749 0.623999 0.096122
C69   C     C_R   0.313252 0.971983 0.693434 -0.211692
C70   C     C_R   0.810604 0.493191 0.692995 -0.186121
C71   C     C_R   0.372213 0.965422 0.838592 -0.091065
C72   C     C_R   0.868934 0.489445 0.838366 -0.025967
C73   C     C_R   0.463602 0.983640 0.919036 0.026995
C74   C     C_R   0.962221 0.500524 0.918691 0.005788
C75   C     C_R   0.494290 0.994605 0.842192 0.219754
C76   C     C_R   0.993629 0.502189 0.841963 0.217378
C77   C     C_R   0.526347 0.988403 0.070765 -0.125715
C78   C     C_R   0.025996 0.504151 0.070392 -0.100540
C79   C     C_R   0.619149 0.991592 0.139220 0.029833
C80   C     C_R   0.118744 0.503285 0.138399 0.013601
C81   C     C_R   0.649159 0.994809 0.061634 0.207703
C82   C     C_R   0.148540 0.505157 0.060486 0.204442
C83   C     C_R   0.586470 0.997528 0.915753 -0.230645
C84   C     C_R   0.085638 0.503889 0.914852 -0.213464
C85   C     C_R   0.502063 0.995087 0.158266 0.087384
C86   C     C_R   0.002582 0.507985 0.158648 0.092454
C87   C     C_R   0.654713 0.998524 0.365661 0.438534
C88   C     C_R   0.154785 0.494687 0.365393 0.439261
N3    N     N_R   0.434410 1.000000 0.697680 -0.205036
N4    N     N_R   0.934410 0.500000 0.697680 -0.207150
H27   H     H_    0.300027 0.994039 0.511654 0.118807
H28   H     H_    0.800082 0.498694 0.510780 0.122991
H29   H     H_    0.344848 0.941854 0.883089 0.115459
H30   H     H_    0.838484 0.472572 0.882143 0.119710
H31   H     H_    0.243171 0.959300 0.633831 0.140132
H32   H     H_    0.739379 0.486732 0.633870 0.138859
H33   H     H_    0.612000 0.002942 0.862163 0.229748
H34   H     H_    0.110717 0.502528 0.860384 0.228903
N5    N     N_2   0.742585 0.003319 0.132673 -0.435071
H35   H     H_    0.770023 0.049998 0.189197 0.253783
C89   C     C_3   0.778457 0.980424 0.065814 -0.668012
H36   H     H_    0.852244 0.976140 0.145628 0.237221
H37   H     H_    0.762316 0.019853 0.985608 0.214340
H38   H     H_    0.751584 0.927245 0.017589 0.247554
N6    N     N_2   0.242330 0.509840 0.130960 -0.432477
H39   H     H_    0.273805 0.553682 0.195412 0.256318
C90   C     C_3   0.276425 0.488642 0.060469 -0.671463
H40   H     H_    0.350282 0.484060 0.138451 0.234761
H41   H     H_    0.259671 0.529471 0.981922 0.227359
H42   H     H_    0.248926 0.435758 0.009592 0.235580
C91   C     C_2   0.408306 0.004143 0.095609 0.444831
H43   H     H_    0.370155 0.960359 0.090730 0.065658
O17   O     O_2   0.369827 0.059473 0.036272 -0.595008
C92   C     C_2   0.912076 0.529733 0.098924 0.393044
H44   H     H_    0.871114 0.496224 0.109196 0.088946
O18   O     O_2   0.881234 0.585673 0.033987 -0.579422
N7    N     N_2   0.512367 0.223959 0.920618 -0.427523
H45   H     H_    0.486443 0.269791 0.928204 0.235877
C93   C     C_3   0.528812 0.168260 0.015286 -0.579979
H46   H     H_    0.469299 0.160462 0.007649 0.255845
H47   H     H_    0.586571 0.181269 0.125538 0.190612
H48   H     H_    0.543110 0.118277 0.986730 0.246459
N8    N     N_2   0.519606 0.775816 0.911718 -0.428113
H49   H     H_    0.528161 0.801540 0.993061 0.249339
C94   C     C_3   0.434102 0.790022 0.775989 -0.709184
H50   H     H_    0.380238 0.785673 0.783463 0.227505
H51   H     H_    0.420556 0.750271 0.698091 0.229342
H52   H     H_    0.432822 0.844883 0.741030 0.239838
N9    N     N_2   0.023040 0.717687 0.925030 -0.423329
H53   H     H_    0.033522 0.690866 0.007116 0.264039
C95   C     C_3   0.936304 0.704054 0.790845 -0.661862
H54   H     H_    0.883998 0.708100 0.801838 0.243496
H55   H     H_    0.933751 0.649453 0.753990 0.233183
H56   H     H_    0.921551 0.744347 0.712789 0.218389
N10   N     N_2   0.013629 0.275080 0.923366 -0.403707
H57   H     H_    0.985479 0.228790 0.924905 0.237790
C96   C     C_3   0.032026 0.327472 0.024327 -0.597720
H58   H     H_    0.970475 0.339247 0.009263 0.230482
H59   H     H_    0.056420 0.376666 0.009935 0.244804
H60   H     H_    0.083846 0.308639 0.133366 0.191742
C97   C     C_2   0.430075 0.643999 0.945540 0.359800
H61   H     H_    0.433260 0.627013 0.865104 0.084655
O19   O     O_2   0.496870 0.639601 0.068223 -0.577770
C98   C     C_2   0.306538 0.208057 0.706443 0.364444
H62   H     H_    0.309740 0.235648 0.632635 0.058241
O20   O     O_2   0.334436 0.147040 0.740243 -0.525551
C99   C     C_2   0.809391 0.285823 0.703650 0.342264
H63   H     H_    0.809430 0.255808 0.628794 0.063536
O21   O     O_2   0.845601 0.343876 0.741390 -0.554836
C100  C     C_2   0.933801 0.858944 0.952415 0.372077
H64   H     H_    0.936520 0.880824 0.874017 0.075019
O22   O     O_2   0.002100 0.856792 0.074203 -0.578820
N11   N     N_2   0.719755 0.999103 0.513683 -0.369735
H65   H     H_    0.750242 0.950153 0.550421 0.223966
C101  C     C_3   0.785496 0.055763 0.572409 -0.736101
H66   H     H_    0.840471 0.040450 0.571731 0.209898
H67   H     H_    0.814400 0.065318 0.682481 0.235472
H68   H     H_    0.754822 0.105948 0.511822 0.222686
N12   N     N_2   0.219200 0.483623 0.512608 -0.370250
H69   H     H_    0.228679 0.430202 0.537135 0.242675
C102  C     C_3   0.303990 0.520589 0.587510 -0.766704
H70   H     H_    0.347008 0.494707 0.568981 0.218121
H71   H     H_    0.340104 0.517395 0.701637 0.227491
H72   H     H_    0.293449 0.577550 0.555562 0.234855

loop_
_geom_bond_atom_site_label_1
_geom_bond_atom_site_label_2
_geom_bond_distance
_ccdc_geom_bond_type
C30   C34   1.415578 A    
N8    H49   1.031432 S    
C39   C55   1.406926 A    
N7    H45   1.031053 S    
C11   C57   1.389761 A    
C18   C24   1.388937 A    
C90   H41   1.111010 S    
C27   C29   1.418408 A    
C15   C55   1.406040 A    
N11   H65   1.028398 S    
C4    C63   1.473032 S    
C66   C88   1.394086 A    
N5    H35   1.031534 S    
O10   C6    1.312677 A    
C44   C48   1.401307 A    
C69   H31   1.082563 S    
C25   C31   1.412949 A    
C93   H47   1.109359 S    
C35   C51   1.411910 A    
C94   H50   1.110111 S    
H4    C60   1.083284 S    
C10   C60   1.389850 A    
O7    C3    1.304571 A    
C15   C59   1.392980 A    
N8    C94   1.448516 S    
C76   C84   1.397193 A    
C22   C26   1.397840 A    
Cu1   O10   1.966182 S    
C54   H10   1.079776 S    
C76   N4    1.378513 A    
N5    C89   1.447050 S    
C53   H9    1.080797 S    
C70   H32   1.082748 S    
C65   H25   1.082079 S    
C56   H12   1.077735 S    
C96   H59   1.100724 S    
C21   C97   1.474066 S    
C17   C23   1.384763 A    
C27   H19   1.079733 S    
C102  H72   1.111407 S    
C19   H15   1.076191 S    
C84   H34   1.054722 S    
C10   H6    1.076764 S    
C81   C83   1.395592 A    
H2    C58   1.083558 S    
C97   O19   1.219563 D    
O2    Cu1   1.968718 S    
H1    C57   1.083301 S    
C68   H28   1.081485 S    
C66   H26   1.079494 S    
O6    Cu3   1.966540 S    
H3    C59   1.083543 S    
C7    C16   1.464805 S    
C65   C79   1.400153 A    
Cu3   O14   1.968395 S    
C38   C44   1.417673 A    
C67   N3    1.355830 A    
C2    C61   1.482776 S    
C25   H17   1.080826 S    
N9    C95   1.448025 S    
C14   C54   1.401949 A    
C42   C46   1.410155 A    
C20   C64   1.402171 A    
C91   O17   1.214909 D    
C41   C45   1.402604 A    
C100  H64   1.085739 S    
C14   C58   1.393646 A    
O15   C7    1.304890 A    
C28   C30   1.414378 A    
O4    C4    1.316614 A    
C48   N10   1.420374 S    
O11   C7    1.313675 A    
C92   O18   1.221525 D    
C95   H56   1.110768 S    
C11   C43   1.406011 A    
C18   H14   1.075483 S    
C13   C53   1.395136 A    
O8    Cu4   1.966540 S    
N1    C85   1.382154 A    
C95   H55   1.109479 S    
C90   H42   1.111552 S    
C36   C52   1.415656 A    
C89   H37   1.110960 S    
N7    C93   1.445248 S    
N11   C101  1.448785 S    
C29   C39   1.426209 A    
C3    C64   1.482253 S    
C10   C42   1.406203 A    
C33   C61   1.430358 A    
C93   H48   1.098946 S    
C9    C41   1.409432 A    
C94   H51   1.110776 S    
C20   H16   1.080917 S    
C101  H68   1.110905 S    
C81   N5    1.433623 S    
N12   H69   1.028455 S    
C40   C56   1.404786 A    
Cu2   O12   1.966182 S    
O1    C1    1.314123 A    
C65   C87   1.390584 A    
C28   H20   1.079285 S    
C12   C44   1.408990 A    
C89   H38   1.106771 S    
C33   C49   1.414349 A    
C93   H46   1.107108 S    
C96   H60   1.109196 S    
C26   C32   1.412417 A    
O12   C8    1.303414 A    
C67   C69   1.386286 A    
Cu2   N2    2.054786 S    
C95   H54   1.110288 S    
C9    H5    1.080113 S    
C85   C91   1.464873 S    
C98   O20   1.220467 D    
C74   C78   1.450857 A    
O1    Cu1   1.970834 S    
C82   C84   1.392800 A    
N10   H57   1.031021 S    
C79   C81   1.407599 A    
O5    C1    1.307602 A    
C38   C54   1.405389 A    
N10   C96   1.445584 S    
C101  H67   1.109995 S    
C37   C53   1.403711 A    
C91   H43   1.079900 S    
O8    C4    1.304997 A    
O5    Cu3   1.969894 S    
C12   C58   1.381337 A    
C102  H70   1.110278 S    
N2    C86   1.383083 A    
C51   H23   1.076620 S    
C72   H30   1.072993 S    
C55   H11   1.079861 S    
O3    Cu2   1.970834 S    
C46   N8    1.434540 S    
C52   H24   1.077541 S    
C71   C73   1.415310 A    
N1    C87   1.359508 A    
C30   C40   1.415253 A    
O7    Cu4   1.969894 S    
C45   N7    1.421740 S    
C67   H27   1.081503 S    
C73   C77   1.451856 A    
Cu4   O15   1.970507 S    
Cu1   Cu3   2.726368 S    
O14   C6    1.305623 A    
C71   H29   1.073839 S    
Cu2   Cu4   2.726368 S    
N6    C90   1.448705 S    
C36   C64   1.431383 A    
C1    C62   1.474817 S    
C74   C76   1.419830 A    
O2    C2    1.322816 A    
C68   N4    1.354415 A    
Cu3   N3    2.042439 S    
C73   C75   1.423424 A    
C17   C61   1.394820 A    
C72   C74   1.419906 A    
O16   C8    1.313675 A    
C77   C79   1.421962 A    
C92   H44   1.081555 S    
C94   H52   1.109466 S    
C77   C85   1.437415 A    
O13   C5    1.310305 A    
C78   C80   1.421233 A    
C75   C83   1.399348 A    
C19   C63   1.397648 A    
Cu2   O11   1.969532 S    
C34   C50   1.409111 A    
Cu4   N4    2.042439 S    
C48   C52   1.396518 A    
N12   C102  1.449557 S    
C16   C56   1.393601 A    
C80   C82   1.407111 A    
C5    C14   1.459854 S    
O6    C2    1.303038 A    
C88   N12   1.423875 S    
C100  O22   1.219536 D    
C29   C33   1.420124 A    
C18   C62   1.399283 A    
C19   C21   1.389146 A    
C13   C57   1.399585 A    
C75   N3    1.383934 A    
C8    C15   1.462800 S    
C31   C35   1.413968 A    
C49   H21   1.077458 S    
Cu1   O9    1.969532 S    
C32   C36   1.416343 A    
C26   H18   1.069937 S    
C98   H62   1.085720 S    
C69   C71   1.391674 A    
O9    C5    1.305784 A    
C23   C99   1.475114 S    
C89   H36   1.109893 S    
C31   C37   1.413082 A    
C43   C47   1.409352 A    
C22   C98   1.477760 S    
C96   H58   1.108610 S    
C21   C25   1.396647 A    
C34   C62   1.419711 A    
C20   C22   1.388445 A    
C102  H71   1.109667 S    
C68   C70   1.381519 A    
C50   H22   1.076831 S    
C83   H33   1.056518 S    
C82   N6    1.435178 S    
C23   C27   1.403998 A    
C37   C43   1.420170 A    
C12   H8    1.079953 S    
O4    Cu2   1.968718 S    
C97   H61   1.085527 S    
C47   N9    1.434526 S    
C70   C72   1.390112 A    
C9    C59   1.382015 A    
O3    C3    1.321360 A    
C32   C38   1.422651 A    
C99   H63   1.086056 S    
C86   C92   1.465475 S    
Cu3   O13   1.970507 S    
C24   C100  1.476052 S    
C78   C86   1.429026 A    
C45   C49   1.394465 A    
Cu4   O16   1.968395 S    
N9    H53   1.031465 S    
C46   C50   1.401500 A    
C35   C63   1.421719 A    
C90   H40   1.110001 S    
C11   H7    1.078055 S    
C40   C42   1.421419 A    
N2    C88   1.365048 A    
C17   H13   1.078542 S    
C87   N11   1.416740 S    
C101  H66   1.111344 S    
C39   C41   1.420753 A    
N6    H39   1.031613 S    
C16   C60   1.398499 A    
C47   C51   1.403053 A    
Cu1   N1    2.054786 S    
C24   C28   1.396368 A    
C6    C13   1.464249 S    
C66   C80   1.399113 A    
C99   O21   1.214918 D    
