data_str_m9_o11_o16_f0_sra.sym.33
_audit_creation_date              2012-12-11T14:17:43-0500
_audit_creation_method            fapswitch 2.2
_symmetry_space_group_name_H-M    P1
_symmetry_Int_Tables_number       1
_space_group_crystal_system       triclinic
_cell_length_a                    6.947579
_cell_length_b                    13.617616
_cell_length_c                    20.500636
_cell_angle_alpha                 102.121802
_cell_angle_beta                  89.377801
_cell_angle_gamma                 90.312263
_cell_volume                      1896.18692604

loop_
_atom_site_label
_atom_site_type_symbol
_atom_type_description
_atom_site_fract_x
_atom_site_fract_y
_atom_site_fract_z
_atom_type_partial_charge
O1    O     O_R   0.506860 0.599390 0.449240 -0.543784
O2    O     O_R   0.180220 0.594600 0.586780 -0.547318
O3    O     O_R   0.004500 0.400610 0.550760 -0.541063
C1    C     C_R   0.346841 0.615900 0.612813 0.748114
O4    O     O_R   0.177490 0.611290 0.451970 -0.538587
O5    O     O_R   0.001750 0.417420 0.414990 -0.530936
C2    C     C_R   0.347121 0.637542 0.434923 0.697341
O6    O     O_R   0.509610 0.582580 0.585010 -0.523874
O7    O     O_3   0.337420 0.436370 0.488020 -0.379010
V1    V     V_3+5 0.064680 0.511800 0.502220 1.497344
O8    O     O_R   0.671710 0.405400 0.413220 -0.559393
C3    C     C_R   0.840154 0.387932 0.385458 0.681989
O9    O     O_R   0.674440 0.388710 0.548030 -0.540507
C4    C     C_R   0.842666 0.362731 0.565352 0.719521
V2    V     V_3+5 0.564010 0.488200 0.497780 1.477205
O10   O     O_3   0.841140 0.563630 0.511980 -0.365828
C5    C     C_R   0.931185 0.114995 0.613839 -0.150081
H1    H     H_    0.980207 0.041214 0.589069 0.168902
C6    C     C_R   0.852663 0.284674 0.605280 -0.125289
C7    C     C_R   0.869200 0.314776 0.927692 -0.214771
C8    C     C_R   0.880517 0.390578 0.891719 0.003565
C9    C     C_R   0.879423 0.366504 0.821998 -0.169499
C10   C     C_R   0.858907 0.265779 0.786544 0.060449
C11   C     C_R   0.864297 0.188760 0.823759 0.072604
C12   C     C_R   0.851671 0.238985 0.715133 0.016079
C13   C     C_R   0.890330 0.137438 0.682857 0.101595
C14   C     C_R   0.893165 0.061428 0.720705 -0.014104
C15   C     C_R   0.876529 0.088004 0.790002 -0.282546
C16   C     C_R   0.808621 0.308672 0.674132 -0.115328
C17   C     C_R   0.919869 0.188410 0.575878 -0.073890
C18   C     C_R   0.864246 0.214270 0.894473 -0.076096
H2    H     H_    0.871390 0.333772 0.981804 0.122719
H3    H     H_    0.906439 0.427065 0.796562 0.134726
H4    H     H_    0.878296 0.028485 0.817754 0.103545
C19   C     C_2   0.993019 0.278137 0.287288 -0.113292
C20   C     C_2   0.843398 0.337709 0.313708 -0.134635
H5    H     H_    0.113765 0.270779 0.319135 0.123863
C21   C     C_2   0.008336 0.220020 0.217060 -0.077070
C22   C     C_2   0.857002 0.173803 0.182855 -0.242045
H6    H     H_    0.151622 0.209446 0.195087 0.128068
H7    H     H_    0.715955 0.178264 0.206597 0.127945
C23   C     C_2   0.228759 0.749741 0.794496 -0.077981
C24   C     C_2   0.376598 0.811370 0.820585 -0.227592
C25   C     C_2   0.236722 0.678229 0.728039 -0.085817
C26   C     C_2   0.347962 0.690043 0.675752 -0.204850
H8    H     H_    0.142821 0.612752 0.721578 0.130102
H9    H     H_    0.435403 0.756364 0.676941 0.128974
C27   C     C_R   0.449476 0.880081 0.382713 -0.135533
H10   H     H_    0.464728 0.827855 0.473936 0.131359
H11   H     H_    0.464543 0.006526 0.301007 0.126071
H12   H     H_    0.494403 0.955345 0.406472 0.131145
C28   C     C_R   0.360967 0.712479 0.393136 -0.076253
C29   C     C_R   0.341544 0.684061 0.069998 -0.134240
C30   C     C_R   0.348907 0.607133 0.104866 -0.087778
C31   C     C_R   0.362336 0.629181 0.174172 -0.124068
C32   C     C_R   0.359801 0.729616 0.210969 0.063875
C33   C     C_R   0.369871 0.807766 0.174429 0.069251
C34   C     C_R   0.363709 0.754997 0.282493 0.034019
C35   C     C_R   0.415181 0.854966 0.313983 0.135165
C36   C     C_R   0.431075 0.929705 0.276871 -0.180629
C37   C     C_R   0.401256 0.907360 0.208587 -0.194181
C38   C     C_R   0.317040 0.686791 0.324596 -0.108218
C39   C     C_R   0.430644 0.808075 0.421330 -0.166407
C40   C     C_R   0.355882 0.784038 0.103976 -0.083545
H13   H     H_    0.332718 0.665515 0.016045 0.129758
H14   H     H_    0.386066 0.566299 0.197330 0.146667
H15   H     H_    0.348620 0.529711 0.077899 0.135373
H16   H     H_    0.411403 0.968497 0.182409 0.111950
O11   O     O_R   0.203230 0.917310 0.915020 -0.536380
O12   O     O_R   0.535500 0.888690 0.048040 -0.537181
O13   O     O_R   0.711080 0.082610 0.085000 -0.545684
C41   C     C_R   0.366093 0.861880 0.064548 0.697880
O14   O     O_R   0.532630 0.905370 0.913230 -0.540838
O15   O     O_R   0.708190 0.099410 0.949230 -0.541765
C42   C     C_R   0.366523 0.882912 0.886745 0.669042
O16   O     O_R   0.206120 0.900510 0.050790 -0.537628
O17   O     O_3   0.375360 0.063570 0.011990 -0.375034
V3    V     V_3+5 0.648170 0.988200 0.997780 1.477942
O18   O     O_R   0.038240 0.111390 0.951940 -0.543029
C43   C     C_R   0.870214 0.137390 0.934823 0.697136
O19   O     O_R   0.041120 0.094710 0.086750 -0.546376
C44   C     C_R   0.871850 0.113406 0.114054 0.732445
V4    V     V_3+5 0.148810 0.011930 0.002180 1.457665
O20   O     O_3   0.871750 0.936430 0.988010 -0.359700
C45   C     C_1   0.970457 0.162016 0.505770 0.288908
N1    N     N_1   0.010918 0.140977 0.449663 -0.376366
C46   C     C_2   0.685960 0.365933 0.272443 0.385935
H17   H     H_    0.543975 0.383568 0.294228 0.041210
O21   O     O_2   0.715897 0.376146 0.215432 -0.513493
C47   C     C_1   0.060645 0.741750 0.835285 0.346762
N2    N     N_1   0.928175 0.735365 0.868835 -0.275910
C48   C     C_2   0.573110 0.800396 0.789948 0.460450
H18   H     H_    0.660067 0.866733 0.789665 0.012212
O22   O     O_2   0.643523 0.717599 0.769148 -0.505080
C49   C     C_2   0.906391 0.952279 0.690911 0.326217
H19   H     H_    0.975275 0.902488 0.718524 0.058566
O23   O     O_2   0.830470 0.915801 0.637869 -0.535863
C50   C     C_1   0.203751 0.596770 0.301369 0.269782
N3    N     N_1   0.112650 0.525048 0.283122 -0.330392
C51   C     C_1   0.697767 0.398961 0.699355 0.277936
N4    N     N_1   0.608638 0.470830 0.719143 -0.305874
C52   C     C_1   0.899059 0.493497 0.926816 0.322217
N5    N     N_1   0.913987 0.575968 0.955388 -0.328959

loop_
_geom_bond_atom_site_label_1
_geom_bond_atom_site_label_2
_ccdc_geom_bond_type
C34   C38   A    
O18   V4    S    
C31   C32   A    
H10   C39   S    
O12   V3    S    
C14   C49   S    
C49   H19   S    
C41   O16   A    
O19   C44   A    
C18   C43   S    
C22   H7    S    
O17   V3    S    
C13   C14   A    
C27   C35   A    
C5    C13   A    
C19   H5    S    
C2    C28   S    
C45   N1    T    
C21   C22   D    
C29   C40   A    
O17   V4    S    
V2    O10   S    
C32   C33   A    
C51   N4    T    
C38   C50   S    
O8    V2    S    
C27   H12   S    
C19   C20   D    
C10   C11   A    
O1    V2    S    
C3    C20   S    
C29   H13   S    
O7    V1    S    
C1    O6    A    
O13   C44   A    
C10   C12   A    
C15   H4    S    
C35   C36   A    
O15   C43   A    
C8    C9    A    
C24   C42   S    
C5    C17   A    
O14   C42   A    
C23   C25   S    
O16   V4    S    
O19   V4    S    
C25   H8    S    
C1    C26   S    
C26   H9    S    
C20   C46   S    
C12   C16   A    
C19   C21   S    
O4    C2    A    
C27   C39   A    
C30   H15   S    
C12   C13   A    
C29   C30   A    
C36   C37   A    
C23   C47   S    
O2    C1    A    
O11   V4    S    
V4    O20   S    
O14   V3    S    
C48   O22   D    
C5    H1    S    
C17   C45   S    
O3    C4    A    
C8    C52   S    
O6    V2    S    
C46   O21   D    
C23   C24   D    
O2    V1    S    
O5    C3    A    
C31   H14   S    
C25   C26   D    
C33   C40   A    
C7    H2    S    
C9    H3    S    
C30   C31   A    
C16   C51   S    
O1    C2    A    
C4    C6    S    
C11   C15   A    
C22   C44   S    
C28   C39   A    
O5    V1    S    
O12   C41   A    
O8    C3    A    
C49   O23   D    
C33   C37   A    
C24   C48   S    
H11   C36   S    
O9    V2    S    
C34   C35   A    
C11   C18   A    
O4    V1    S    
O3    V1    S    
C28   C38   A    
C21   H6    S    
C37   H16   S    
C47   N2    T    
C48   H18   S    
C32   C34   A    
O11   C42   A    
C40   C41   S    
O7    V2    S    
C52   N5    T    
O18   C43   A    
V3    O20   S    
C7    C8    A    
C46   H17   S    
C50   N3    T    
O15   V3    S    
C14   C15   A    
C9    C10   A    
V1    O10   S    
O9    C4    A    
C6    C17   A    
O13   V3    S    
C7    C18   A    
C6    C16   A    
