data_str_m9_o2_o19_f0_sra.sym.6
_audit_creation_date              2012-12-11T16:28:30-0500
_audit_creation_method            fapswitch 2.2
_symmetry_space_group_name_H-M    P1
_symmetry_Int_Tables_number       1
_space_group_crystal_system       triclinic
_cell_length_a                    16.944637
_cell_length_b                    7.250014
_cell_length_c                    14.878396
_cell_angle_alpha                 91.122096
_cell_angle_beta                  94.543035
_cell_angle_gamma                 91.043792
_cell_volume                      1821.34346027

loop_
_atom_site_label
_atom_site_type_symbol
_atom_type_description
_atom_site_fract_x
_atom_site_fract_y
_atom_site_fract_z
_atom_type_partial_charge
O1    O     O_R   0.663460 0.361760 0.165970 -0.521853
O2    O     O_R   0.336540 0.638240 0.834030 -0.521854
O3    O     O_R   0.836540 0.861760 0.334030 -0.537073
O4    O     O_R   0.163460 0.138240 0.665970 -0.537070
O5    O     O_R   0.827100 0.689870 0.163730 -0.537936
O6    O     O_R   0.172900 0.310130 0.836270 -0.537934
O7    O     O_R   0.672900 0.189870 0.336270 -0.520280
O8    O     O_R   0.327100 0.810130 0.663730 -0.520280
C1    C     C_R   0.854543 0.523649 0.145185 0.758220
C2    C     C_R   0.145456 0.476351 0.854814 0.758223
C3    C     C_R   0.645518 0.022970 0.354978 0.761276
C4    C     C_R   0.354484 0.977029 0.645024 0.761289
O9    O     O_R   0.663490 0.691370 0.155500 -0.536447
O10   O     O_R   0.336510 0.308630 0.844500 -0.536448
O11   O     O_R   0.836510 0.191370 0.344500 -0.522711
O12   O     O_R   0.163490 0.808630 0.655500 -0.522715
O13   O     O_R   0.671770 0.863320 0.325740 -0.538442
O14   O     O_R   0.328230 0.136680 0.674260 -0.538440
O15   O     O_R   0.828230 0.363320 0.174260 -0.518765
O16   O     O_R   0.171770 0.636680 0.825740 -0.518767
C5    C     C_R   0.639464 0.519145 0.129439 0.739027
C6    C     C_R   0.360535 0.480855 0.870561 0.739032
C7    C     C_R   0.861166 0.025563 0.370414 0.739549
C8    C     C_R   0.138833 0.974437 0.629587 0.739559
H1    H     H_    0.098127 0.132121 0.215939 0.143604
H2    H     H_    0.901869 0.867899 0.784060 0.143604
H3    H     H_    0.405088 0.471709 0.293087 0.147382
H4    H     H_    0.594910 0.528196 0.706908 0.147386
O17   O     O_3   0.752910 0.528800 0.305860 -0.370984
O18   O     O_3   0.247090 0.471200 0.694140 -0.370988
O19   O     O_3   0.747090 0.028800 0.194140 -0.362791
O20   O     O_3   0.252910 0.971200 0.805860 -0.362795
V1    V     V_3+5 0.749460 0.803010 0.239640 1.498577
V2    V     V_3+5 0.250540 0.196990 0.760360 1.498572
V3    V     V_3+5 0.750540 0.303010 0.260360 1.537448
V4    V     V_3+5 0.249460 0.696990 0.739640 1.537438
C9    C     C_1   0.469296 0.994773 0.530673 0.027972
C10   C     C_1   0.530707 0.005227 0.469332 0.027969
C11   C     C_1   0.030674 0.494231 0.969285 0.028667
C12   C     C_1   0.969325 0.505769 0.030714 0.028666
H5    H     H_    0.786694 0.976913 0.691816 0.157090
H6    H     H_    0.213307 0.023152 0.308187 0.157091
H7    H     H_    0.711854 0.458500 0.806674 0.159998
H8    H     H_    0.288144 0.541415 0.193325 0.159994
C13   C     C_R   0.017851 0.088371 0.318232 -0.149858
C14   C     C_R   0.982145 0.911629 0.681765 -0.149861
C15   C     C_R   0.484156 0.479863 0.187563 -0.149988
C16   C     C_R   0.515844 0.520093 0.812435 -0.149989
C17   C     C_R   0.091986 0.092866 0.284921 -0.156092
C18   C     C_R   0.908011 0.907155 0.715078 -0.156086
C19   C     C_R   0.410340 0.485169 0.221443 -0.159377
C20   C     C_R   0.589659 0.514760 0.778554 -0.159380
C21   C     C_R   0.157274 0.035092 0.337963 -0.094417
C22   C     C_R   0.842726 0.964954 0.662038 -0.094423
C23   C     C_R   0.344108 0.520480 0.164488 -0.096616
C24   C     C_R   0.655891 0.479455 0.835510 -0.096621
C25   C     C_R   0.150041 0.980823 0.426530 0.221647
C26   C     C_R   0.849961 0.019217 0.573470 0.221642
C27   C     C_R   0.350212 0.541958 0.072211 0.219116
C28   C     C_R   0.649787 0.458007 0.927789 0.219112
C29   C     C_R   0.076785 0.999020 0.466790 0.028365
C30   C     C_R   0.923215 0.000995 0.533210 0.028366
C31   C     C_R   0.423403 0.511379 0.033371 0.026630
C32   C     C_R   0.576597 0.488606 0.966628 0.026629
C33   C     C_R   0.008169 0.038448 0.408349 0.033990
C34   C     C_R   0.991830 0.961556 0.591650 0.033988
C35   C     C_R   0.492715 0.496183 0.094010 0.036064
C36   C     C_R   0.507285 0.503799 0.905989 0.036064
C37   C     C_R   0.068822 0.973005 0.560690 -0.141671
C38   C     C_R   0.931178 0.026998 0.439309 -0.141665
C39   C     C_R   0.430708 0.501908 0.938281 -0.141272
C40   C     C_R   0.569292 0.498087 0.061718 -0.141273
C41   C     C_1   0.417101 0.986200 0.582744 -0.133234
C42   C     C_1   0.582902 0.013800 0.417260 -0.133240
C43   C     C_1   0.082827 0.485063 0.917154 -0.131914
C44   C     C_1   0.917173 0.514938 0.082846 -0.131916
H9    H     H_    0.968373 0.126495 0.272403 0.115968
H10   H     H_    0.031622 0.873490 0.727593 0.115967
H11   H     H_    0.534280 0.461000 0.235941 0.114754
H12   H     H_    0.465720 0.538952 0.764055 0.114749
Br1   Br    Br    0.235822 0.835068 0.473633 -0.591047
Br2   Br    Br    0.764188 0.164999 0.526367 -0.591042
Br3   Br    Br    0.262637 0.666667 0.014389 -0.582571
Br4   Br    Br    0.737362 0.333296 0.985617 -0.582566

loop_
_geom_bond_atom_site_label_1
_geom_bond_atom_site_label_2
_ccdc_geom_bond_type
C26   C30   A    
O1    C5    A    
C23   C27   A    
C28   Br4   S    
O3    C7    A    
C15   H11   S    
O7    C3    A    
C18   C22   A    
C32   C36   A    
C27   Br3   S    
C14   C34   A    
H2    C18   S    
H6    C21   S    
C22   C26   A    
O4    C8    A    
C34   C37   A    
O3    V1    S    
O2    V4    S    
C33   C38   A    
C30   C38   A    
C35   C40   A    
O8    V4    S    
O11   V3    S    
C9    C41   T    
C1    O15   A    
C2    O16   A    
O5    V1    S    
O2    C6    A    
O19   V1    S    
C1    C44   S    
C11   C43   T    
O11   C7    A    
O12   C8    A    
C4    C41   S    
C7    C38   S    
O13   V1    S    
C15   C35   A    
H3    C19   S    
C8    C37   S    
O4    V2    S    
C31   C35   A    
C30   C34   A    
C5    C40   S    
C11   C12   S    
C14   H10   S    
C21   C25   A    
C15   C19   A    
O6    V2    S    
O20   V2    S    
O5    C1    A    
C9    C10   S    
C2    C43   S    
C13   C17   A    
O8    C4    A    
O9    C5    A    
C16   C36   A    
O14   V2    S    
C31   C39   A    
C13   C33   A    
C25   Br1   S    
C6    C39   S    
O1    V3    S    
C10   C42   T    
C29   C37   A    
C14   C18   A    
C3    O13   A    
O7    V3    S    
C3    C42   S    
O10   V2    S    
C25   C29   A    
O17   V3    S    
C27   C31   A    
O18   V4    S    
C28   C32   A    
O10   C6    A    
C26   Br2   S    
O15   V3    S    
O12   V4    S    
H4    C20   S    
H8    C23   S    
C16   H12   S    
C36   C39   A    
C17   C21   A    
C19   C23   A    
C32   C40   A    
H1    C17   S    
H5    C22   S    
O6    C2    A    
O16   V4    S    
C29   C33   A    
H7    C24   S    
C16   C20   A    
C24   C28   A    
O9    V1    S    
C12   C44   T    
C4    O14   A    
C13   H9    S    
C20   C24   A    
