data_str_m9_o13_o2_f0_sra.sym.81
_audit_creation_date              2012-12-11T14:58:01-0500
_audit_creation_method            fapswitch 2.2
_symmetry_space_group_name_H-M    P1
_symmetry_Int_Tables_number       1
_space_group_crystal_system       triclinic
_cell_length_a                    6.935617
_cell_length_b                    16.80702
_cell_length_c                    16.979979
_cell_angle_alpha                 100.505005
_cell_angle_beta                  90.575192
_cell_angle_gamma                 90.383338
_cell_volume                      1945.95979487

loop_
_atom_site_label
_atom_site_type_symbol
_atom_type_description
_atom_site_fract_x
_atom_site_fract_y
_atom_site_fract_z
_atom_type_partial_charge
O1    O     O_R   0.506180 0.438940 0.579430 -0.540661
O2    O     O_R   0.170520 0.406230 0.413590 -0.541157
O3    O     O_R   0.005180 0.561060 0.420570 -0.534092
C1    C     C_R   0.339013 0.383603 0.384833 0.688751
O4    O     O_R   0.176140 0.429310 0.578370 -0.544524
O5    O     O_R   0.010830 0.584300 0.586530 -0.533784
C2    C     C_R   0.346835 0.413937 0.605452 0.690910
O6    O     O_R   0.500520 0.415700 0.413470 -0.536741
O7    O     O_3   0.340830 0.550820 0.502480 -0.355780
V1    V     V_3+5 0.064040 0.490570 0.499540 1.431628
O8    O     O_R   0.681400 0.593770 0.586410 -0.535332
C3    C     C_R   0.851396 0.616318 0.614985 0.696507
O9    O     O_R   0.675790 0.570690 0.421630 -0.536644
C4    C     C_R   0.845118 0.586456 0.394866 0.698424
V2    V     V_3+5 0.564650 0.509430 0.500460 1.454260
O10   O     O_3   0.837730 0.449180 0.497520 -0.372112
C5    C     C_R   0.901571 0.866860 0.171025 -0.161903
C6    C     C_R   0.863981 0.638271 0.332601 -0.106981
C7    C     C_R   0.047336 0.668144 0.219110 -0.142028
C8    C     C_R   0.005927 0.617882 0.273856 -0.181437
C9    C     C_R   0.760458 0.711051 0.335103 -0.084749
C10   C     C_R   0.808421 0.764101 0.281401 0.045930
C11   C     C_R   0.951755 0.741745 0.222692 0.156489
C12   C     C_R   0.995931 0.792663 0.167597 -0.276090
C13   C     C_R   0.769965 0.892393 0.233349 0.466862
C14   C     C_R   0.719380 0.839751 0.285771 -0.276917
H1    H     H_    0.098713 0.773350 0.120389 0.158292
H2    H     H_    0.157072 0.649897 0.174601 0.138926
H3    H     H_    0.609509 0.858621 0.329833 0.140253
H4    H     H_    0.086954 0.562484 0.270626 0.125517
C15   C     C_R   0.874530 0.911081 0.722827 -0.147513
C16   C     C_R   0.857242 0.926443 0.645135 -0.127428
C17   C     C_R   0.844186 0.862607 0.580435 -0.091430
C18   C     C_R   0.847239 0.782955 0.593014 -0.099275
C19   C     C_R   0.863270 0.765514 0.671208 0.056739
C20   C     C_R   0.879007 0.830840 0.737392 0.067946
C21   C     C_R   0.865749 0.684559 0.684032 -0.159021
C22   C     C_R   0.887067 0.668890 0.762969 0.070875
C23   C     C_R   0.904047 0.734124 0.829073 -0.001747
C24   C     C_R   0.900283 0.815120 0.816256 -0.149260
C25   C     C_R   0.892475 0.588799 0.777509 -0.219237
C26   C     C_R   0.911303 0.573210 0.855057 -0.219044
C27   C     C_R   0.922794 0.637291 0.921028 0.520849
C28   C     C_R   0.923408 0.716747 0.907214 -0.199176
H5    H     H_    0.884748 0.962711 0.771189 0.094877
H6    H     H_    0.854676 0.988228 0.635105 0.110723
H7    H     H_    0.831727 0.874823 0.520151 0.115067
H8    H     H_    0.837883 0.735289 0.540871 0.099168
H9    H     H_    0.883342 0.537235 0.729029 0.118598
H10   H     H_    0.918915 0.510899 0.863010 0.120892
H11   H     H_    0.937390 0.764820 0.958934 0.109451
H12   H     H_    0.580837 0.486183 0.151845 0.108272
C29   C     C_R   0.232455 0.218547 0.395879 -0.137297
C30   C     C_R   0.188366 0.139570 0.404259 -0.140314
C31   C     C_R   0.215640 0.075947 0.340757 -0.147192
C32   C     C_R   0.286512 0.090722 0.268321 -0.106165
C33   C     C_R   0.333885 0.170195 0.257914 0.057462
C34   C     C_R   0.304796 0.235585 0.323004 0.066821
C35   C     C_R   0.413225 0.184623 0.184849 -0.188957
C36   C     C_R   0.460699 0.264929 0.176775 0.065892
C37   C     C_R   0.429624 0.330437 0.241592 0.072377
C38   C     C_R   0.352301 0.315834 0.314930 -0.186624
C39   C     C_R   0.534603 0.281948 0.104153 -0.138488
C40   C     C_R   0.578487 0.360994 0.095779 -0.118927
C41   C     C_R   0.548118 0.424814 0.158847 -0.126166
C42   C     C_R   0.473777 0.410129 0.230803 -0.142020
H13   H     H_    0.210712 0.265703 0.447459 0.104845
H14   H     H_    0.134178 0.127631 0.460578 0.112360
H15   H     H_    0.184874 0.014482 0.347957 0.116387
H16   H     H_    0.308494 0.038709 0.221540 0.142666
H17   H     H_    0.558357 0.234676 0.052862 0.100519
H18   H     H_    0.635070 0.372833 0.039800 0.104802
H19   H     H_    0.449248 0.462141 0.277343 0.104777
C43   C     C_R   0.395432 0.136716 0.831744 -0.062682
C44   C     C_R   0.370166 0.363662 0.668668 -0.063398
C45   C     C_R   0.569534 0.329933 0.777625 -0.191538
C46   C     C_R   0.524864 0.381122 0.723792 -0.153419
C47   C     C_R   0.257777 0.293925 0.669585 -0.244099
C48   C     C_R   0.303749 0.241313 0.723157 0.156835
C49   C     C_R   0.461658 0.259181 0.777396 0.157491
C50   C     C_R   0.507720 0.206511 0.830911 -0.244377
C51   C     C_R   0.240602 0.119338 0.776687 -0.152051
C52   C     C_R   0.195820 0.170588 0.722938 -0.191663
H20   H     H_    0.625359 0.221396 0.873711 0.114499
H21   H     H_    0.151474 0.066072 0.776015 0.119665
H22   H     H_    0.690263 0.345262 0.818741 0.113358
H23   H     H_    0.075013 0.155303 0.681857 0.114249
H24   H     H_    0.614011 0.434379 0.724428 0.120215
H25   H     H_    0.140190 0.279005 0.626765 0.114762
O11   O     O_R   0.265840 0.084300 0.086750 -0.540193
O12   O     O_R   0.589750 0.070740 0.921690 -0.546284
O13   O     O_R   0.755020 0.915730 0.913400 -0.537898
C53   C     C_R   0.418972 0.086256 0.894797 0.686678
O14   O     O_R   0.595830 0.093740 0.086480 -0.530053
O15   O     O_R   0.761150 0.938890 0.079360 -0.512958
C54   C     C_R   0.427243 0.116673 0.115081 0.717385
O16   O     O_R   0.259710 0.061140 0.920790 -0.540677
O17   O     O_3   0.425260 0.949200 0.997610 -0.364452
V3    V     V_3+5 0.702060 0.009430 0.000450 1.460969
O18   O     O_R   0.090530 0.929220 0.078150 -0.549156
C55   C     C_R   0.921304 0.914710 0.105875 0.755918
O19   O     O_R   0.084440 0.906220 0.913360 -0.540990
C56   C     C_R   0.914388 0.883435 0.885155 0.687691
V4    V     V_3+5 0.201450 0.990520 0.999290 1.438055
O20   O     O_3   0.928380 0.050800 0.002390 -0.372891
O21   O     O_3   0.683417 0.967480 0.238677 -0.555859
C57   C     C_3   0.702244 0.012834 0.317138 -0.272734
H26   H     H_    0.842238 0.003131 0.346359 0.125570
H27   H     H_    0.581565 0.998606 0.354839 0.149007
H28   H     H_    0.694544 0.078095 0.314016 0.180473
C58   C     C_1   0.610642 0.732168 0.393974 0.265349
N1    N     N_1   0.490584 0.748978 0.440801 -0.351264
O22   O     O_3   0.948953 0.625670 0.999412 -0.559651
C59   C     C_3   0.826933 0.563844 0.017126 -0.277032
H29   H     H_    0.891082 0.503441 0.996093 0.138861
H30   H     H_    0.678544 0.566826 0.992085 0.138167
H31   H     H_    0.813822 0.571619 0.083119 0.171218

loop_
_geom_bond_atom_site_label_1
_geom_bond_atom_site_label_2
_ccdc_geom_bond_type
C34   C38   A    
C52   H23   S    
C31   C32   A    
C29   C34   A    
C45   H22   S    
C6    C9    A    
C25   C26   A    
C4    C6    S    
O2    C1    A    
C7    C8    A    
C12   H1    S    
C1    O6    A    
C59   H29   S    
C8    H4    S    
C29   C30   A    
C36   C39   A    
C19   C21   A    
O5    C3    A    
C22   C23   A    
O19   V4    S    
O15   V3    S    
C33   C35   A    
C30   H14   S    
O21   C57   S    
V2    O10   S    
O17   V3    S    
C1    C38   S    
O18   V4    S    
C32   C33   A    
C18   C19   A    
C3    C21   S    
C5    C55   S    
O13   C56   A    
O8    V2    S    
C37   C42   A    
C58   N1    T    
C46   H24   S    
C11   C12   A    
O1    V2    S    
O7    V1    S    
C35   C36   A    
O9    C4    A    
C57   H27   S    
C43   C53   S    
O19   C56   A    
C43   C51   A    
C25   H9    S    
V4    O20   S    
C9    C58   S    
C13   O21   S    
C10   C11   A    
C47   H25   S    
V3    O20   S    
C5    C12   A    
C59   H31   S    
C20   C24   A    
C45   C46   A    
C22   C25   A    
C23   C24   A    
O4    C2    A    
C47   C48   A    
C2    C44   S    
C13   C14   A    
C42   H19   S    
C48   C49   A    
C36   C37   A    
C19   C20   A    
C7    C11   A    
C27   C28   A    
C21   C22   A    
O12   C53   A    
C15   C16   A    
C57   H26   S    
C17   C18   A    
O14   C54   A    
C7    H2    S    
C44   C46   A    
O11   V4    S    
C31   H15   S    
O3    C4    A    
C26   H10   S    
C28   H11   S    
C39   H17   S    
C41   C42   A    
O6    V2    S    
C32   H16   S    
O9    V2    S    
C10   C14   A    
C17   H7    S    
C57   H28   S    
C18   H8    S    
C26   C27   A    
C43   C50   A    
O2    V1    S    
C53   O16   A    
C50   H20   S    
O22   C59   S    
C30   C31   A    
O1    C2    A    
C16   H6    S    
C45   C49   A    
C49   C50   A    
O5    V1    S    
C59   H30   S    
O8    C3    A    
O11   C54   A    
C23   C28   A    
C51   H21   S    
C5    C13   A    
C16   C17   A    
O7    V2    S    
O4    V1    S    
O3    V1    S    
V1    O10   S    
C27   O22   S    
C24   C56   S    
C48   C52   A    
C33   C34   A    
O14   V3    S    
O17   V4    S    
C40   C41   A    
O18   C55   A    
C35   C54   S    
C6    C8    A    
C40   H18   S    
C37   C38   A    
C29   H13   S    
C44   C47   A    
O16   V4    S    
C39   C40   A    
C14   H3    S    
C51   C52   A    
C15   H5    S    
C15   C20   A    
O12   V3    S    
C9    C10   A    
H12   C41   S    
O15   C55   A    
O13   V3    S    
