data_str_m12_o4_o9_f0_bcu.sym.101
_audit_creation_date              2012-12-11T17:10:13-0500
_audit_creation_method            fapswitch 2.2
_symmetry_space_group_name_H-M    P1
_symmetry_Int_Tables_number       1
_space_group_crystal_system       triclinic
_cell_length_a                    14.836107
_cell_length_b                    15.070277
_cell_length_c                    14.953705
_cell_angle_alpha                 109.8316
_cell_angle_beta                  110.008541
_cell_angle_gamma                 109.125362
_cell_volume                      2555.95467281

loop_
_atom_site_label
_atom_site_type_symbol
_atom_type_description
_atom_site_fract_x
_atom_site_fract_y
_atom_site_fract_z
_atom_type_partial_charge
C1    C     C_R   0.204900 0.294692 0.190264 0.318389
C2    C     C_R   0.564442 0.560171 0.865930 0.074556
C3    C     C_R   0.561802 0.197997 0.499109 0.075694
C4    C     C_R   0.169626 0.450334 0.494774 0.061299
C5    C     C_R   0.443012 0.720407 0.406943 -0.143635
C6    C     C_R   0.798799 0.492924 0.593751 -0.148585
C7    C     C_R   0.564818 0.469670 0.250205 -0.145301
C8    C     C_R   0.727505 0.815046 0.758836 -0.127474
C9    C     C_R   0.816622 0.720885 0.753393 -0.123031
C10   C     C_R   0.466151 0.554235 0.239339 -0.111396
C11   C     C_R   0.534083 0.813435 0.591099 -0.132956
C12   C     C_R   0.594526 0.500828 0.801814 -0.142077
C13   C     C_R   0.706367 0.399162 0.411255 -0.130676
C14   C     C_R   0.505993 0.823526 0.498359 0.071677
C15   C     C_R   0.797762 0.424039 0.504291 0.077344
C16   C     C_R   0.544408 0.538503 0.215672 0.064542
C17   C     C_R   0.830525 0.823965 0.784583 0.056325
C18   C     C_R   0.874844 0.326111 0.117452 -0.223932
C19   C     C_R   0.922615 0.372165 0.232249 0.271457
C20   C     C_R   0.936259 0.307026 0.279679 0.061423
C21   C     C_R   0.906748 0.199337 0.211684 -0.285011
C22   C     C_R   0.860763 0.155064 0.097668 -0.144275
C23   C     C_R   0.503076 0.201309 0.407816 -0.141751
C24   C     C_R   0.841855 0.217347 0.049715 0.363237
C25   C     C_R   0.864616 0.325927 0.402468 -0.217688
C26   C     C_R   0.875652 0.382934 0.504530 0.033231
C27   C     C_R   0.974365 0.421187 0.601284 0.047269
C28   C     C_R   0.067090 0.428425 0.592733 -0.239352
C29   C     C_R   0.063445 0.402345 0.491523 0.049588
C30   C     C_R   0.957776 0.341607 0.393443 0.062984
C31   C     C_R   0.072232 0.549758 0.805648 -0.246908
C32   C     C_R   0.083754 0.574386 0.909293 -0.142419
C33   C     C_R   0.007166 0.499935 0.919377 0.412023
C34   C     C_R   0.274436 0.528098 0.589475 -0.121345
C35   C     C_R   0.918531 0.401234 0.824542 -0.185898
C36   C     C_R   0.906888 0.376549 0.720818 -0.215630
C37   C     C_R   0.983635 0.450524 0.710491 0.132340
C38   C     C_R   0.651501 0.541160 0.026622 0.157036
C39   C     C_R   0.603353 0.592806 0.981514 0.034056
C40   C     C_R   0.577718 0.662722 0.044650 -0.201833
C41   C     C_R   0.572900 0.657157 0.134457 -0.199817
C42   C     C_R   0.592971 0.581190 0.159572 0.037842
C43   C     C_R   0.646013 0.535088 0.114550 0.160456
C44   C     C_3   0.626949 0.421183 0.069222 -0.518307
C45   C     C_R   0.592279 0.290529 0.591849 -0.124205
C46   C     C_3   0.633771 0.428138 0.973445 -0.513668
C47   C     C_R   0.521707 0.922760 0.397640 0.163648
C48   C     C_R   0.551187 0.923282 0.497192 0.045018
C49   C     C_R   0.626915 0.023062 0.596613 -0.204709
C50   C     C_R   0.647688 0.119486 0.596338 -0.209904
C51   C     C_R   0.591118 0.115228 0.496782 0.024539
C52   C     C_R   0.541077 0.018133 0.397096 0.161885
C53   C     C_3   0.433209 0.960459 0.290615 -0.518234
C54   C     C_3   0.413168 0.856244 0.291361 -0.531678
C55   C     C_R   0.032862 0.121481 0.948957 0.183805
C56   C     C_R   0.184514 0.433389 0.405214 -0.136384
C57   C     C_R   0.128194 0.120155 0.008365 0.043130
C58   C     C_R   0.132654 0.023957 0.965125 -0.194022
C59   C     C_R   0.036135 0.926168 0.882310 -0.187356
C60   C     C_R   0.935126 0.924432 0.839587 0.046544
C61   C     C_R   0.935736 0.022725 0.864013 0.108739
C62   C     C_3   0.918994 0.063009 0.784653 -0.476878
C63   C     C_3   0.023199 0.168545 0.874632 -0.477751
C64   C     C_R   0.503289 0.592310 0.804229 -0.137958
C65   C     C_R   0.292988 0.200884 0.196027 -0.195269
C66   C     C_R   0.203104 0.200817 0.126870 0.023017
H1    H     H_    0.849543 0.519907 0.679323 0.116014
H2    H     H_    0.622753 0.442018 0.247611 0.111849
H3    H     H_    0.711988 0.881886 0.779929 0.088264
H4    H     H_    0.878890 0.697301 0.761768 0.097133
H5    H     H_    0.425749 0.596098 0.214307 0.088379
H6    H     H_    0.569767 0.876129 0.674936 0.089107
H7    H     H_    0.670471 0.337251 0.326798 0.083813
H8    H     H_    0.861335 0.374563 0.080383 0.151677
H9    H     H_    0.657274 0.479233 0.828858 0.103279
H10   H     H_    0.914993 0.148135 0.246552 0.152418
H11   H     H_    0.836651 0.071108 0.046543 0.127525
H12   H     H_    0.785694 0.282832 0.326922 0.125461
H13   H     H_    0.143690 0.460713 0.667016 0.128928
H14   H     H_    0.132424 0.608076 0.799594 0.127414
H15   H     H_    0.152789 0.651153 0.981560 0.120176
H16   H     H_    0.859241 0.343291 0.831561 0.119835
H17   H     H_    0.839089 0.299360 0.648541 0.139182
H18   H     H_    0.548358 0.711042 0.017701 0.125228
H19   H     H_    0.483567 0.154026 0.324309 0.098426
H20   H     H_    0.540441 0.701698 0.174112 0.125082
H21   H     H_    0.696733 0.415999 0.121772 0.193921
H22   H     H_    0.543034 0.359464 0.043836 0.202261
H23   H     H_    0.708067 0.427911 0.971753 0.187921
H24   H     H_    0.553947 0.369904 0.893702 0.205133
H25   H     H_    0.659679 0.027503 0.675466 0.132782
H26   H     H_    0.693214 0.193574 0.675237 0.126715
H27   H     H_    0.371334 0.983261 0.299412 0.205476
H28   H     H_    0.445624 0.961643 0.221706 0.187340
H29   H     H_    0.340853 0.821359 0.301102 0.201322
H30   H     H_    0.295740 0.561927 0.674763 0.092845
H31   H     H_    0.415055 0.797737 0.223490 0.186735
H32   H     H_    0.206413 0.020051 0.003455 0.122750
H33   H     H_    0.040163 0.852040 0.860444 0.123951
H34   H     H_    0.926148 0.018230 0.713417 0.203926
H35   H     H_    0.843837 0.070737 0.761403 0.194902
H36   H     H_    0.091631 0.185516 0.856355 0.198736
H37   H     H_    0.008107 0.237782 0.902313 0.199492
H38   H     H_    0.650635 0.321814 0.677126 0.089856
H39   H     H_    0.125592 0.375621 0.319584 0.142873
H40   H     H_    0.479928 0.652062 0.834042 0.086912
H41   H     H_    0.327972 0.150714 0.172671 0.106726
H42   H     H_    0.396204 0.696664 0.322129 0.100737
N1    N     N_R   0.291070 0.347930 0.293870 -0.058464
N2    N     N_R   0.708930 0.502750 0.556810 -0.039913
N3    N     N_R   0.502760 0.445970 0.293860 -0.040207
N4    N     N_R   0.652110 0.708890 0.706130 -0.040051
N5    N     N_R   0.708930 0.652070 0.706130 -0.041502
N6    N     N_R   0.445950 0.502780 0.293850 -0.035883
N7    N     N_R   0.502760 0.708900 0.556790 -0.037953
N8    N     N_R   0.652110 0.445950 0.443190 -0.039066
N9    N     N_R   0.554050 0.497220 0.706150 -0.039860
N10   N     N_R   0.497240 0.291100 0.443210 -0.036901
N11   N     N_R   0.347890 0.554050 0.556810 -0.041776
N12   N     N_R   0.554050 0.347900 0.556830 -0.039118
N13   N     N_R   0.291070 0.497250 0.443190 -0.044882
N14   N     N_R   0.497240 0.554030 0.706140 -0.040079
N15   N     N_R   0.347890 0.291110 0.293870 -0.052847
N16   N     N_R   0.445950 0.652100 0.443170 -0.037938
Ni1   Ni    Ni4+2 0.369690 0.500010 0.369700 0.213229
Ni2   Ni    Ni4+2 0.630310 0.499990 0.630300 0.210949
Ni3   Ni    Ni4+2 0.500000 0.369720 0.369720 0.202784
Ni4   Ni    Ni4+2 0.500000 0.630280 0.630280 0.212301
C67   C     C_3   0.152988 0.351683 0.145658 -1.084688
H43   H     H_    0.061946 0.305079 0.107446 0.263787
H44   H     H_    0.185030 0.434929 0.212384 0.257899
H45   H     H_    0.174643 0.360834 0.084066 0.259858
C68   C     C_3   0.785259 0.168694 0.926837 -1.101852
H46   H     H_    0.707652 0.172233 0.896819 0.262303
H47   H     H_    0.840477 0.215656 0.905402 0.255189
H48   H     H_    0.763634 0.082177 0.884050 0.247484
C69   C     C_3   0.955017 0.489282 0.300256 -1.014507
H49   H     H_    0.879926 0.497414 0.277369 0.246145
H50   H     H_    0.998252 0.520444 0.390321 0.260870
H51   H     H_    0.012011 0.541604 0.283841 0.257757
C70   C     C_3   0.019486 0.524169 0.030218 -1.099194
H52   H     H_    0.093609 0.604709 0.097452 0.257427
H53   H     H_    0.944856 0.524643 0.030406 0.253324
H54   H     H_    0.028314 0.460404 0.047395 0.267098

loop_
_geom_bond_atom_site_label_1
_geom_bond_atom_site_label_2
_ccdc_geom_bond_type
C24   C68   S    
C40   C41   A    
N2    N8    A    
C59   H33   S    
C41   C42   A    
C40   H18   S    
C3    C23   A    
C35   C36   A    
C58   H32   S    
C57   C66   S    
C43   C44   S    
C2    C12   A    
C23   N10   A    
C31   H14   S    
C46   H23   S    
C20   C30   S    
C53   C54   S    
C32   H15   S    
C69   H50   S    
C21   H10   S    
C8    H3    S    
C62   C63   S    
C18   C24   A    
C28   C29   A    
C34   H30   S    
C1    C67   S    
C8    N4    A    
C38   C39   A    
C11   C14   A    
N12   Ni2   S    
C36   H17   S    
C34   N11   A    
C18   C19   A    
C28   H13   S    
C1    N1    A    
C7    H2    S    
C2    C39   S    
C47   C48   A    
C2    C64   A    
N8    Ni3   S    
C55   C63   S    
C68   H48   S    
C54   H31   S    
N1    Ni1   S    
C44   H21   S    
C11   N7    A    
N9    Ni2   S    
C4    C29   S    
C10   N6    A    
C62   H35   S    
N11   Ni4   S    
C6    C15   A    
C59   C60   A    
C18   H8    S    
C21   C22   A    
C4    C56   A    
C6    N2    A    
C49   H25   S    
C63   H36   S    
N4    N5    A    
C35   H16   S    
C44   C46   S    
C1    C66   A    
N11   N13   A    
C69   H51   S    
C4    C34   A    
C38   C46   S    
C53   H27   S    
C51   C52   A    
C9    H4    S    
C63   H37   S    
C70   H54   S    
C39   C40   A    
N6    Ni1   S    
C3    C51   S    
C11   H6    S    
N1    N15   A    
C15   C26   S    
C14   C48   S    
N5    Ni2   S    
C17   C60   S    
C33   C70   S    
C58   C59   A    
C3    C45   A    
N7    Ni4   S    
C25   H12   S    
C60   C61   A    
C70   H53   S    
N9    N14   A    
N13   Ni1   S    
C29   C30   A    
C41   H20   S    
C45   H38   S    
N15   Ni3   S    
C31   C32   A    
C5    N16   A    
C19   C69   S    
C50   C51   A    
C26   C27   A    
C5    C14   A    
N2    Ni2   S    
C47   C54   S    
C62   H34   S    
C45   N12   A    
C50   H26   S    
C48   C49   A    
C13   H7    S    
C49   C50   A    
C55   C57   A    
N3    Ni3   S    
C68   H46   S    
C22   C24   A    
N10   Ni3   S    
C16   C42   S    
C52   C53   S    
C67   H43   S    
C9    C17   A    
C25   C30   A    
C36   C37   A    
N7    N16   A    
C53   H28   S    
C7    C16   A    
C22   H11   S    
C64   H40   S    
C47   C52   A    
C46   H24   S    
C69   H49   S    
C8    C17   A    
C9    N5    A    
C56   N13   A    
C67   H45   S    
C19   C20   A    
C13   C15   A    
C25   C26   A    
C23   H19   S    
C38   C43   A    
C6    H1    S    
C70   H52   S    
C32   C33   A    
C57   C58   A    
C27   C37   S    
C64   N14   A    
C55   C61   A    
C33   C35   A    
C7    N3    A    
N3    N6    A    
C65   N15   A    
N14   Ni4   S    
C61   C62   S    
N10   N12   A    
C56   H39   S    
N4    Ni4   S    
C13   N8    A    
C10   H5    S    
C12   N9    A    
C31   C37   A    
C20   C21   A    
C65   C66   A    
C42   C43   A    
C12   H9    S    
C27   C28   A    
C68   H47   S    
C10   C16   A    
C44   H22   S    
C54   H29   S    
C65   H41   S    
N16   Ni1   S    
C67   H44   S    
C5    H42   S    
