data_str_m12_o1_o9_f0_bcu.sym.48
_audit_creation_date              2012-12-11T15:41:26-0500
_audit_creation_method            fapswitch 2.2
_symmetry_space_group_name_H-M    P1
_symmetry_Int_Tables_number       1
_space_group_crystal_system       triclinic
_cell_length_a                    14.80877
_cell_length_b                    14.986411
_cell_length_c                    14.897593
_cell_angle_alpha                 109.148561
_cell_angle_beta                  109.0528
_cell_angle_gamma                 109.216383
_cell_volume                      2575.93833339

loop_
_atom_site_label
_atom_site_type_symbol
_atom_type_description
_atom_site_fract_x
_atom_site_fract_y
_atom_site_fract_z
_atom_type_partial_charge
C1    C     C_R   0.194156 0.993011 0.902973 -0.155738
C2    C     C_R   0.791462 0.906875 0.394570 0.136353
C3    C     C_R   0.279265 0.264503 0.820236 0.163562
C4    C     C_R   0.694121 0.804701 0.334780 0.137224
C5    C     C_R   0.287035 0.322579 0.922079 -0.060907
C6    C     C_R   0.687745 0.716562 0.253248 0.022785
C7    C     C_R   0.195235 0.291281 0.936573 -0.350950
C8    C     C_R   0.780679 0.725962 0.242785 -0.422194
C9    C     C_R   0.095079 0.203367 0.852148 0.625048
C10   C     C_R   0.878166 0.825335 0.304397 0.596603
C11   C     C_R   0.088803 0.138874 0.755604 -0.411550
C12   C     C_R   0.748068 0.933495 0.025444 -0.121149
C13   C     C_R   0.881509 0.914102 0.377964 -0.277539
C14   C     C_R   0.394523 0.515901 0.027872 -0.233240
C15   C     C_R   0.576559 0.517605 0.163479 -0.269863
C16   C     C_R   0.793997 0.215359 0.306405 -0.164296
C17   C     C_R   0.246920 0.778184 0.685883 -0.129617
C18   C     C_R   0.493382 0.612591 0.095346 0.026098
C19   C     C_R   0.483728 0.419029 0.080044 0.045499
C20   C     C_R   0.583122 0.615469 0.171831 0.115450
C21   C     C_R   0.389306 0.419281 0.015366 0.096846
C22   C     C_R   0.035478 0.446946 0.395852 -0.212190
C23   C     C_R   0.846233 0.313082 0.312665 0.066815
C24   C     C_R   0.035304 0.538135 0.591639 -0.204187
C25   C     C_R   0.131873 0.536593 0.485107 0.211356
C26   C     C_R   0.939508 0.449829 0.503351 0.213512
C27   C     C_R   0.129457 0.580397 0.582762 -0.019865
C28   C     C_R   0.942115 0.404675 0.405895 -0.018693
C29   C     C_R   0.596155 0.153022 0.617389 -0.174888
C30   C     C_R   0.397198 0.055271 0.428565 -0.158936
C31   C     C_R   0.595384 0.153808 0.524679 -0.174850
C32   C     C_R   0.397931 0.055971 0.521951 -0.176238
C33   C     C_R   0.496133 0.093607 0.426641 0.140349
C34   C     C_R   0.220086 0.676985 0.677085 0.051359
C35   C     C_R   0.497681 0.095256 0.613382 0.137483
C36   C     C_R   0.962409 0.838120 0.939943 -0.175600
C37   C     C_R   0.867090 0.933801 0.836554 -0.127442
C38   C     C_R   0.870300 0.840312 0.941635 -0.163346
C39   C     C_R   0.958499 0.930275 0.833591 -0.132877
C40   C     C_R   0.406258 0.973660 0.221772 -0.124811
C41   C     C_R   0.590643 0.093868 0.789661 -0.146548
C42   C     C_R   0.831125 0.900366 0.901832 0.122240
C43   C     C_R   0.013766 0.893935 0.896248 0.119344
C44   C     C_R   0.587841 0.313495 0.062525 -0.134034
C45   C     C_R   0.496681 0.050668 0.323599 0.038314
C46   C     C_R   0.409229 0.703889 0.008096 -0.140312
C47   C     C_R   0.589257 0.065931 0.312734 -0.149517
C48   C     C_R   0.408657 0.001268 0.698851 -0.155970
C49   C     C_R   0.406350 0.217289 0.982628 -0.128218
C50   C     C_R   0.590890 0.790487 0.094807 -0.140994
C51   C     C_R   0.793373 0.307129 0.214771 -0.140900
C52   C     C_R   0.251706 0.687337 0.779594 -0.133657
C53   C     C_R   0.195223 0.903179 0.995040 -0.137820
C54   C     C_R   0.748070 0.024705 0.932842 -0.107351
C55   C     C_R   0.129923 0.929908 0.931264 0.063927
C56   C     C_R   0.499238 0.062840 0.696008 0.046989
C57   C     C_R   0.773311 0.946999 0.947257 0.040763
C58   C     C_3   0.168643 0.091256 0.632935 -0.332407
C59   C     C_3   0.121742 0.973048 0.607597 -0.921201
C60   C     C_3   0.798043 0.006848 0.474266 -0.328627
C61   C     C_3   0.893628 0.115848 0.511978 -1.001626
C62   C     C_3   0.375350 0.307494 0.800168 -0.359920
C63   C     C_3   0.349940 0.349762 0.719871 -0.901496
C64   C     C_3   0.598610 0.787166 0.358347 -0.375091
C65   C     C_3   0.590502 0.718379 0.414652 -0.874616
C66   C     C_3   0.935604 0.210320 0.814452 0.151030
C67   C     C_R   0.493279 0.320603 0.050035 0.051900
C68   C     C_3   0.983271 0.333823 0.875655 -0.307485
C69   C     C_3   0.900488 0.367673 0.829167 -1.034036
C70   C     C_3   0.959303 0.782764 0.196465 0.187538
C71   C     C_3   0.982625 0.688665 0.186520 -0.271804
C72   C     C_3   0.969845 0.627415 0.074768 -1.054180
C73   C     C_3   0.236744 0.586197 0.479939 -0.349826
C74   C     C_3   0.232300 0.527105 0.371787 -0.923697
C75   C     C_3   0.834693 0.404036 0.510441 -0.355382
C76   C     C_3   0.834745 0.474983 0.611435 -0.930031
C77   C     C_R   0.499672 0.699946 0.068839 0.062515
C78   C     C_R   0.180384 0.166221 0.738903 0.190552
H1    H     H_    0.166548 0.016938 0.843031 0.111350
H2    H     H_    0.318975 0.014515 0.355891 0.113274
H3    H     H_    0.673465 0.191217 0.528350 0.111591
H4    H     H_    0.319968 0.016323 0.517718 0.118798
H5    H     H_    0.998508 0.802481 0.982720 0.108554
H6    H     H_    0.832753 0.972796 0.797249 0.123768
H7    H     H_    0.823174 0.190659 0.364604 0.109258
H8    H     H_    0.225853 0.797503 0.620773 0.101193
H9    H     H_    0.838666 0.805499 0.984938 0.101436
H10   H     H_    0.991054 0.965682 0.791262 0.124767
H11   H     H_    0.320911 0.941316 0.199954 0.094473
H12   H     H_    0.757988 0.880790 0.057916 0.090537
H13   H     H_    0.673908 0.154180 0.821357 0.084317
H14   H     H_    0.670896 0.379371 0.108936 0.097383
H15   H     H_    0.325606 0.658059 0.988882 0.087677
H16   H     H_    0.672961 0.119277 0.375336 0.099230
H17   H     H_    0.324431 0.975093 0.646708 0.104756
H18   H     H_    0.322947 0.190558 0.964836 0.128583
H19   H     H_    0.675329 0.820060 0.149256 0.102802
H20   H     H_    0.821617 0.365332 0.188937 0.096529
H21   H     H_    0.235581 0.623267 0.800491 0.103504
H22   H     H_    0.168596 0.842786 0.018823 0.081863
H23   H     H_    0.200873 0.337447 0.013389 0.165390
H24   H     H_    0.757931 0.055959 0.878991 0.095106
H25   H     H_    0.011458 0.067108 0.693590 0.164434
H26   H     H_    0.956535 0.989382 0.421897 0.173961
H27   H     H_    0.171348 0.966511 0.676774 0.248631
H28   H     H_    0.035322 0.937789 0.589896 0.264949
H29   H     H_    0.123747 0.924446 0.534456 0.270991
H30   H     H_    0.115873 0.097996 0.566347 0.184817
H31   H     H_    0.247215 0.114136 0.632298 0.192975
H32   H     H_    0.970983 0.129156 0.571683 0.272078
H33   H     H_    0.903376 0.119192 0.442441 0.264364
H34   H     H_    0.775070 0.655801 0.184054 0.150291
H35   H     H_    0.878829 0.182650 0.551016 0.251030
H36   H     H_    0.723320 0.010662 0.433667 0.185713
H37   H     H_    0.800173 0.998979 0.546443 0.184988
H38   H     H_    0.278310 0.285028 0.639660 0.253462
H39   H     H_    0.332842 0.416705 0.752573 0.261856
H40   H     H_    0.421698 0.381342 0.707901 0.257704
H41   H     H_    0.450428 0.375725 0.875472 0.203930
H42   H     H_    0.399090 0.245000 0.772263 0.184947
H43   H     H_    0.574052 0.636481 0.361746 0.266066
H44   H     H_    0.667929 0.758251 0.492025 0.254918
H45   H     H_    0.322732 0.511031 0.971467 0.129222
H46   H     H_    0.522410 0.709332 0.433476 0.246998
H47   H     H_    0.605296 0.863277 0.411580 0.184640
H48   H     H_    0.520475 0.747966 0.282297 0.197231
H49   H     H_    0.856162 0.170991 0.811936 0.122240
H50   H     H_    0.917147 0.181969 0.728353 0.107515
H51   H     H_    0.008387 0.361837 0.963161 0.210421
H52   H     H_    0.056614 0.374317 0.868953 0.189555
H53   H     H_    0.867134 0.332827 0.739778 0.270432
H54   H     H_    0.941082 0.457252 0.867039 0.279636
H55   H     H_    0.832643 0.340269 0.847426 0.267238
H56   H     H_    0.647221 0.518330 0.217167 0.140125
H57   H     H_    0.019795 0.840117 0.186134 0.121845
H58   H     H_    0.877550 0.754757 0.129301 0.071494
H59   H     H_    0.067665 0.720715 0.249908 0.205502
H60   H     H_    0.925963 0.631521 0.200228 0.191454
H61   H     H_    0.885343 0.594377 0.009854 0.275780
H62   H     H_    0.985839 0.559079 0.070057 0.279889
H63   H     H_    0.029319 0.681844 0.061194 0.261571
H64   H     H_    0.212366 0.442397 0.351575 0.264712
H65   H     H_    0.170899 0.528055 0.305479 0.256403
H66   H     H_    0.313545 0.568904 0.378549 0.257440
H67   H     H_    0.031298 0.408402 0.318069 0.152141
H68   H     H_    0.259002 0.670703 0.497446 0.188165
H69   H     H_    0.303804 0.589035 0.544551 0.196578
H70   H     H_    0.894287 0.482342 0.685680 0.259571
H71   H     H_    0.854359 0.556479 0.619827 0.267407
H72   H     H_    0.752224 0.436842 0.603362 0.263847
H73   H     H_    0.765224 0.389956 0.438717 0.203639
H74   H     H_    0.817867 0.324955 0.507368 0.178535
H75   H     H_    0.037540 0.577082 0.668231 0.154651
H76   H     H_    0.674368 0.188404 0.687831 0.115057
N1    N     N_R   0.293810 0.002730 0.945950 -0.040670
N2    N     N_R   0.443210 0.997250 0.791090 -0.035505
N3    N     N_R   0.443180 0.152110 0.945950 -0.045042
N4    N     N_R   0.556820 0.847890 0.054050 -0.040238
N5    N     N_R   0.706170 0.208950 0.152090 -0.036273
N6    N     N_R   0.293830 0.791050 0.847910 -0.040596
N7    N     N_R   0.293800 0.945910 0.002760 -0.036515
N8    N     N_R   0.706200 0.054090 0.997240 -0.042989
N9    N     N_R   0.706190 0.997270 0.054050 -0.040843
N10   N     N_R   0.706160 0.152130 0.208910 -0.034049
N11   N     N_R   0.293840 0.847870 0.791090 -0.039401
N12   N     N_R   0.443140 0.945920 0.152090 -0.040101
N13   N     N_R   0.556860 0.054080 0.847910 -0.037252
N14   N     N_R   0.556830 0.208940 0.002760 -0.040012
N15   N     N_R   0.443170 0.791060 0.997240 -0.038504
N16   N     N_R   0.556790 0.002750 0.208910 -0.035938
Ni1   Ni    Ni4+2 0.369690 0.999990 0.869700 0.206721
Ni2   Ni    Ni4+2 0.630310 0.000010 0.130300 0.217169
Ni3   Ni    Ni4+2 0.369670 0.869670 0.000000 0.206525
Ni4   Ni    Ni4+2 0.630330 0.130330 0.000000 0.213723
O1    O     O_3   0.005055 0.177091 0.868101 -0.669943
O2    O     O_3   0.974992 0.839269 0.302128 -0.673183

loop_
_geom_bond_atom_site_label_1
_geom_bond_atom_site_label_2
_ccdc_geom_bond_type
N11   Ni1   S    
C38   H9    S    
C66   C68   S    
C74   H65   S    
C52   N6    A    
C48   H17   S    
C58   H31   S    
C33   C45   S    
N6    Ni3   S    
C14   C18   A    
C60   H36   S    
C24   C27   A    
N4    Ni2   S    
C71   H59   S    
C15   H56   S    
C50   N4    A    
N14   Ni4   S    
C59   H27   S    
C73   H69   S    
C14   C21   A    
C12   H12   S    
C19   C21   A    
C24   C26   A    
C38   C42   A    
C8    H34   S    
C63   H39   S    
C2    C60   S    
C36   H5    S    
C66   H49   S    
C42   C57   S    
C7    C9    A    
C44   N14   A    
C65   H46   S    
C51   N5    A    
C37   C42   A    
C1    N1    A    
C2    C13   A    
C34   C52   A    
C72   H61   S    
C75   H73   S    
C68   C69   S    
N12   Ni3   S    
C22   C25   A    
C31   C33   A    
C37   H6    S    
C19   C67   S    
C70   C71   S    
C65   H43   S    
C40   H11   S    
C18   C20   A    
C44   H14   S    
C30   H2    S    
C51   H20   S    
C45   C47   A    
C74   H64   S    
C53   H22   S    
C22   C28   A    
C70   H58   S    
N5    Ni4   S    
C49   N3    A    
C4    C64   S    
C40   C45   A    
C39   H10   S    
C61   H32   S    
N3    N14   A    
C71   H60   S    
C53   C55   A    
C27   C34   S    
C10   O2    S    
C72   H63   S    
C59   H28   S    
C44   C67   A    
C17   H8    S    
C32   C35   A    
C4    C6    A    
C5    C7    A    
C63   H40   S    
C39   C43   A    
N2    N13   A    
C58   C59   S    
C23   C28   S    
N1    N7    A    
C16   N10   A    
C15   C20   A    
C15   C19   A    
C75   C76   S    
C41   C56   A    
C62   C63   S    
C11   C78   A    
N7    Ni3   S    
C23   C51   A    
C22   H67   S    
C76   H72   S    
C75   H74   S    
C69   H53   S    
C60   H37   S    
C26   C75   S    
C65   H44   S    
C54   N8    A    
C13   H26   S    
C68   H52   S    
N9    Ni2   S    
C9    C11   A    
C62   H41   S    
N13   Ni4   S    
C63   H38   S    
C43   C55   S    
C41   H13   S    
N12   N16   A    
C16   C23   A    
C64   H48   S    
C61   H35   S    
C16   H7    S    
C1    H1    S    
C66   O1    S    
N10   Ni2   S    
C17   C34   A    
C12   C57   A    
C72   H62   S    
C61   H33   S    
C50   C77   A    
C69   H54   S    
C47   N16   A    
C32   H4    S    
C24   H75   S    
N8    N9    A    
C3    C62   S    
C48   C56   A    
C73   C74   S    
C74   H66   S    
C50   H19   S    
C69   H55   S    
C14   H45   S    
C49   C67   A    
C30   C33   A    
C35   C56   S    
C40   N12   A    
C54   H24   S    
C8    C10   A    
C3    C5    A    
C10   C13   A    
C46   C77   A    
C6    C8    A    
N4    N15   A    
N8    Ni4   S    
C25   C27   A    
C6    C20   S    
C29   C35   A    
C52   H21   S    
C26   C28   A    
C31   H3    S    
C46   N15   A    
C73   H68   S    
C64   C65   S    
N6    N11   A    
C1    C55   A    
C62   H42   S    
C29   C31   A    
C17   N11   A    
N3    Ni1   S    
C12   N9    A    
C30   C32   A    
C3    C78   A    
C53   N7    A    
C70   H57   S    
C46   H15   S    
N16   Ni2   S    
C76   H71   S    
C18   C77   S    
C2    C4    A    
C41   N13   A    
C36   C38   A    
C47   H16   S    
C66   H50   S    
C9    O1    S    
C25   C73   S    
C49   H18   S    
C48   N2    A    
C68   H51   S    
C59   H29   S    
C58   C78   S    
N1    Ni1   S    
C71   C72   S    
C5    C21   S    
C76   H70   S    
N2    Ni1   S    
C37   C39   A    
C64   H47   S    
C7    H23   S    
N15   Ni3   S    
N5    N10   A    
C60   C61   S    
C36   C43   A    
C11   H25   S    
C58   H30   S    
C70   O2    S    
C29   H76   S    
C54   C57   A    
