data_str_m12_o9_o22_f0_bcu.sym.43
_audit_creation_date              2012-12-11T17:45:28-0500
_audit_creation_method            fapswitch 2.2
_symmetry_space_group_name_H-M    P1
_symmetry_Int_Tables_number       1
_space_group_crystal_system       triclinic
_cell_length_a                    15.07049
_cell_length_b                    14.918372
_cell_length_c                    15.17338
_cell_angle_alpha                 110.404993
_cell_angle_beta                  108.499632
_cell_angle_gamma                 109.189728
_cell_volume                      2635.82326137

loop_
_atom_site_label
_atom_site_type_symbol
_atom_type_description
_atom_site_fract_x
_atom_site_fract_y
_atom_site_fract_z
_atom_type_partial_charge
C1    C     C_R   0.905867 0.194730 0.992616 -0.117956
C2    C     C_R   0.686372 0.240925 0.776111 -0.104371
C3    C     C_R   0.786960 0.589632 0.091473 -0.182186
C4    C     C_R   0.295968 0.804851 0.207264 -0.138985
C5    C     C_R   0.008512 0.408747 0.703983 0.259601
C6    C     C_R   0.694218 0.496637 0.057888 0.024807
C7    C     C_R   0.062878 0.500420 0.700418 0.120605
C8    C     C_R   0.677879 0.212209 0.674198 0.060229
C9    C     C_R   0.945328 0.772494 0.951026 0.053969
C10   C     C_R   0.653841 0.355334 0.263415 -0.147545
C11   C     C_R   0.764330 0.416044 0.335775 -0.147689
C12   C     C_R   0.297222 0.869372 0.300185 0.066901
C13   C     C_R   0.828629 0.366468 0.330941 0.161516
C14   C     C_R   0.780713 0.255494 0.252310 -0.195518
C15   C     C_R   0.670592 0.195636 0.178774 -0.099016
C16   C     C_R   0.220695 0.406132 0.971414 -0.128136
C17   C     C_R   0.607034 0.245296 0.184804 -0.089916
C18   C     C_R   0.957886 0.427612 0.512503 -0.268063
C19   C     C_R   0.058756 0.496955 0.604062 0.048975
C20   C     C_R   0.146900 0.566385 0.602812 -0.051555
C21   C     C_R   0.134433 0.559385 0.505659 0.450419
C22   C     C_R   0.031386 0.492243 0.415052 -0.119639
C23   C     C_R   0.322504 0.496854 0.045680 0.048177
C24   C     C_R   0.941858 0.426563 0.418165 -0.021775
C25   C     C_R   0.277087 0.760946 0.745068 -0.128174
C26   C     C_R   0.375218 0.842065 0.837532 -0.037618
C27   C     C_R   0.446949 0.812628 0.886471 -0.189760
C28   C     C_R   0.043002 0.591093 0.313133 -0.070224
C29   C     C_R   0.420346 0.701867 0.842940 -0.244709
C30   C     C_R   0.321863 0.620035 0.751362 0.540245
C31   C     C_R   0.249794 0.649681 0.701979 0.026367
C32   C     C_R   0.119153 0.032052 0.431378 -0.115819
C33   C     C_R   0.218403 0.058900 0.435382 -0.171138
C34   C     C_R   0.016151 0.496545 0.319971 0.136084
C35   C     C_R   0.285243 0.026216 0.487149 -0.059615
C36   C     C_R   0.254226 0.970869 0.540161 0.493833
C37   C     C_R   0.151283 0.937988 0.529562 -0.216715
C38   C     C_R   0.083191 0.966945 0.473579 -0.184233
C39   C     C_R   0.481506 0.129934 0.570372 -0.152918
C40   C     C_R   0.312776 0.590483 0.064779 -0.117269
C41   C     C_R   0.578462 0.146663 0.570214 0.046372
C42   C     C_R   0.575773 0.092180 0.471024 0.024995
C43   C     C_R   0.477807 0.020109 0.378312 -0.236172
C44   C     C_R   0.383105 0.983264 0.384128 0.052951
C45   C     C_R   0.701341 0.407063 0.003222 -0.073126
C46   C     C_R   0.383839 0.045542 0.479554 0.100811
C47   C     C_R   0.721340 0.143324 0.422653 -0.192071
C48   C     C_R   0.804562 0.130354 0.408927 -0.078487
C49   C     C_R   0.830102 0.054744 0.427764 -0.106513
C50   C     C_R   0.771404 0.990117 0.458594 -0.173015
C51   C     C_R   0.690987 0.005499 0.476516 -0.112740
C52   C     C_R   0.958122 0.405497 0.218947 -0.109312
C53   C     C_R   0.666719 0.083457 0.460210 0.105502
C54   C     C_3   0.508477 0.376129 0.022859 0.324704
C55   C     C_3   0.414065 0.382916 0.036859 -0.491388
C56   C     C_R   0.090311 0.591934 0.790528 -0.241579
C57   C     C_3   0.621522 0.574859 0.171117 -0.560913
C58   C     C_3   0.548909 0.532963 0.978728 0.103729
C59   C     C_3   0.594928 0.493121 0.055949 0.240860
C60   C     C_3   0.422273 0.495208 0.054912 0.279680
C61   C     C_3   0.521705 0.585407 0.166728 -0.405679
C62   C     C_3   0.439105 0.516304 0.966496 -0.385073
C63   C     C_R   0.015485 0.055328 0.664329 -0.191985
C64   C     C_R   0.206008 0.803673 0.298376 -0.035648
C65   C     C_R   0.949840 0.994281 0.693159 -0.220782
C66   C     C_R   0.997435 0.987342 0.784531 0.133223
C67   C     C_R   0.781009 0.250626 0.688216 -0.145324
C68   C     C_R   0.108962 0.028184 0.837029 -0.245023
C69   C     C_R   0.173622 0.086067 0.805906 -0.148681
C70   C     C_R   0.127859 0.105289 0.723300 0.325791
C71   C     C_R   0.927641 0.855956 0.838133 -0.236368
C72   C     C_R   0.900838 0.833393 0.911203 0.068753
C73   C     C_R   0.848949 0.885371 0.955344 0.021232
C74   C     C_R   0.839099 0.965844 0.934557 -0.211265
C75   C     C_R   0.898292 0.011781 0.892130 0.059089
C76   C     C_R   0.999626 0.197101 0.905615 -0.140913
C77   C     C_R   0.934603 0.949347 0.833708 0.040867
C78   C     C_R   0.926035 0.738243 0.019595 -0.149635
C79   C     C_R   0.704297 0.830319 0.003219 -0.162706
C80   C     C_R   0.670212 0.826102 0.078153 -0.153675
C81   C     C_R   0.743724 0.856812 0.180490 -0.093684
C82   C     C_R   0.852527 0.899555 0.211010 -0.145327
C83   C     C_R   0.888790 0.914318 0.140346 -0.155138
C84   C     C_R   0.813705 0.871935 0.032890 0.109471
C85   C     C_R   0.935196 0.129949 0.929406 0.066846
C86   C     C_3   0.017773 0.307428 0.660523 -0.968571
C87   C     C_3   0.544182 0.486930 0.867818 -0.832121
C88   C     C_3   0.198944 0.184010 0.703210 -0.875905
C89   C     C_R   0.025769 0.751209 0.938129 -0.120201
Cl1   Cl    Cl    0.248468 0.632919 0.497734 -0.589634
Cl2   Cl    Cl    0.292473 0.482004 0.698206 -0.715182
Cl3   Cl    Cl    0.337363 0.931888 0.609969 -0.626068
Cl4   Cl    Cl    0.456223 0.268152 0.887872 -0.782117
H1    H     H_    0.845775 0.168433 0.015778 0.088559
H2    H     H_    0.799292 0.500641 0.397533 0.112555
H3    H     H_    0.344543 0.831413 0.172768 0.087385
H4    H     H_    0.828330 0.215011 0.248233 0.110650
H5    H     H_    0.634272 0.110274 0.118247 0.110986
H6    H     H_    0.889010 0.379443 0.516562 0.142557
H7    H     H_    0.222058 0.784502 0.706984 0.147581
H8    H     H_    0.395950 0.927686 0.870767 0.138250
H9    H     H_    0.523326 0.876177 0.957480 0.131311
H10   H     H_    0.476195 0.678604 0.878731 0.138303
H11   H     H_    0.003952 0.941886 0.466003 0.128182
H12   H     H_    0.140202 0.676952 0.816626 0.116688
H13   H     H_    0.197089 0.320344 0.933542 0.101940
H14   H     H_    0.070586 0.061845 0.395008 0.123231
H15   H     H_    0.242962 0.104531 0.397469 0.141123
H16   H     H_    0.124243 0.890721 0.565192 0.156390
H17   H     H_    0.481202 0.176493 0.643189 0.159822
H18   H     H_    0.479712 0.979542 0.305075 0.128324
H19   H     H_    0.701290 0.201505 0.406906 0.132918
H20   H     H_    0.851087 0.179998 0.385779 0.120091
H21   H     H_    0.895917 0.046846 0.419023 0.100695
H22   H     H_    0.788685 0.928567 0.469103 0.114008
H23   H     H_    0.806594 0.253754 0.630725 0.131654
H24   H     H_    0.084082 0.675635 0.377340 0.132424
H25   H     H_    0.646460 0.955715 0.501414 0.133646
H26   H     H_    0.545563 0.349538 0.076924 0.073983
H27   H     H_    0.338665 0.312413 0.965403 0.192342
H28   H     H_    0.414787 0.373786 0.106810 0.148126
H29   H     H_    0.646863 0.545131 0.227256 0.182452
H30   H     H_    0.507991 0.577044 0.231984 0.183474
H31   H     H_    0.604122 0.622507 0.020221 0.140993
H32   H     H_    0.373218 0.446169 0.885898 0.226114
H33   H     H_    0.376545 0.675221 0.112667 0.092078
H34   H     H_    0.860481 0.727896 0.035592 0.134356
H35   H     H_    0.434929 0.590900 0.971957 0.140250
H36   H     H_    0.689115 0.658032 0.205131 0.180069
H37   H     H_    0.536873 0.668591 0.180642 0.161425
H38   H     H_    0.979711 0.069207 0.600334 0.136970
H39   H     H_    0.863797 0.962330 0.651752 0.135969
H40   H     H_    0.146494 0.021112 0.906257 0.134835
H41   H     H_    0.259596 0.120059 0.849784 0.192714
H42   H     H_    0.957764 0.810467 0.795269 0.126781
H43   H     H_    0.798773 0.003329 0.968163 0.125440
H44   H     H_    0.926271 0.320040 0.195929 0.103738
H45   H     H_    0.061628 0.767454 0.890352 0.093073
H46   H     H_    0.646582 0.803338 0.922522 0.136955
H47   H     H_    0.586542 0.795439 0.057003 0.105987
H48   H     H_    0.716094 0.846969 0.235880 0.115169
H49   H     H_    0.907612 0.919332 0.288939 0.104402
H50   H     H_    0.974214 0.951696 0.166825 0.120926
H51   H     H_    0.170787 0.826922 0.347102 0.097124
H52   H     H_    0.029944 0.176870 0.851698 0.133013
H53   H     H_    0.655114 0.323167 0.982161 0.155141
H54   H     H_    0.010558 0.283972 0.579748 0.263529
H55   H     H_    0.097981 0.324707 0.715589 0.274632
H56   H     H_    0.622235 0.224278 0.796001 0.153380
H57   H     H_    0.955835 0.237985 0.656117 0.240565
H58   H     H_    0.526285 0.535419 0.830581 0.251840
H59   H     H_    0.622295 0.494795 0.875249 0.239347
H60   H     H_    0.480030 0.400300 0.810723 0.308761
H61   H     H_    0.151547 0.188341 0.633490 0.252146
H62   H     H_    0.244607 0.267158 0.775081 0.249496
H63   H     H_    0.256556 0.159120 0.687764 0.293145
H64   H     H_    0.812309 0.674063 0.145156 0.113275
H65   H     H_    0.521456 0.198450 0.128797 0.113221
H66   H     H_    0.604237 0.393287 0.268846 0.110448
N1    N     N_R   0.947080 0.293830 0.002870 -0.039886
N2    N     N_R   0.153670 0.443180 0.946090 -0.035750
N3    N     N_R   0.002360 0.556820 0.208890 -0.054152
N4    N     N_R   0.210070 0.556820 0.002870 -0.035998
N5    N     N_R   0.945960 0.443180 0.152110 -0.051328
N6    N     N_R   0.151710 0.706170 0.208890 -0.045759
N7    N     N_R   0.004320 0.293830 0.946090 -0.040370
N8    N     N_R   0.789930 0.443180 0.997130 -0.051609
N9    N     N_R   0.054040 0.556820 0.847890 -0.049017
N10   N     N_R   0.848290 0.293830 0.791110 -0.042739
N11   N     N_R   0.995680 0.706170 0.053910 -0.046427
N12   N     N_R   0.052920 0.706170 0.997130 -0.041828
N13   N     N_R   0.791050 0.293830 0.847890 -0.048075
N14   N     N_R   0.846330 0.556820 0.053910 -0.041688
N15   N     N_R   0.997640 0.443180 0.791110 -0.059235
N16   N     N_R   0.208950 0.706170 0.152110 -0.039617
Ni1   Ni    Ni4+2 0.869690 0.369690 0.000000 0.222858
Ni2   Ni    Ni4+2 0.130310 0.630310 0.000000 0.215468
Ni3   Ni    Ni4+2 0.000970 0.369690 0.869780 0.218450
Ni4   Ni    Ni4+2 0.999030 0.630310 0.130220 0.215708

loop_
_geom_bond_atom_site_label_1
_geom_bond_atom_site_label_2
_ccdc_geom_bond_type
C25   C31   A    
C66   C68   A    
C63   C65   A    
C58   C62   S    
C69   H41   S    
C6    C45   A    
C27   C29   A    
C5    N15   A    
C79   H46   S    
C35   C36   A    
C9    C72   S    
C43   C44   A    
C3    C6    A    
C70   C88   S    
C58   C87   S    
C55   H28   S    
C81   C82   A    
C28   N3    A    
N16   Ni2   S    
C67   N10   A    
N9    N15   A    
C26   C27   A    
C37   C38   A    
C18   C24   A    
C88   H63   S    
C57   H36   S    
C68   H40   S    
C50   H22   S    
C28   H24   S    
C86   H57   S    
C42   C53   S    
C71   H42   S    
C30   C31   A    
C12   C64   A    
C57   C59   S    
N11   N12   A    
N14   Ni4   S    
C10   C17   A    
N9    Ni2   S    
C78   N11   A    
C51   H25   S    
C29   H10   S    
C60   C62   S    
C18   C19   A    
C41   C42   A    
C55   H27   S    
C54   Cl4   S    
C38   H11   S    
C34   C52   A    
C57   H29   S    
C4    H3    S    
C3    N14   A    
C39   H17   S    
C83   C84   A    
C68   C69   A    
C4    N16   A    
C74   H43   S    
N4    Ni2   S    
C87   H60   S    
C76   N7    A    
N7    Ni3   S    
C63   H38   S    
C4    C12   A    
C29   C30   A    
N15   Ni3   S    
C73   C84   S    
C37   H16   S    
C54   C59   S    
C16   H13   S    
C47   C53   A    
C36   Cl3   S    
C2    H56   S    
C81   H48   S    
C49   H21   S    
C28   C34   A    
C87   H58   S    
C13   C14   A    
C86   H54   S    
N1    Ni1   S    
C33   H15   S    
C43   H18   S    
C7    C56   A    
C78   H34   S    
N2    N4    A    
C44   C46   A    
C50   C51   A    
N3    N5    A    
C21   Cl1   S    
C73   C74   A    
C1    C85   A    
C23   C60   S    
C22   C34   S    
C54   H26   S    
C74   C75   A    
C45   H53   S    
C88   H62   S    
C8    C41   S    
C89   N12   A    
C40   N4    A    
C39   C41   A    
C9    C89   A    
C5    C7    A    
C30   Cl2   S    
C64   H51   S    
C25   C26   A    
C80   H47   S    
C32   H14   S    
C79   C80   A    
C13   C24   S    
C60   C61   S    
C51   C53   A    
C88   H61   S    
C67   H23   S    
C64   N6    A    
C75   C77   A    
C25   H7    S    
C47   C48   A    
C63   C70   A    
C40   H33   S    
C56   N9    A    
C52   H44   S    
C17   H65   S    
C45   N8    A    
N3    Ni4   S    
C61   H37   S    
C52   N5    A    
C39   C46   A    
C5    C86   S    
C48   C49   A    
C76   H52   S    
C49   C50   A    
C16   C23   A    
C32   C38   A    
C87   H59   S    
N6    Ni4   S    
N10   N13   A    
C22   C24   A    
C42   C43   A    
C15   H5    S    
N10   Ni3   S    
C71   C77   A    
C65   H39   S    
C14   H4    S    
C75   C85   S    
C11   H2    S    
C15   C17   A    
C66   C77   S    
C54   C55   S    
C36   C37   A    
C58   H31   S    
C6    C59   S    
C1    N1    A    
C2    C8    A    
C80   C81   A    
C86   H55   S    
C1    H1    S    
C62   H32   S    
C57   C61   S    
C16   N2    A    
N6    N16   A    
C47   H19   S    
C27   H9    S    
C7    C19   S    
N8    N14   A    
N11   Ni4   S    
C61   H30   S    
C21   C22   A    
C19   C20   A    
C58   C59   S    
C71   C72   A    
C26   H8    S    
C32   C33   A    
C62   H35   S    
C11   C13   A    
C79   C84   A    
C72   C73   A    
C10   H66   S    
C33   C35   A    
N5    Ni1   S    
C9    C78   A    
C65   C66   A    
C69   C70   A    
C56   H12   S    
C48   H20   S    
C10   C11   A    
C82   H49   S    
N13   Ni1   S    
C20   C21   A    
C8    C67   A    
C12   C44   S    
C89   H45   S    
C18   H6    S    
C3    H64   S    
C14   C15   A    
N12   Ni2   S    
C83   H50   S    
C82   C83   A    
N2    Ni3   S    
C55   C60   S    
C35   C46   S    
C76   C85   A    
C20   C31   S    
C23   C40   A    
C2    N13   A    
N8    Ni1   S    
N1    N7    A    
