data_str_m9_o11_o13_f0_sra.sym.46
_audit_creation_date              2012-12-11T14:14:18-0500
_audit_creation_method            fapswitch 2.2
_symmetry_space_group_name_H-M    P1
_symmetry_Int_Tables_number       1
_space_group_crystal_system       triclinic
_cell_length_a                    16.891632
_cell_length_b                    7.248326
_cell_length_c                    17.246915
_cell_angle_alpha                 89.998785
_cell_angle_beta                  98.929331
_cell_angle_gamma                 89.999586
_cell_volume                      2086.05224486

loop_
_atom_site_label
_atom_site_type_symbol
_atom_type_description
_atom_site_fract_x
_atom_site_fract_y
_atom_site_fract_z
_atom_type_partial_charge
O1    O     O_R   0.414560 0.494370 0.416770 -0.515682
O2    O     O_R   0.585440 0.994370 0.583230 -0.515671
O3    O     O_R   0.578370 0.819590 0.429320 -0.525209
O4    O     O_R   0.421630 0.319590 0.570680 -0.525210
C1    C     C_R   0.604557 0.655084 0.413841 0.738841
C2    C     C_R   0.395442 0.155083 0.586157 0.738850
O5    O     O_R   0.414740 0.823790 0.407360 -0.502333
O6    O     O_R   0.585260 0.323790 0.592640 -0.502323
O7    O     O_R   0.420650 0.998510 0.561120 -0.549393
O8    O     O_R   0.579350 0.498510 0.438880 -0.549388
C3    C     C_R   0.384497 0.656087 0.389335 0.714158
C4    C     C_R   0.615503 0.156085 0.610668 0.714199
O9    O     O_3   0.502130 0.662240 0.550470 -0.367864
O10   O     O_3   0.497870 0.162240 0.449530 -0.367865
V1    V     V_3+5 0.499600 0.935390 0.490640 1.700145
V2    V     V_3+5 0.500400 0.435390 0.509360 1.700125
C5    C     C_2   0.801776 0.251313 0.769041 0.482973
C6    C     C_2   0.198226 0.751296 0.230960 0.483034
C7    C     C_2   0.815151 0.121008 0.826039 -0.299349
C8    C     C_2   0.184846 0.620982 0.173969 -0.299146
H1    H     H_    0.767922 0.022189 0.831282 0.107148
H2    H     H_    0.232065 0.522118 0.168747 0.106798
C9    C     C_2   0.721096 0.267492 0.720567 0.229804
C10   C     C_2   0.278907 0.767460 0.279432 0.229488
C11   C     C_2   0.695874 0.146256 0.661091 0.062461
C12   C     C_2   0.304123 0.646257 0.338920 0.062704
C13   C     C_R   0.333684 0.144530 0.638608 -0.089891
C14   C     C_R   0.666315 0.644537 0.361391 -0.089890
C15   C     C_R   0.167901 0.119522 0.863497 -0.181468
C16   C     C_R   0.832098 0.619510 0.136502 -0.181516
C17   C     C_R   0.309429 0.116697 0.851119 -0.208307
C18   C     C_R   0.690572 0.616586 0.148883 -0.208247
C19   C     C_R   0.248919 0.113835 0.898111 0.363957
C20   C     C_R   0.751081 0.613752 0.101889 0.364078
C21   C     C_R   0.149084 0.126523 0.781339 -0.242837
C22   C     C_R   0.850914 0.626563 0.218659 -0.242865
C23   C     C_R   0.209901 0.131615 0.732994 0.109305
C24   C     C_R   0.790098 0.631642 0.267003 0.109320
C25   C     C_R   0.291680 0.126045 0.768555 0.047753
C26   C     C_R   0.708319 0.625995 0.231446 0.047723
C27   C     C_R   0.353953 0.129505 0.721200 0.068141
C28   C     C_R   0.646048 0.629453 0.278800 0.068129
C29   C     C_R   0.252960 0.147107 0.604446 -0.138995
C30   C     C_R   0.747040 0.647185 0.395550 -0.139051
C31   C     C_R   0.190986 0.140943 0.650054 0.115743
C32   C     C_R   0.809012 0.641034 0.349942 0.115751
H3    H     H_    0.238134 0.152713 0.541162 0.195606
H4    H     H_    0.761866 0.652834 0.458833 0.195618
H5    H     H_    0.370788 0.111969 0.880182 0.190971
H6    H     H_    0.629212 0.611799 0.119821 0.191009
H7    H     H_    0.086549 0.126768 0.755737 0.190940
H8    H     H_    0.913449 0.626865 0.244259 0.190967
O11   O     O_R   0.920750 0.773600 0.061260 -0.531702
O12   O     O_R   0.079250 0.273600 0.938740 -0.531688
O13   O     O_R   0.085340 0.439850 0.092570 -0.516418
O14   O     O_R   0.914660 0.939850 0.907430 -0.516373
C33   C     C_R   0.112105 0.609228 0.114001 0.810877
C34   C     C_R   0.887895 0.109234 0.886001 0.810922
O15   O     O_R   0.921720 0.444130 0.070790 -0.541116
O16   O     O_R   0.078280 0.944130 0.929210 -0.541139
O17   O     O_R   0.914480 0.269530 0.916840 -0.503941
O18   O     O_R   0.085520 0.769530 0.083160 -0.503934
C35   C     C_R   0.897124 0.612496 0.087403 0.792095
C36   C     C_R   0.102875 0.112498 0.912596 0.792041
O19   O     O_3   0.997840 0.601520 0.949550 -0.366298
O20   O     O_3   0.002160 0.101520 0.050450 -0.366291
V3    V     V_3+5 0.000400 0.328340 0.009360 1.739682
V4    V     V_3+5 0.999600 0.828340 0.990640 1.739705
S1    S     S_3+6 0.876786 0.406440 0.748510 0.087925
O21   O     O_2   0.883752 0.563353 0.806029 -0.284641
O22   O     O_2   0.955858 0.308408 0.754946 -0.376636
O23   O     O_3   0.851664 0.489879 0.656996 -0.448331
H9    H     H_    0.899220 0.560268 0.646722 0.387385
S2    S     S_3+6 0.123225 0.906451 0.251484 0.087569
O24   O     O_2   0.116257 0.063354 0.193956 -0.284896
O25   O     O_2   0.044151 0.808434 0.245056 -0.376634
O26   O     O_3   0.148356 0.989904 0.342993 -0.448485
H10   H     H_    0.100718 0.059857 0.353350 0.387292
S3    S     S_3+6 0.663893 0.462054 0.741227 0.049119
O27   O     O_2   0.655057 0.593610 0.673070 -0.315173
O28   O     O_2   0.582494 0.402235 0.756025 -0.347873
O29   O     O_3   0.710549 0.573667 0.820204 -0.416960
H11   H     H_    0.681606 0.692542 0.820283 0.388665
S4    S     S_3+6 0.336106 0.962002 0.258759 0.049443
O30   O     O_2   0.344902 0.093613 0.326896 -0.315475
O31   O     O_2   0.417523 0.902236 0.243989 -0.347414
O32   O     O_3   0.289442 0.073530 0.179753 -0.416514
H12   H     H_    0.317714 0.193359 0.180146 0.387991
S5    S     S_3+6 0.766672 0.993241 0.627735 0.045606
O33   O     O_2   0.726486 0.862707 0.566370 -0.323394
O34   O     O_2   0.826029 0.106947 0.591986 -0.279375
O35   O     O_3   0.817259 0.869420 0.701352 -0.459616
H13   H     H_    0.775438 0.803017 0.724396 0.388905
S6    S     S_3+6 0.233313 0.493350 0.372323 0.045511
O36   O     O_2   0.273518 0.362629 0.433603 -0.323434
O37   O     O_2   0.174085 0.607149 0.408207 -0.279384
O38   O     O_3   0.182560 0.369749 0.298727 -0.459838
H14   H     H_    0.224287 0.302758 0.275780 0.388793
C37   C     C_3   0.440988 0.114153 0.758865 -0.647852
H15   H     H_    0.450355 0.983120 0.792389 0.215812
H16   H     H_    0.483539 0.113358 0.716090 0.194195
H17   H     H_    0.456857 0.232422 0.799142 0.251436
C38   C     C_3   0.559014 0.614047 0.241136 -0.647720
H18   H     H_    0.549654 0.482970 0.207643 0.215881
H19   H     H_    0.516466 0.613310 0.283915 0.194174
H20   H     H_    0.543132 0.732264 0.200829 0.251426
C39   C     C_3   0.105408 0.145376 0.608687 -0.637983
H21   H     H_    0.101889 0.153179 0.543902 0.224589
H22   H     H_    0.073697 0.018164 0.622454 0.221712
H23   H     H_    0.074247 0.268220 0.627858 0.233026
C40   C     C_3   0.894591 0.645550 0.391306 -0.638032
H24   H     H_    0.898108 0.653399 0.456089 0.224603
H25   H     H_    0.926320 0.518348 0.377560 0.221755
H26   H     H_    0.925732 0.768401 0.372116 0.232979
S7    S     S_3+6 0.276006 0.101735 0.000778 0.043629
O39   O     O_2   0.243501 0.925517 0.029272 -0.299898
O40   O     O_2   0.365477 0.105249 0.024648 -0.299935
O41   O     O_3   0.235186 0.281809 0.041567 -0.497690
H27   H     H_    0.257936 0.392437 0.019484 0.324546
S8    S     S_3+6 0.723994 0.601674 0.999221 0.043113
O42   O     O_2   0.756525 0.425503 0.970714 -0.299982
O43   O     O_2   0.634521 0.605121 0.975360 -0.300396
O44   O     O_3   0.764784 0.781808 0.958441 -0.497673
H28   H     H_    0.742095 0.892405 0.980606 0.324499

loop_
_geom_bond_atom_site_label_1
_geom_bond_atom_site_label_2
_ccdc_geom_bond_type
C12   S6    S    
C30   H4    S    
O32   H12   S    
C5    S1    S    
C40   H24   S    
O1    C3    A    
S4    O32   S    
O2    C4    A    
C28   C38   S    
C2    O7    A    
O38   H14   S    
O44   H28   S    
C25   C27   A    
O26   H10   S    
O5    C3    A    
C5    C9    S    
S2    O25   D    
C6    C10   S    
C7    H1    S    
C10   C12   D    
S7    O39   D    
C15   C19   A    
C14   C28   A    
S1    O22   D    
O11   V4    S    
C13   C27   A    
O41   H27   S    
O15   V3    S    
C40   H25   S    
C37   H15   S    
C30   C32   A    
S7    O40   D    
S2    O26   S    
C39   H21   S    
C27   C37   S    
S5    O34   D    
C22   H8    S    
S8    O44   S    
O19   V4    S    
C34   O17   A    
O5    V1    S    
O20   V3    S    
C15   C36   S    
C6    S2    S    
C16   C35   S    
C39   H22   S    
S1    O21   D    
C17   H5    S    
S8    O43   D    
O14   C34   A    
C7    C34   S    
C20   S8    S    
C19   S7    S    
S2    O24   D    
C16   C20   A    
C33   O18   A    
S4    O30   D    
O4    C2    A    
S3    O28   D    
O12   V3    S    
C3    C12   S    
O14   V4    S    
C14   C30   A    
C18   C20   A    
C38   H20   S    
O4    V2    S    
S1    O23   S    
C1    C14   S    
O17   V3    S    
C2    C13   S    
O6    C4    A    
S7    O41   S    
C37   H17   S    
C17   C19   A    
C38   H19   S    
O1    V2    S    
S5    O35   S    
S6    O37   D    
O2    V1    S    
C29   C31   A    
C18   H6    S    
C37   H16   S    
C8    H2    S    
O13   C33   A    
C21   H7    S    
C39   H23   S    
C23   C31   A    
O3    V1    S    
S8    O42   D    
C8    C33   S    
C21   C23   A    
C11   S5    S    
S4    O31   D    
O23   H9    S    
O3    C1    A    
S3    O29   S    
O13   V3    S    
C16   C22   A    
C15   C21   A    
O15   C35   A    
S6    O38   S    
O18   V4    S    
C4    C11   S    
O16   C36   A    
C22   C24   A    
C10   S4    S    
C1    O8    A    
C23   C25   A    
O8    V2    S    
C24   C26   A    
O11   C35   A    
O12   C36   A    
C26   C28   A    
O35   H13   S    
C5    C7    D    
C17   C25   A    
C40   H26   S    
C6    C8    D    
C18   C26   A    
O7    V1    S    
S6    O36   D    
C24   C32   A    
S3    O27   D    
C13   C29   A    
C9    C11   D    
O16   V4    S    
O6    V2    S    
O29   H11   S    
O9    V2    S    
C38   H18   S    
O10   V1    S    
C9    S3    S    
S5    O33   D    
C32   C40   S    
C29   H3    S    
C31   C39   S    
