data_str_m3_o10_o29_f0_pcu.sym.16
_audit_creation_date              2012-12-10T16:59:15-0500
_audit_creation_method            fapswitch 2.2
_symmetry_space_group_name_H-M    P1
_symmetry_Int_Tables_number       1
_space_group_crystal_system       triclinic
_cell_length_a                    7.757516
_cell_length_b                    8.582898
_cell_length_c                    27.112801
_cell_angle_alpha                 90.68297
_cell_angle_beta                  86.199206
_cell_angle_gamma                 93.812553
_cell_volume                      1797.21569177

loop_
_atom_site_label
_atom_site_type_symbol
_atom_type_description
_atom_site_fract_x
_atom_site_fract_y
_atom_site_fract_z
_atom_type_partial_charge
C1    C     C_R   0.545954 0.794818 0.498787 0.968486
C2    C     C_R   0.641052 0.541826 0.114969 -0.027398
C3    C     C_R   0.503932 0.442405 0.644804 -0.027337
C4    C     C_R   0.498110 0.506786 0.351583 -0.044131
C5    C     C_R   0.697488 0.478222 0.012974 0.042999
C6    C     C_R   0.507698 0.220581 0.971819 0.047388
C7    C     C_R   0.512677 0.234604 0.023699 0.039784
C8    C     C_R   0.723552 0.443823 0.962030 0.045015
C9    C     C_R   0.597191 0.369857 0.043861 0.072632
C10   C     C_R   0.618900 0.321698 0.941248 0.068713
C11   C     C_R   0.762417 0.620079 0.033824 -0.229021
C12   C     C_R   0.454068 0.205193 0.501345 0.961477
C13   C     C_R   0.389088 0.114428 0.949450 -0.237248
C14   C     C_R   0.731150 0.652562 0.083845 -0.164075
C15   C     C_R   0.380785 0.108815 0.898376 -0.170938
C16   C     C_R   0.502125 0.494695 0.594157 0.857853
C17   C     C_R   0.498109 0.502268 0.405540 0.874313
C18   C     C_R   0.847180 0.529726 0.930825 -0.229078
C19   C     C_R   0.433766 0.119711 0.056212 -0.229788
C20   C     C_2   0.570062 0.958400 0.498184 -0.384163
C21   C     C_2   0.430000 0.041638 0.502189 -0.378263
C22   C     C_R   0.729333 0.387739 0.807684 0.521361
C23   C     C_R   0.620412 0.304902 0.889364 -0.046724
C24   C     C_R   0.486959 0.311468 0.177902 0.512884
C25   C     C_R   0.485339 0.203452 0.816612 0.479173
C26   C     C_R   0.610730 0.571400 0.165557 0.481701
C27   C     C_R   0.588240 0.245583 0.700021 -0.106002
C28   C     C_R   0.665102 0.524226 0.273327 -0.116169
C29   C     C_R   0.566928 0.295690 0.652518 -0.203813
C30   C     C_R   0.656603 0.534349 0.324249 -0.224907
C31   C     C_R   0.454952 0.537262 0.684895 -0.251960
C32   C     C_R   0.345473 0.477175 0.326987 -0.271043
C33   C     C_R   0.476607 0.487626 0.732951 0.047017
C34   C     C_R   0.578607 0.398230 0.095263 -0.062662
C35   C     C_R   0.352476 0.467092 0.275125 0.063236
C36   C     C_R   0.547989 0.342402 0.740124 0.274046
C37   C     C_R   0.515993 0.486162 0.248343 0.268240
C38   C     C_R   0.443928 0.592356 0.775769 0.087236
C39   C     C_R   0.556607 0.724855 0.782302 -0.078060
C40   C     C_R   0.559286 0.799497 0.828385 -0.069976
C41   C     C_R   0.448163 0.743656 0.867867 -0.115513
C42   C     C_R   0.329130 0.617502 0.860852 -0.164596
C43   C     C_R   0.325757 0.542643 0.814854 -0.127454
C44   C     C_R   0.192531 0.424329 0.249411 0.119464
C45   C     C_R   0.739478 0.397000 0.858860 -0.007985
C46   C     C_R   0.087702 0.290339 0.263741 -0.107395
C47   C     C_R   0.958030 0.231285 0.233875 -0.100449
C48   C     C_R   0.931742 0.305507 0.189689 -0.114388
C49   C     C_R   0.028936 0.443217 0.176452 -0.149864
C50   C     C_R   0.157168 0.503813 0.206487 -0.165723
C51   C     C_R   0.497147 0.283163 0.126927 -0.034916
C52   C     C_R   0.856429 0.504777 0.880031 -0.160481
C53   C     C_R   0.429665 0.142448 0.107136 -0.123011
C54   C     C_R   0.497254 0.201680 0.867943 -0.028268
H1    H     H_    0.407654 0.650990 0.678743 0.149500
H2    H     H_    0.643037 0.134818 0.705593 0.143594
H3    H     H_    0.779969 0.764200 0.098130 0.188538
H4    H     H_    0.281583 0.031983 0.882844 0.192096
H5    H     H_    0.830545 0.711320 0.011757 0.142915
H6    H     H_    0.293763 0.041437 0.970821 0.141883
H7    H     H_    0.939413 0.615951 0.944941 0.136364
H8    H     H_    0.378908 0.009191 0.043081 0.143474
H9    H     H_    0.702217 0.009796 0.494389 0.180678
H10   H     H_    0.297848 0.990248 0.506011 0.181888
H11   H     H_    0.650534 0.763346 0.752889 0.142138
H12   H     H_    0.222433 0.457451 0.348058 0.149374
H13   H     H_    0.651585 0.897281 0.833935 0.131238
H14   H     H_    0.455153 0.797065 0.904063 0.135841
H15   H     H_    0.243860 0.574252 0.891561 0.138406
H16   H     H_    0.238646 0.440137 0.810586 0.173811
H17   H     H_    0.112674 0.226475 0.296444 0.134515
H18   H     H_    0.881155 0.125506 0.244288 0.164893
H19   H     H_    0.836124 0.256306 0.165717 0.145071
H20   H     H_    0.007105 0.501557 0.142482 0.152788
H21   H     H_    0.234419 0.608448 0.195034 0.152956
H22   H     H_    0.013342 0.382528 0.463245 0.188519
H23   H     H_    0.986662 0.617538 0.536729 0.196537
H24   H     H_    0.949146 0.576586 0.857192 0.185968
H25   H     H_    0.368823 0.051078 0.130855 0.194225
H26   H     H_    0.775855 0.560232 0.342270 0.165509
H27   H     H_    0.603846 0.221529 0.621467 0.148516
H28   H     H_    0.789903 0.541069 0.253252 0.175781
N1    N     N_R   0.595087 0.301891 0.788201 -0.347739
N2    N     N_R   0.535465 0.456465 0.196066 -0.352866
N3    N     N_2   0.950320 0.457960 0.486880 -0.175425
N4    N     N_2   0.049680 0.542040 0.513120 -0.170141
O1    O     O_R   0.389250 0.738570 0.503220 -0.610347
O2    O     O_2   0.430743 0.194806 0.209090 -0.557324
O3    O     O_2   0.656435 0.713622 0.184182 -0.567542
O4    O     O_2   0.360325 0.114026 0.795521 -0.564174
O5    O     O_R   0.610750 0.261430 0.496780 -0.613071
O6    O     O_R   0.678390 0.711630 0.494810 -0.629364
O7    O     O_R   0.321610 0.288370 0.505190 -0.626761
O8    O     O_R   0.355440 0.513440 0.575450 -0.601954
O9    O     O_R   0.644560 0.486560 0.424550 -0.619673
O10   O     O_R   0.644590 0.486500 0.567040 -0.618654
O11   O     O_R   0.355410 0.513500 0.432960 -0.625134
O12   O     O_2   0.845318 0.471635 0.777627 -0.572130
Zn1   Zn    Zn3+2 0.306940 0.517990 0.505620 0.951873
Zn2   Zn    Zn3+2 0.693060 0.482010 0.494380 0.943190

loop_
_geom_bond_atom_site_label_1
_geom_bond_atom_site_label_2
_ccdc_geom_bond_type
C1    O1    A    
C22   O12   S    
C27   C29   A    
C41   C42   A    
C12   O5    A    
C18   C52   A    
C13   H6    S    
N3    N4    D    
C26   O3    S    
C5    C9    A    
C34   C51   A    
C23   C45   A    
C28   C37   A    
C53   H25   S    
C5    C11   A    
C38   C39   A    
C11   C14   A    
C52   H24   S    
C19   H8    S    
C33   C36   A    
C3    C29   A    
C21   H10   S    
C40   H13   S    
C31   C33   A    
C37   N2    S    
C17   O9    A    
O5    Zn2   S    
O7    Zn1   S    
C30   H26   S    
C2    C34   A    
C24   C51   A    
C39   H11   S    
C11   H5    S    
O11   Zn1   S    
C44   C46   A    
C41   H14   S    
O1    Zn1   S    
C16   O10   A    
C28   H28   S    
C32   C35   A    
C25   C54   A    
C39   C40   A    
C27   H2    S    
C45   C52   A    
C12   C21   S    
C42   H15   S    
C8    C18   A    
C51   C53   A    
C15   C54   A    
C29   H27   S    
C35   C44   S    
C47   C48   A    
C25   O4    S    
C2    C26   A    
C3    C31   A    
N4    Zn1   S    
C24   O2    S    
C46   H17   S    
C4    C32   A    
C4    C17   S    
C40   C41   A    
H23   N4    S    
C1    O6    A    
C7    C19   A    
C13   C15   A    
C9    C34   A    
C10   C23   A    
C15   H4    S    
C12   O7    A    
C42   C43   A    
O6    Zn2   S    
C23   C54   A    
C32   H12   S    
C44   C50   A    
C7    C9    A    
C14   H3    S    
C46   C47   A    
C48   C49   A    
C1    C20   S    
C26   N2    A    
C35   C37   A    
O9    Zn2   S    
C48   H19   S    
C6    C10   A    
C5    C8    A    
C18   H7    S    
C6    C7    A    
C27   C36   A    
C43   H16   S    
C16   O8    A    
C33   C38   S    
C22   N1    A    
C20   H9    S    
C28   C30   A    
C24   N2    A    
C38   C43   A    
N3    Zn2   S    
C50   H21   S    
C6    C13   A    
C19   C53   A    
O8    Zn1   S    
O10   Zn2   S    
C2    C14   A    
C47   H18   S    
C22   C45   A    
C20   C21   D    
C8    C10   A    
C49   C50   A    
C25   N1    A    
C49   H20   S    
C36   N1    S    
C31   H1    S    
C17   O11   A    
H22   N3    S    
C4    C30   A    
C3    C16   S    
