data_str_m2_o10_o17_f0_pcu.sym.185
_audit_creation_date              2012-12-10T16:44:42-0500
_audit_creation_method            fapswitch 2.2
_symmetry_space_group_name_H-M    P1
_symmetry_Int_Tables_number       1
_space_group_crystal_system       triclinic
_cell_length_a                    15.0741
_cell_length_b                    8.693069
_cell_length_c                    7.611852
_cell_angle_alpha                 102.378292
_cell_angle_beta                  96.644177
_cell_angle_gamma                 95.402493
_cell_volume                      960.426396983

loop_
_atom_site_label
_atom_site_type_symbol
_atom_type_description
_atom_site_fract_x
_atom_site_fract_y
_atom_site_fract_z
_atom_type_partial_charge
C1    C     C_R   0.496395 0.200290 0.453760 0.868493
C2    C     C_R   0.503605 0.799710 0.546240 0.868495
C3    C     C_R   0.020896 0.394912 0.172103 -0.214575
C4    C     C_R   0.979104 0.605138 0.827881 -0.214579
C5    C     C_2   0.492175 0.031826 0.428627 -0.370593
C6    C     C_2   0.507827 0.968174 0.571373 -0.370593
C7    C     C_R   0.328900 0.499441 0.498839 0.794879
C8    C     C_R   0.671099 0.500562 0.501161 0.794884
C9    C     C_R   0.827256 0.551202 0.664866 -0.256563
C10   C     C_R   0.172744 0.448823 0.335132 -0.256569
C11   C     C_R   0.768173 0.499811 0.501791 -0.061206
C12   C     C_R   0.231828 0.500205 0.498209 -0.061205
C13   C     C_R   0.802076 0.448512 0.337627 -0.248235
C14   C     C_R   0.197926 0.551511 0.662370 -0.248233
C15   C     C_R   0.894356 0.447645 0.335848 0.101249
C16   C     C_R   0.105645 0.552396 0.664142 0.101253
C17   C     C_R   0.953509 0.499937 0.500299 0.066850
C18   C     C_R   0.046492 0.500110 0.499688 0.066853
C19   C     C_R   0.919779 0.552262 0.665331 0.104952
C20   C     C_R   0.080221 0.447781 0.334659 0.104946
C21   C     C_R   0.928438 0.395198 0.172590 -0.225135
C22   C     C_R   0.071563 0.604850 0.827395 -0.225138
Cu1   Cu    Cu3+1 0.510010 0.517380 0.684380 0.926943
Cu2   Cu    Cu3+1 0.489990 0.482620 0.315620 0.926945
H1    H     H_    0.801712 0.592155 0.791233 0.150968
H2    H     H_    0.198285 0.407855 0.208776 0.150978
H3    H     H_    0.756706 0.408071 0.211067 0.159976
H4    H     H_    0.243296 0.591941 0.788935 0.159973
H5    H     H_    0.883648 0.354688 0.045413 0.151397
H6    H     H_    0.116354 0.645359 0.954571 0.151400
H7    H     H_    0.046026 0.353687 0.044680 0.158223
H8    H     H_    0.953975 0.646367 0.955302 0.158225
H9    H     H_    0.475088 0.959786 0.291334 0.164790
H10   H     H_    0.524914 0.040214 0.708666 0.164785
N1    N     N_2   0.474890 0.456420 0.038520 -0.076372
N2    N     N_2   0.525110 0.543580 0.961480 -0.076371
O1    O     O_R   0.506510 0.286130 0.619770 -0.610346
O2    O     O_R   0.493490 0.713870 0.380230 -0.610346
O3    O     O_R   0.489600 0.256770 0.308360 -0.590160
O4    O     O_R   0.510400 0.743230 0.691640 -0.590152
O5    O     O_R   0.378710 0.514640 0.655720 -0.607528
O6    O     O_R   0.621290 0.485360 0.344280 -0.607527
O7    O     O_R   0.361800 0.485290 0.344300 -0.580717
O8    O     O_R   0.638200 0.514710 0.655700 -0.580717
C23   C     C_3   0.423952 0.309194 0.930233 -0.042265
C24   C     C_3   0.334719 0.270350 0.995799 -0.855629
H11   H     H_    0.343752 0.232499 0.125632 0.274555
H12   H     H_    0.296522 0.374128 0.005883 0.244992
H13   H     H_    0.294035 0.169511 0.894888 0.202864
H14   H     H_    0.401490 0.316905 0.792739 0.215939
H15   H     H_    0.464935 0.209938 0.931493 0.152255
C25   C     C_3   0.576056 0.690797 0.069767 -0.042274
C26   C     C_3   0.665293 0.729610 0.004203 -0.855614
H16   H     H_    0.703471 0.625807 0.994069 0.245010
H17   H     H_    0.656267 0.767509 0.874399 0.274528
H18   H     H_    0.705993 0.830405 0.105138 0.202858
H19   H     H_    0.535083 0.790063 0.068495 0.152251
H20   H     H_    0.598508 0.683093 0.207268 0.215940

loop_
_geom_bond_atom_site_label_1
_geom_bond_atom_site_label_2
_ccdc_geom_bond_type
Cu2   O2    S    
Cu1   Cu2   S    
C7    O7    A    
C4    C22   A    
C2    O2    A    
N1    N2    D    
N2    C25   S    
C1    O1    A    
C9    C11   A    
C6    H10   S    
C10   H2    S    
C26   H17   S    
C17   C18   A    
C9    H1    S    
C3    C20   A    
C2    C6    S    
C23   C24   S    
C3    H7    S    
C11   C13   A    
C24   H13   S    
C4    H8    S    
C10   C12   A    
C23   H14   S    
C8    C11   S    
C1    C5    S    
C17   C19   A    
Cu1   O1    S    
C8    O6    A    
C18   C20   A    
C5    H9    S    
C13   C15   A    
C5    C6    D    
C25   H20   S    
C14   C16   A    
C7    C12   S    
C3    C21   A    
Cu2   N1    S    
C25   H19   S    
C1    O3    A    
Cu1   O4    S    
N1    C23   S    
C24   H12   S    
C2    O4    A    
C15   C21   A    
Cu2   O3    S    
Cu2   O6    S    
C25   C26   S    
C16   C18   A    
Cu1   N2    S    
C26   H18   S    
C10   C20   A    
C15   C17   A    
Cu2   O7    S    
C23   H15   S    
C24   H11   S    
C13   H3    S    
C16   C22   A    
C22   H6    S    
C14   H4    S    
C26   H16   S    
C4    C19   A    
C21   H5    S    
C9    C19   A    
Cu1   O8    S    
C8    O8    A    
C7    O5    A    
C12   C14   A    
Cu1   O5    S    
