data_str_m9_o4_o18_f0_sra.sym.42
_audit_creation_date              2012-12-11T17:02:15-0500
_audit_creation_method            fapswitch 2.2
_symmetry_space_group_name_H-M    P1
_symmetry_Int_Tables_number       1
_space_group_crystal_system       triclinic
_cell_length_a                    21.647227
_cell_length_b                    7.071578
_cell_length_c                    14.838223
_cell_angle_alpha                 90.259041
_cell_angle_beta                  105.983107
_cell_angle_gamma                 90.087258
_cell_volume                      2183.597537

loop_
_atom_site_label
_atom_site_type_symbol
_atom_type_description
_atom_site_fract_x
_atom_site_fract_y
_atom_site_fract_z
_atom_type_partial_charge
O1    O     O_R   0.585850 0.505770 0.002130 -0.537473
O2    O     O_R   0.414150 0.005770 0.997870 -0.537047
O3    O     O_R   0.467530 0.173560 0.861970 -0.538500
O4    O     O_R   0.532470 0.673560 0.138030 -0.538109
C1    C     C_R   0.455672 0.343835 0.825269 0.683832
C2    C     C_R   0.544464 0.844964 0.174647 0.683622
O5    O     O_R   0.588690 0.175900 0.993250 -0.544571
O6    O     O_R   0.411310 0.675900 0.006750 -0.544608
O7    O     O_R   0.536170 0.007950 0.130090 -0.537386
O8    O     O_R   0.463830 0.507950 0.869910 -0.537767
C3    C     C_R   0.615061 0.344726 0.997696 0.690673
C4    C     C_R   0.384950 0.844550 0.002365 0.690226
O9    O     O_3   0.482630 0.339970 0.044740 -0.372414
O10   O     O_3   0.517370 0.839970 0.955260 -0.372864
V1    V     V_3+5 0.503220 0.064200 0.991700 1.409798
V2    V     V_3+5 0.496780 0.564200 0.008300 1.409576
C5    C     C_R   0.292476 0.010102 0.041780 0.102599
C6    C     C_R   0.707730 0.509613 0.958512 0.105442
C7    C     C_R   0.317061 0.852603 0.005644 -0.108722
C8    C     C_R   0.682966 0.352835 0.994534 -0.110599
C9    C     C_R   0.274834 0.699338 0.974231 -0.181544
C10   C     C_R   0.724969 0.199939 0.025725 -0.180512
H1    H     H_    0.291470 0.574502 0.945926 0.133625
H2    H     H_    0.708167 0.075660 0.053949 0.134813
C11   C     C_R   0.209472 0.711215 0.972472 -0.172263
C12   C     C_R   0.790317 0.211532 0.027346 -0.171995
H3    H     H_    0.177952 0.593908 0.943918 0.131236
H4    H     H_    0.821686 0.094696 0.055791 0.131376
C13   C     C_R   0.184199 0.877324 0.001453 -0.101744
C14   C     C_R   0.815787 0.376977 0.998435 -0.100449
C15   C     C_R   0.227849 0.022113 0.039822 0.119300
C16   C     C_R   0.772354 0.521368 0.960359 0.118417
C17   C     C_3   0.225215 0.227471 0.017259 -0.418576
C18   C     C_3   0.775366 0.727029 0.983321 -0.421544
C19   C     C_3   0.295731 0.214434 0.019622 -0.409241
C20   C     C_3   0.704861 0.714230 0.981101 -0.408364
H5    H     H_    0.216727 0.315740 0.074865 0.203149
H6    H     H_    0.783943 0.814478 0.925831 0.193955
H7    H     H_    0.193150 0.257251 0.946246 0.165819
H8    H     H_    0.807548 0.757655 0.054351 0.166574
H9    H     H_    0.327919 0.295030 0.078658 0.178548
H10   H     H_    0.672759 0.794154 0.922275 0.177842
H11   H     H_    0.304512 0.237094 0.950050 0.167637
H12   H     H_    0.696203 0.737808 0.050776 0.166025
C21   C     C_R   0.926712 0.878556 0.723570 -0.050489
C22   C     C_R   0.074211 0.385785 0.276167 -0.048484
C23   C     C_R   0.572745 0.854541 0.275959 -0.025136
C24   C     C_R   0.428055 0.347719 0.723700 -0.029310
C25   C     C_R   0.936891 0.790633 0.570984 -0.164009
C26   C     C_R   0.062281 0.374582 0.432982 -0.163193
C27   C     C_R   0.963688 0.809249 0.667149 -0.256891
C28   C     C_R   0.035157 0.368966 0.336463 -0.262594
C29   C     C_R   0.861948 0.926182 0.684161 0.261487
C30   C     C_R   0.141065 0.405602 0.312090 0.262662
C31   C     C_R   0.831296 0.877025 0.588725 -0.011110
C32   C     C_R   0.170154 0.382788 0.410251 -0.009100
C33   C     C_R   0.871167 0.823488 0.531358 0.111268
C34   C     C_R   0.129217 0.382390 0.470320 0.111363
C35   C     C_R   0.763079 0.872950 0.548889 0.052860
C36   C     C_R   0.237685 0.357803 0.450795 0.052726
C37   C     C_R   0.736957 0.854757 0.449668 0.069201
C38   C     C_R   0.264121 0.372471 0.550086 0.069045
C39   C     C_R   0.779608 0.821252 0.394399 -0.188904
C40   C     C_R   0.221393 0.391079 0.606449 -0.187059
C41   C     C_R   0.845065 0.799705 0.435101 -0.183063
C42   C     C_R   0.155294 0.389111 0.567241 -0.182639
C43   C     C_R   0.720412 0.868060 0.605678 -0.204350
C44   C     C_R   0.278506 0.301565 0.396058 -0.204823
C45   C     C_R   0.654300 0.866962 0.566932 -0.210373
C46   C     C_R   0.344098 0.280123 0.435125 -0.210939
C47   C     C_R   0.628011 0.865948 0.470036 0.144605
C48   C     C_R   0.371441 0.308758 0.530764 0.144664
C49   C     C_R   0.668843 0.860077 0.409774 0.082895
C50   C     C_R   0.332053 0.356516 0.589830 0.082186
C51   C     C_R   0.560908 0.865332 0.432886 -0.165156
C52   C     C_R   0.437770 0.281791 0.568461 -0.165388
C53   C     C_R   0.533459 0.858356 0.336331 -0.175780
C54   C     C_R   0.465661 0.297951 0.664576 -0.172962
C55   C     C_R   0.639611 0.857723 0.311919 -0.214786
C56   C     C_R   0.362261 0.380815 0.686756 -0.216911
H13   H     H_    0.875575 0.763265 0.390671 0.118665
H14   H     H_    0.124229 0.393584 0.613405 0.117522
H15   H     H_    0.667201 0.860042 0.261528 0.089377
H16   H     H_    0.336024 0.420997 0.735897 0.093600
H17   H     H_    0.481628 0.856183 0.308647 0.104293
H18   H     H_    0.516480 0.269721 0.693070 0.106591
H19   H     H_    0.623445 0.864317 0.613405 0.125186
H20   H     H_    0.373526 0.236856 0.390223 0.125281
H21   H     H_    0.967152 0.744235 0.527877 0.126008
H22   H     H_    0.030893 0.369873 0.478633 0.125519
H23   H     H_    0.013826 0.774258 0.697413 0.120592
H24   H     H_    0.983436 0.358620 0.308669 0.118879
H25   H     H_    0.763593 0.798893 0.319733 0.117541
H26   H     H_    0.237257 0.396131 0.681858 0.116225
H27   H     H_    0.737196 0.855190 0.680920 0.171742
H28   H     H_    0.260136 0.263392 0.323034 0.172748
H29   H     H_    0.529621 0.868592 0.478713 0.116151
H30   H     H_    0.467815 0.242873 0.523752 0.116783
O11   O     O_R   0.036080 0.231270 0.130120 -0.543446
O12   O     O_R   0.963920 0.731270 0.869880 -0.546580
O13   O     O_R   0.911300 0.558970 0.006750 -0.544736
O14   O     O_R   0.088700 0.058970 0.993250 -0.542977
C57   C     C_R   0.884857 0.389836 0.001858 0.691308
C58   C     C_R   0.115138 0.890023 0.998111 0.688669
O15   O     O_R   0.032450 0.561140 0.138040 -0.536364
O16   O     O_R   0.967550 0.061140 0.861960 -0.529364
O17   O     O_R   0.085870 0.728910 0.002130 -0.535814
O18   O     O_R   0.914130 0.228910 0.997870 -0.534868
C59   C     C_R   0.044907 0.392997 0.174981 0.759543
C60   C     C_R   0.955039 0.891821 0.824990 0.754638
O19   O     O_3   0.017320 0.394650 0.955270 -0.377525
O20   O     O_3   0.982680 0.894650 0.044730 -0.379245
V3    V     V_3+5 0.996780 0.670490 0.008300 1.438700
V4    V     V_3+5 0.003220 0.170490 0.991700 1.449781
O21   O     O_3   0.832044 0.029968 0.738914 -0.662709
H31   H     H_    0.802075 0.118937 0.697217 0.289272
O22   O     O_3   0.174923 0.463846 0.250756 -0.667858
H32   H     H_    0.209312 0.551075 0.285316 0.287568

loop_
_geom_bond_atom_site_label_1
_geom_bond_atom_site_label_2
_ccdc_geom_bond_type
C14   C16   A    
C39   C41   A    
O12   C60   A    
C31   C35   A    
O13   V3    S    
C20   H10   S    
O1    C3    A    
C23   C55   A    
C56   H16   S    
C46   H20   S    
O11   V4    S    
O20   V4    S    
O5    C3    A    
C44   H28   S    
O16   V4    S    
C18   H8    S    
O15   V3    S    
C7    C9    A    
C52   C54   A    
C17   C19   S    
C21   C27   A    
O18   V4    S    
O21   H31   S    
O11   C59   A    
C22   C28   A    
C51   H29   S    
C25   C33   A    
C36   C38   A    
C24   C54   A    
C45   C47   A    
O17   V3    S    
C38   C40   A    
C35   C43   A    
C34   C42   A    
C25   C27   A    
C14   C57   S    
C26   C28   A    
C15   C17   S    
C57   O18   A    
C19   H11   S    
C18   C20   S    
C45   H19   S    
C48   C52   A    
C27   H23   S    
C54   H18   S    
O5    V1    S    
O2    C4    A    
O6    V2    S    
C50   C56   A    
C43   H27   S    
C2    O7    A    
O20   V3    S    
C26   H22   S    
C29   C31   A    
C11   C13   A    
C1    C24   S    
C30   C32   A    
C3    C8    S    
C35   C37   A    
C2    C23   S    
C26   C34   A    
C48   C50   A    
C25   H21   S    
C47   C49   A    
C21   C60   S    
C37   C49   A    
C21   C29   A    
C17   H5    S    
C32   C36   A    
C13   C58   S    
C43   C45   A    
C40   C42   A    
O4    V2    S    
O14   V4    S    
C42   H14   S    
C41   H13   S    
O6    C4    A    
C22   C30   A    
C37   C39   A    
C49   C55   A    
O19   V3    S    
O1    V2    S    
C17   H7    S    
O14   C58   A    
O2    V1    S    
C51   C53   A    
O4    C2    A    
C8    C10   A    
C12   C14   A    
C31   C33   A    
C5    C15   A    
C10   H2    S    
C28   H24   S    
C6    C16   A    
C23   C53   A    
O3    V1    S    
O16   C60   A    
C9    C11   A    
C18   H6    S    
O12   V3    S    
C33   C41   A    
O3    C1    A    
C11   H3    S    
C39   H25   S    
C12   H4    S    
C24   C56   A    
C9    H1    S    
O9    V2    S    
C40   H26   S    
C1    O8    A    
C13   C15   A    
O8    V2    S    
O22   H32   S    
C47   C51   A    
C6    C20   S    
O15   C59   A    
C4    C7    S    
C5    C7    A    
C32   C34   A    
O19   V4    S    
C6    C8    A    
O7    V1    S    
C19   H9    S    
C20   H12   S    
C53   H17   S    
C55   H15   S    
C36   C44   A    
O13   C57   A    
C10   C12   A    
C22   C59   S    
C44   C46   A    
O10   V1    S    
C38   C50   A    
C46   C48   A    
C5    C19   S    
C30   O22   S    
C52   H30   S    
C58   O17   A    
C29   O21   S    
C16   C18   S    
