data_str_m9_o16_o22_f0_sra.sym.68
_audit_creation_date              2012-12-11T15:11:49-0500
_audit_creation_method            fapswitch 2.2
_symmetry_space_group_name_H-M    P1
_symmetry_Int_Tables_number       1
_space_group_crystal_system       triclinic
_cell_length_a                    20.157174
_cell_length_b                    7.096535
_cell_length_c                    13.480679
_cell_angle_alpha                 90.170645
_cell_angle_beta                  103.533003
_cell_angle_gamma                 89.806081
_cell_volume                      1874.80264495

loop_
_atom_site_label
_atom_site_type_symbol
_atom_type_description
_atom_site_fract_x
_atom_site_fract_y
_atom_site_fract_z
_atom_type_partial_charge
O1    O     O_R   0.449830 0.506740 0.599960 -0.539969
O2    O     O_R   0.550170 0.006740 0.400040 -0.544347
O3    O     O_R   0.588980 0.179860 0.596720 -0.511535
O4    O     O_R   0.411020 0.679860 0.403280 -0.506240
C1    C     C_R   0.616881 0.344346 0.617790 0.696674
C2    C     C_R   0.383793 0.844690 0.380359 0.678874
O5    O     O_R   0.452740 0.177340 0.612040 -0.536411
O6    O     O_R   0.547260 0.677340 0.387960 -0.540308
O7    O     O_R   0.412960 0.002070 0.415460 -0.551318
O8    O     O_R   0.587040 0.502070 0.584540 -0.554428
C3    C     C_R   0.436515 0.346161 0.638593 0.724463
C4    C     C_R   0.563444 0.845348 0.361325 0.714747
O9    O     O_3   0.487110 0.337570 0.435490 -0.365049
O10   O     O_3   0.512890 0.837570 0.564510 -0.365286
V1    V     V_3+5 0.502390 0.064650 0.511970 1.499238
V2    V     V_3+5 0.497610 0.564650 0.488030 1.501987
C5    C     C_R   0.608456 0.862273 0.106776 0.648529
C6    C     C_R   0.390773 0.406847 0.890951 0.646610
H1    H     H_    0.515072 0.860420 0.157288 0.157280
H2    H     H_    0.484043 0.407256 0.840175 0.156700
H3    H     H_    0.692454 0.866321 0.980557 0.208316
H4    H     H_    0.306543 0.431809 0.016228 0.206182
C7    C     C_R   0.603124 0.852121 0.283699 -0.135348
C8    C     C_R   0.396816 0.356364 0.716142 -0.127954
C9    C     C_R   0.932032 0.859830 0.319543 0.603915
C10   C     C_R   0.068212 0.324334 0.681706 0.603011
C11   C     C_R   0.896362 0.856391 0.396091 -0.160855
C12   C     C_R   0.104128 0.302838 0.606094 -0.156829
C13   C     C_R   0.825281 0.854459 0.371770 -0.271672
C14   C     C_R   0.175124 0.311679 0.630096 -0.283186
C15   C     C_R   0.787544 0.855387 0.268826 0.123753
C16   C     C_R   0.212524 0.343899 0.731609 0.121316
C17   C     C_R   0.824428 0.858938 0.190592 -0.004356
C18   C     C_R   0.175381 0.365366 0.808890 -0.000418
C19   C     C_R   0.714594 0.854661 0.240957 0.039595
C20   C     C_R   0.285362 0.355865 0.758994 0.035529
C21   C     C_R   0.680262 0.860139 0.135846 -0.014603
C22   C     C_R   0.319237 0.389903 0.862654 -0.009081
C23   C     C_R   0.717803 0.863048 0.060859 -0.142456
C24   C     C_R   0.281491 0.407474 0.936931 -0.149261
C25   C     C_R   0.788553 0.861700 0.087598 -0.202161
C26   C     C_R   0.210911 0.394898 0.910677 -0.201499
C27   C     C_R   0.674306 0.848627 0.313790 -0.244590
C28   C     C_R   0.325950 0.337031 0.686969 -0.240614
C29   C     C_R   0.570300 0.858771 0.180555 -0.190522
C30   C     C_R   0.429098 0.391555 0.817725 -0.193226
C31   C     C_R   0.896748 0.861100 0.216975 -0.207672
C32   C     C_R   0.103155 0.355534 0.782960 -0.208244
H5    H     H_    0.696328 0.840395 0.394586 0.111876
H6    H     H_    0.304331 0.309981 0.607285 0.106384
H7    H     H_    0.801697 0.853519 0.435634 0.135830
H8    H     H_    0.198922 0.292853 0.567119 0.136143
H9    H     H_    0.924029 0.855952 0.475310 0.169299
H10   H     H_    0.076739 0.278134 0.527945 0.172535
H11   H     H_    0.814961 0.863625 0.026326 0.106500
H12   H     H_    0.184275 0.409193 0.971259 0.106439
C33   C     C_3   0.236663 0.739425 0.140788 -0.379707
C34   C     C_3   0.760959 0.266146 0.863963 -0.371818
H13   H     H_    0.216180 0.594172 0.125840 0.176351
H14   H     H_    0.779233 0.123548 0.892038 0.175623
H15   H     H_    0.240085 0.800011 0.066094 0.110237
H16   H     H_    0.756690 0.351001 0.931780 0.110090
C35   C     C_3   0.308870 0.731000 0.213239 0.487336
C36   C     C_3   0.689790 0.250771 0.788960 0.477756
H17   H     H_    0.346732 0.785442 0.172183 0.070372
H18   H     H_    0.651034 0.317026 0.824893 0.064248
H19   H     H_    0.165919 0.626262 0.281715 0.144536
H20   H     H_    0.827313 0.094670 0.734813 0.151410
H21   H     H_    0.271745 0.623700 0.388209 0.170718
H22   H     H_    0.726411 0.101687 0.617945 0.162042
C37   C     C_3   0.185257 0.773408 0.292666 -0.309827
C38   C     C_3   0.813924 0.243938 0.713688 -0.351146
C39   C     C_3   0.218377 0.061688 0.207488 -0.323041
C40   C     C_3   0.786194 0.561914 0.777839 -0.328381
C41   C     C_3   0.187538 0.859766 0.187984 -0.005392
C42   C     C_3   0.812831 0.359509 0.811099 0.010910
H23   H     H_    0.185950 0.150413 0.245574 0.167232
H24   H     H_    0.819914 0.628800 0.733467 0.165226
H25   H     H_    0.219206 0.130340 0.133622 0.159429
H26   H     H_    0.787586 0.651730 0.846159 0.161553
C43   C     C_3   0.312111 0.851715 0.311497 -0.050327
C44   C     C_3   0.688931 0.351232 0.685410 -0.002116
C45   C     C_3   0.257679 0.772792 0.367278 0.015088
C46   C     C_3   0.743030 0.250192 0.635096 0.019408
C47   C     C_3   0.291648 0.056213 0.275216 -0.386588
C48   C     C_3   0.712348 0.557614 0.712150 -0.402568
H27   H     H_    0.327752 0.110573 0.231023 0.189471
H28   H     H_    0.677862 0.625984 0.755190 0.190609
H29   H     H_    0.295187 0.152972 0.341269 0.185662
H30   H     H_    0.708815 0.643070 0.642136 0.175984
H31   H     H_    0.147796 0.854340 0.324896 0.188197
H32   H     H_    0.855575 0.298547 0.680175 0.183070
O11   O     O_R   0.912980 0.203550 0.915410 -0.542068
O12   O     O_R   0.087020 0.703550 0.084590 -0.543374
O13   O     O_R   0.047270 0.535570 0.887960 -0.540475
O14   O     O_R   0.952730 0.035570 0.112040 -0.538217
C49   C     C_R   0.063593 0.367498 0.861289 0.777179
C50   C     C_R   0.936275 0.868470 0.138565 0.777937
O15   O     O_R   0.911030 0.532970 0.903270 -0.548270
O16   O     O_R   0.088970 0.032970 0.096730 -0.546682
O17   O     O_R   0.949820 0.708150 0.099970 -0.539173
O18   O     O_R   0.050180 0.208150 0.900030 -0.536802
C51   C     C_R   0.883664 0.365320 0.882207 0.708293
C52   C     C_R   0.116413 0.865212 0.117619 0.708460
O19   O     O_3   0.012900 0.375230 0.064480 -0.377637
O20   O     O_3   0.987100 0.875230 0.935520 -0.377165
V3    V     V_3+5 0.997610 0.648190 0.988040 1.443865
V4    V     V_3+5 0.002390 0.148190 0.011960 1.451551
F1    F     F_    0.325535 0.544405 0.238050 -0.697771
F2    F     F_    0.672766 0.062031 0.772904 -0.695019
C53   C     C_3   0.256961 0.880290 0.467748 -0.393973
C54   C     C_3   0.219638 0.771104 0.535723 -0.723911
H33   H     H_    0.165669 0.745279 0.496065 0.253199
H34   H     H_    0.245493 0.634217 0.557841 0.219433
H35   H     H_    0.220460 0.853508 0.606176 0.233564
H36   H     H_    0.309794 0.904591 0.512958 0.183492
H37   H     H_    0.232273 0.020463 0.450592 0.191728
C55   C     C_3   0.752843 0.337048 0.533369 -0.412169
C56   C     C_3   0.691384 0.319382 0.442914 -0.721370
H38   H     H_    0.667939 0.178257 0.441560 0.226600
H39   H     H_    0.653237 0.430513 0.445751 0.231779
H40   H     H_    0.708070 0.338569 0.370686 0.226558
H41   H     H_    0.768687 0.486838 0.543562 0.199148
H42   H     H_    0.795399 0.260135 0.511202 0.208476
F3    F     F_    0.575087 0.867797 0.006820 -0.664502
F4    F     F_    0.423649 0.440383 0.989433 -0.667943
F5    F     F_    0.001322 0.862567 0.345489 -0.714988
F6    F     F_    0.999047 0.312972 0.656296 -0.713686

loop_
_geom_bond_atom_site_label_1
_geom_bond_atom_site_label_2
_ccdc_geom_bond_type
C34   H16   S    
O15   C51   A    
C35   H17   S    
O17   V3    S    
C7    C29   A    
C11   C13   A    
C53   C54   S    
C18   C26   A    
C38   C42   S    
O2    C4    A    
O11   C51   A    
C2    O7    A    
C54   H34   S    
C34   C42   S    
C23   C25   A    
O5    C3    A    
C32   C49   S    
O19   V3    S    
C4    C7    S    
C31   C50   S    
C40   C42   S    
C35   C43   S    
C16   C20   A    
C19   C21   A    
C5    C29   A    
O11   V4    S    
C38   H32   S    
C48   H28   S    
H22   C46   S    
C33   H13   S    
O20   V3    S    
C34   H14   S    
C3    C8    S    
O16   C52   A    
C7    C27   A    
C55   C56   S    
C25   H11   S    
C26   H12   S    
O14   C50   A    
C36   C44   S    
C15   C17   A    
O18   V4    S    
C53   H36   S    
C19   C27   A    
C9    C31   A    
H19   C37   S    
C49   O18   A    
C10   C32   A    
O20   V4    S    
C42   C51   S    
C24   C26   A    
O14   V4    S    
O12   C52   A    
O6    V2    S    
C2    C43   S    
C40   H26   S    
C39   C41   S    
C6    C30   A    
C54   H33   S    
C43   C45   S    
C33   C35   S    
C37   C45   S    
C56   H39   S    
C34   C36   S    
C21   C23   A    
O19   V4    S    
O12   V3    S    
O16   V4    S    
C47   H27   S    
O4    C2    A    
C48   H30   S    
C12   H10   S    
C27   H5    S    
C55   H42   S    
C44   C48   S    
H1    C29   S    
H20   C38   S    
C36   H18   S    
O4    V2    S    
H21   C45   S    
C36   F2    S    
H3    C23   S    
C6    C22   A    
O6    C4    A    
H4    C24   S    
O13   C49   A    
C39   H25   S    
O1    V2    S    
C10   F6    S    
C40   C48   S    
O2    V1    S    
C39   C47   S    
C38   C46   S    
O13   V3    S    
C44   C46   S    
C41   C52   S    
C17   C31   A    
C45   C53   S    
C20   C28   A    
C18   C32   A    
C5    C21   A    
C20   C22   A    
O3    V1    S    
C13   H7    S    
C56   H40   S    
C28   H6    S    
C14   H8    S    
C47   H29   S    
C37   C41   S    
O3    C1    A    
C56   H38   S    
C11   H9    S    
C33   H15   S    
C9    C11   A    
C50   O17   A    
O15   V3    S    
C10   C12   A    
C53   H37   S    
C8    C30   A    
C33   C41   S    
C12   C14   A    
O7    V1    S    
C17   C25   A    
C1    O8    A    
C13   C15   A    
O8    V2    S    
C6    F4    S    
C14   C16   A    
C1    C44   S    
C5    F3    S    
C22   C24   A    
C8    C28   A    
O5    V1    S    
C15   C19   A    
C55   H41   S    
C9    F5    S    
H2    C30   S    
C37   H31   S    
C46   C55   S    
C40   H24   S    
O9    V2    S    
C39   H23   S    
O10   V1    S    
O1    C3    A    
C54   H35   S    
C43   C47   S    
C16   C18   A    
C35   F1    S    
