data_str_m4_o14_o22_f0_acs.sym.156
_audit_creation_date              2012-12-11T14:23:02-0500
_audit_creation_method            fapswitch 2.2
_symmetry_space_group_name_H-M    P1
_symmetry_Int_Tables_number       1
_space_group_crystal_system       triclinic
_cell_length_a                    10.963494
_cell_length_b                    11.072814
_cell_length_c                    18.659888
_cell_angle_alpha                 90.156375
_cell_angle_beta                  89.977159
_cell_angle_gamma                 59.309683
_cell_volume                      1947.96376647

loop_
_atom_site_label
_atom_site_type_symbol
_atom_type_description
_atom_site_fract_x
_atom_site_fract_y
_atom_site_fract_z
_atom_type_partial_charge
C1    C     C_R   0.234287 0.646228 0.609226 0.537455
C2    C     C_3   0.728475 0.502656 0.806681 -0.235749
C3    C     C_3   0.686467 0.658200 0.817745 0.053420
C4    C     C_3   0.646309 0.615742 0.684457 0.041455
C5    C     C_3   0.743527 0.679287 0.688220 -0.224298
C6    C     C_3   0.715068 0.476086 0.726875 -0.237016
C7    C     C_R   0.723512 0.081673 0.811906 -0.002875
C8    C     C_R   0.821563 0.109325 0.775489 0.024151
C9    C     C_R   0.813052 0.121247 0.699579 0.020378
C10   C     C_R   0.606682 0.095008 0.699712 -0.154851
C11   C     C_R   0.622098 0.069228 0.771867 -0.163129
C12   C     C_R   0.627255 0.587129 0.609131 0.567025
C13   C     C_R   0.925215 0.128999 0.810309 -0.116994
C14   C     C_R   0.026377 0.141822 0.771081 -0.166269
C15   C     C_R   0.027845 0.134392 0.696803 -0.152425
C16   C     C_R   0.922890 0.123342 0.661227 -0.096855
C17   C     C_R   0.692789 0.134020 0.664298 -0.004984
C18   C     C_R   0.182174 0.668529 0.834432 -0.009096
C19   C     C_R   0.208823 0.544200 0.799606 0.018943
C20   C     C_R   0.197834 0.543200 0.723816 0.018235
C21   C     C_R   0.167195 0.777053 0.720716 -0.168221
C22   C     C_R   0.171138 0.779455 0.794094 -0.162110
C23   C     C_R   0.633760 0.219919 0.599721 0.532019
C24   C     C_R   0.247528 0.420756 0.838651 -0.076334
C25   C     C_R   0.264358 0.301665 0.804351 -0.121336
C26   C     C_R   0.239516 0.304734 0.731260 -0.133046
C27   C     C_R   0.202664 0.424969 0.691526 -0.083722
C28   C     C_R   0.184746 0.659518 0.683898 -0.015421
C29   C     C_R   0.710121 0.692374 0.181722 -0.006985
C30   C     C_R   0.794316 0.556870 0.212861 0.053459
C31   C     C_R   0.735219 0.519285 0.268053 0.027363
C32   C     C_R   0.558846 0.763871 0.286092 -0.130432
C33   C     C_R   0.592486 0.794948 0.219296 -0.156199
C34   C     C_R   0.276984 0.626172 0.391735 0.549090
C35   C     C_R   0.926300 0.450947 0.185088 -0.084245
C36   C     C_R   0.965624 0.311670 0.190928 -0.133806
C37   C     C_R   0.894554 0.274675 0.238222 -0.119384
C38   C     C_R   0.782046 0.376690 0.278144 -0.089179
C39   C     C_R   0.631169 0.625275 0.311155 -0.005878
C40   C     C_R   0.688116 0.069436 0.191096 -0.010793
C41   C     C_R   0.561136 0.112106 0.229886 0.018837
C42   C     C_R   0.571200 0.093650 0.304564 0.049338
C43   C     C_R   0.803615 0.060035 0.305067 -0.172825
C44   C     C_R   0.812713 0.028104 0.231303 -0.162418
C45   C     C_R   0.616646 0.592186 0.385155 0.538787
C46   C     C_R   0.424008 0.177539 0.200073 -0.117374
C47   C     C_R   0.308918 0.204707 0.242923 -0.163714
C48   C     C_R   0.327546 0.158528 0.313364 -0.126266
C49   C     C_R   0.461693 0.091026 0.342187 -0.079180
C50   C     C_R   0.674581 0.110222 0.340216 -0.000848
C51   C     C_R   0.207881 0.640134 0.166896 -0.004540
C52   C     C_R   0.258252 0.721726 0.197745 0.033450
C53   C     C_R   0.239206 0.745241 0.271888 0.022344
C54   C     C_R   0.229990 0.531364 0.281584 -0.144241
C55   C     C_R   0.207298 0.535948 0.208001 -0.154865
C56   C     C_R   0.626140 0.212087 0.401411 0.520600
C57   C     C_R   0.292173 0.805549 0.155231 -0.059163
C58   C     C_R   0.262663 0.935109 0.181041 -0.108339
C59   C     C_R   0.209409 0.974471 0.250069 -0.160999
C60   C     C_R   0.204207 0.879672 0.296521 -0.118785
C61   C     C_R   0.239651 0.639652 0.315287 -0.008627
C62   C     C_R   0.727504 0.047255 0.888447 0.561688
C63   C     C_R   0.717378 0.683134 0.891316 0.550755
C64   C     C_R   0.120470 0.704816 0.906418 0.526106
C65   C     C_R   0.700318 0.045519 0.112294 0.548295
C66   C     C_R   0.733381 0.715019 0.106553 0.545952
C67   C     C_3   0.527565 0.752220 0.798209 -0.241597
C68   C     C_R   0.109951 0.700296 0.105889 0.524653
C69   C     C_3   0.502743 0.718762 0.721176 -0.238671
C70   C     C_3   0.778182 0.690378 0.766611 -0.229950
Cr1   Cr    Cr6+3 0.392940 0.397950 0.502230 0.992618
Cr2   Cr    Cr6+3 0.398400 0.708500 0.501260 0.986780
Cr3   Cr    Cr6+3 0.708640 0.393530 0.496460 0.986932
Cr4   Cr    Cr6+3 0.937880 0.938320 0.007620 0.994112
Cr5   Cr    Cr6+3 0.625560 0.937220 0.994510 0.983111
Cr6   Cr    Cr6+3 0.938080 0.625010 0.001190 0.980513
H1    H     H_    0.494555 0.864988 0.801952 0.118791
H2    H     H_    0.822283 0.404141 0.704795 0.164197
H3    H     H_    0.892833 0.614457 0.776230 0.145408
H4    H     H_    0.844498 0.613166 0.658504 0.141477
H5    H     H_    0.519963 0.093659 0.672673 0.137563
H6    H     H_    0.550611 0.041585 0.796765 0.132229
H7    H     H_    0.110327 0.136296 0.666156 0.103217
H8    H     H_    0.931013 0.112757 0.603553 0.137527
H9    H     H_    0.163478 0.863608 0.692601 0.159990
H10   H     H_    0.460634 0.733887 0.836340 0.119428
H11   H     H_    0.269299 0.414151 0.895521 0.131146
H12   H     H_    0.160913 0.871872 0.819529 0.154653
H13   H     H_    0.295459 0.207167 0.834720 0.103725
H14   H     H_    0.251749 0.212389 0.704936 0.091923
H15   H     H_    0.175515 0.423658 0.636098 0.140663
H16   H     H_    0.474870 0.846613 0.317352 0.156416
H17   H     H_    0.991800 0.473827 0.151907 0.147475
H18   H     H_    0.527194 0.897850 0.196783 0.149422
H19   H     H_    0.052532 0.232297 0.159417 0.101275
H20   H     H_    0.932520 0.166378 0.245131 0.121884
H21   H     H_    0.438571 0.667580 0.723008 0.133846
H22   H     H_    0.726118 0.345719 0.313000 0.148379
H23   H     H_    0.893418 0.051979 0.333488 0.116401
H24   H     H_    0.399863 0.219757 0.146688 0.155054
H25   H     H_    0.914561 0.983016 0.204731 0.160409
H26   H     H_    0.204919 0.263631 0.221790 0.104383
H27   H     H_    0.237769 0.179882 0.346647 0.108038
H28   H     H_    0.474936 0.057577 0.397621 0.130743
H29   H     H_    0.231262 0.448590 0.312646 0.165095
H30   H     H_    0.320837 0.780363 0.099290 0.127365
H31   H     H_    0.183663 0.463143 0.183238 0.109560
H32   H     H_    0.442711 0.818544 0.690731 0.134636
H33   H     H_    0.272257 0.007759 0.146185 0.108245
H34   H     H_    0.166617 0.080005 0.267621 0.117589
H35   H     H_    0.157710 0.921064 0.348159 0.148074
H36   H     H_    0.761474 0.796169 0.777087 0.119309
H37   H     H_    0.689423 0.785303 0.663269 0.132095
H38   H     H_    0.839634 0.429942 0.823911 0.150800
H39   H     H_    0.658651 0.478588 0.839419 0.124970
H40   H     H_    0.650997 0.424561 0.721261 0.122368
O1    O     O_R   0.507340 0.255690 0.581430 -0.520491
O2    O     O_R   0.524510 0.695820 0.424050 -0.508934
O3    O     O_R   0.736370 0.504260 0.414810 -0.498342
O4    O     O_R   0.691220 0.277270 0.422180 -0.533954
O5    O     O_3   0.499990 0.499990 0.499980 -0.286970
O6    O     O_R   0.089570 0.825450 0.930590 -0.536558
O7    O     O_R   0.818700 0.054260 0.929860 -0.505175
O8    O     O_R   0.606310 0.077010 0.915520 -0.519569
O9    O     O_R   0.646730 0.806540 0.917560 -0.518729
O10   O     O_R   0.837290 0.593240 0.915240 -0.517624
O11   O     O_R   0.065320 0.635310 0.931580 -0.507089
O12   O     O_R   0.280360 0.527380 0.578910 -0.502861
O13   O     O_R   0.068470 0.828620 0.091850 -0.530720
O14   O     O_R   0.799150 0.057200 0.079350 -0.478677
O15   O     O_R   0.585220 0.080180 0.076770 -0.535366
O16   O     O_R   0.627170 0.809480 0.067050 -0.512178
O17   O     O_R   0.816200 0.596410 0.076500 -0.516811
O18   O     O_R   0.045770 0.638240 0.081070 -0.538338
O19   O     O_3   0.833840 0.833520 0.001110 -0.289701
O20   O     O_R   0.260600 0.739610 0.584580 -0.532716
O21   O     O_R   0.532370 0.695050 0.573830 -0.501333
O22   O     O_R   0.744850 0.503430 0.576380 -0.519563
O23   O     O_R   0.699080 0.276500 0.571950 -0.528890
O24   O     O_R   0.498860 0.256520 0.419860 -0.525176
O25   O     O_R   0.272490 0.528150 0.429140 -0.492630
O26   O     O_R   0.252110 0.740440 0.423010 -0.537376
H41   H     H_    0.931272 0.137654 0.867265 0.156327
H42   H     H_    0.106322 0.153509 0.798783 0.109846

loop_
_geom_bond_atom_site_label_1
_geom_bond_atom_site_label_2
_ccdc_geom_bond_type
C45   O2    A    
C34   O25   A    
C8    C13   A    
Cr3   O3    S    
Cr2   O5    S    
C58   H33   S    
Cr6   O10   S    
C41   C42   A    
C35   C36   A    
C67   H1    S    
C1    O12   A    
C38   H22   S    
C33   H18   S    
C49   H28   S    
C62   O8    A    
C65   O14   A    
C7    C8    A    
C52   C53   A    
Cr2   O26   S    
C26   C27   A    
C17   C23   S    
C30   C35   A    
C64   O6    A    
C23   O23   A    
C36   C37   A    
C9    C16   A    
C43   H23   S    
C30   C31   A    
C56   O24   A    
Cr5   O19   S    
C6    H2    S    
Cr3   O22   S    
C10   C17   A    
C15   C16   A    
C29   C33   A    
C16   H8    S    
C59   H34   S    
C18   C19   A    
C32   C39   A    
C4    C69   S    
C54   C55   A    
C53   C61   A    
C69   H32   S    
C19   C20   A    
C8    C9    A    
C1    C28   S    
C41   C46   A    
C27   H15   S    
C22   H12   S    
C4    C12   S    
C1    O20   A    
C39   C45   S    
C45   O3    A    
Cr4   O7    S    
C59   C60   A    
Cr3   O4    S    
C21   C22   A    
C56   O4    A    
C2    C6    S    
C62   O7    A    
C65   O15   A    
Cr6   O19   S    
Cr5   O15   S    
C54   C61   A    
C66   O16   A    
C35   H17   S    
C11   H6    S    
Cr2   O21   S    
C14   H42   S    
Cr1   O1    S    
C51   C52   A    
C3    C70   S    
C24   C25   A    
C4    C6    S    
C52   C57   A    
Cr6   O18   S    
C15   H7    S    
Cr3   O23   S    
C58   C59   A    
C48   H27   S    
C21   H9    S    
C50   C56   S    
Cr5   O8    S    
C37   H20   S    
C55   H31   S    
Cr5   O9    S    
C7    C11   A    
C43   C44   A    
C7    C62   S    
C37   C38   A    
C66   O17   A    
C2    H39   S    
C47   C48   A    
C14   C15   A    
Cr6   O17   S    
C64   O11   A    
Cr4   O19   S    
C53   C60   A    
C5    H4    S    
C6    H40   S    
C63   O9    A    
C70   H36   S    
C42   C50   A    
C9    C17   A    
C40   C41   A    
Cr4   O6    S    
C21   C28   A    
Cr3   O5    S    
C40   C65   S    
Cr4   O14   S    
C12   O22   A    
Cr1   O12   S    
C57   H30   S    
Cr5   O16   S    
C46   H24   S    
C46   C47   A    
C34   O26   A    
C67   H10   S    
C54   H29   S    
C5    H37   S    
C70   H3    S    
C18   C22   A    
Cr1   O5    S    
C3    C67   S    
C4    C5    S    
C5    C70   S    
C23   O1    A    
C44   H25   S    
C43   C50   A    
Cr1   O24   S    
C20   C27   A    
C3    C63   S    
C26   H14   S    
C20   C28   A    
C10   H5    S    
C25   H13   S    
C31   C38   A    
Cr1   O25   S    
C32   C33   A    
C68   O18   A    
C2    C3    S    
C25   C26   A    
C60   H35   S    
C2    H38   S    
C36   H19   S    
C18   C64   S    
C57   C58   A    
C32   H16   S    
C48   C49   A    
C31   C39   A    
C19   C24   A    
C51   C55   A    
C51   C68   S    
C13   H41   S    
C68   O13   A    
C24   H11   S    
C63   O10   A    
Cr2   O20   S    
C10   C11   A    
C42   C49   A    
C29   C30   A    
C29   C66   S    
C40   C44   A    
C34   C61   S    
Cr4   O13   S    
Cr2   O2    S    
C47   H26   S    
Cr6   O11   S    
C12   O21   A    
C67   C69   S    
C13   C14   A    
C69   H21   S    
