data_str_m2_o1_o14_f0_pcu.sym.47
_audit_creation_date              2013-03-05T16:04:07-0500
_audit_creation_method            fapswitch 2.2
_symmetry_space_group_name_H-M    P1
_symmetry_Int_Tables_number       1
_space_group_crystal_system       triclinic
_cell_length_a                    10.828583
_cell_length_b                    9.521135
_cell_length_c                    10.782131
_cell_angle_alpha                 90.031436
_cell_angle_beta                  90.032645
_cell_angle_gamma                 90.033199
_cell_volume                      1111.64149087

loop_
_atom_site_label
_atom_site_type_symbol
_atom_site_description
_atom_site_fract_x
_atom_site_fract_y
_atom_site_fract_z
_atom_type_partial_charge
O1    O     O_R   0.319640 0.618740 0.499990 -0.593747
O2    O     O_R   0.680360 0.618740 0.500010 -0.581826
O3    O     O_R   0.319620 0.381170 0.499990 -0.584698
O4    O     O_R   0.680380 0.381170 0.500010 -0.589866
C1    C     C_R   0.262080 0.499928 0.499536 0.777323
C2    C     C_R   0.737938 0.499984 0.499736 0.806936
O5    O     O_R   0.500000 0.618810 0.319650 -0.577222
O6    O     O_R   0.500000 0.618810 0.680350 -0.581497
O7    O     O_R   0.499970 0.381240 0.319640 -0.580260
O8    O     O_R   0.500030 0.381240 0.680360 -0.576425
C3    C     C_R   0.495736 0.500009 0.262500 0.792546
C4    C     C_R   0.495223 0.500098 0.737501 0.791973
Cu1   Cu    Cu3+1 0.500000 0.640660 0.500000 0.971418
Cu2   Cu    Cu3+1 0.500000 0.359340 0.500000 0.965058
H1    H     H_    0.642693 0.359515 0.112516 0.161579
H2    H     H_    0.642379 0.359629 0.887090 0.154367
C5    C     C_R   0.299235 0.648186 0.129708 -0.322452
C6    C     C_R   0.299447 0.649824 0.871327 -0.305318
C7    C     C_R   0.206554 0.721477 0.066226 0.295963
C8    C     C_R   0.208061 0.724635 0.935514 0.299318
C9    C     C_R   0.393769 0.576760 0.934801 0.044669
C10   C     C_R   0.394048 0.576696 0.065658 0.050530
C11   C     C_R   0.486680 0.499821 0.128811 -0.056986
C12   C     C_R   0.486343 0.500037 0.871257 -0.055529
C13   C     C_R   0.572945 0.419782 0.063837 -0.171048
C14   C     C_R   0.572757 0.419862 0.935977 -0.176848
C15   C     C_R   0.063838 0.372536 0.506193 -0.149607
C16   C     C_R   0.936101 0.372590 0.506379 -0.159757
H3    H     H_    0.111836 0.273003 0.512519 0.171216
H4    H     H_    0.887989 0.273080 0.512837 0.164207
C17   C     C_R   0.871807 0.499970 0.498950 -0.056074
C18   C     C_R   0.128267 0.499856 0.498627 -0.055581
C19   C     C_R   0.936262 0.627238 0.490698 -0.096314
C20   C     C_R   0.063999 0.627124 0.490417 -0.058003
H5    H     H_    0.888294 0.726798 0.484531 0.167829
H6    H     H_    0.112170 0.726602 0.484377 0.191786
C21   C     C_R   0.422252 0.074298 0.424016 0.005372
C22   C     C_R   0.577712 0.074510 0.576016 -0.004076
H7    H     H_    0.359960 0.130258 0.363118 0.140398
H8    H     H_    0.639983 0.130659 0.636917 0.128293
C23   C     C_R   0.422302 0.925486 0.423989 0.009680
C24   C     C_R   0.577695 0.925690 0.576029 -0.000353
H9    H     H_    0.360192 0.869328 0.363032 0.156620
H10   H     H_    0.639955 0.869696 0.636931 0.139492
N1    N     N_R   0.500000 0.852070 0.500000 -0.172271
N2    N     N_R   0.500000 0.147940 0.500000 -0.169771
H11   H     H_    0.292974 0.643234 0.229640 0.182411
H12   H     H_    0.295741 0.650272 0.771201 0.198102
N3    N     N_R   0.108242 0.785567 0.135620 0.149641
O9    O     O_R   0.129983 0.839573 0.244351 -0.408959
O10   O     O_R   0.994431 0.774310 0.098001 -0.300727
N4    N     N_R   0.119973 0.806499 0.866840 0.152486
O11   O     O_R   0.083095 0.764939 0.757951 -0.383171
O12   O     O_R   0.089344 0.931504 0.904894 -0.300825

loop_
_geom_bond_atom_site_label_1
_geom_bond_atom_site_label_2
_geom_bond_distance
_ccdc_geom_bond_type
Cu1   N1    2.012863 S    
O7    Cu2   1.955925 S    
C17   C19   1.400917 A    
C18   C20   1.400528 A    
O6    Cu1   1.955768 S    
Cu1   Cu2   2.678486 S    
C15   H3    1.083271 S    
C6    C9    1.412819 A    
C23   H9    1.081153 S    
C7    N3    1.437590 S    
C20   H6    1.083027 S    
C5    C10   1.412593 A    
O6    C4    1.288656 A    
C1    C18   1.449027 S    
O3    C1    1.291345 A    
C16   H4    1.083276 S    
C19   C20   1.383218 A    
C13   C14   1.378609 A    
Cu2   N2    2.012768 S    
C22   H8    1.081827 S    
C9    C10   1.410923 A    
O5    C3    1.288568 A    
O7    C3    1.288879 A    
O2    C2    1.291519 A    
O3    Cu2   1.964407 S    
C24   H10   1.081779 S    
C21   C23   1.416859 A    
O1    C1    1.291266 A    
O8    C4    1.289305 A    
C3    C11   1.444728 S    
C19   H5    1.083234 S    
N4    O12   1.301912 A    
C22   C24   1.416935 A    
C6    C8    1.402364 A    
C11   C13   1.394660 A    
O4    Cu2   1.964166 S    
C22   N2    1.367196 A    
O4    C2    1.291276 A    
O1    Cu1   1.964042 S    
C15   C18   1.400752 A    
C2    C17   1.449637 S    
C5    H11   1.080698 S    
O5    Cu1   1.955542 S    
N4    O11   1.301244 A    
H1    C13   1.084233 S    
C21   H7    1.081811 S    
N3    O9    1.301198 A    
O8    Cu2   1.955697 S    
C9    C12   1.417394 A    
C15   C16   1.383209 A    
O2    Cu1   1.964283 S    
C4    C12   1.445426 S    
C8    N4    1.437477 S    
C23   N1    1.367002 A    
C5    C7    1.401153 A    
C21   N2    1.367302 A    
C10   C11   1.416389 A    
C24   N1    1.367135 A    
C16   C17   1.401084 A    
C7    C8    1.409799 A    
C12   C14   1.394980 A    
N3    O10   1.301567 A    
H2    C14   1.084310 S    
C6    H12   1.080305 S    
