data_str_m2_o10_o17_f0_pcu.sym.203
_audit_creation_date              2012-12-10T16:44:43-0500
_audit_creation_method            fapswitch 2.2
_symmetry_space_group_name_H-M    P1
_symmetry_Int_Tables_number       1
_space_group_crystal_system       triclinic
_cell_length_a                    14.978342
_cell_length_b                    8.716746
_cell_length_c                    7.446904
_cell_angle_alpha                 103.135498
_cell_angle_beta                  93.780386
_cell_angle_gamma                 92.629357
_cell_volume                      942.931156675

loop_
_atom_site_label
_atom_site_type_symbol
_atom_type_description
_atom_site_fract_x
_atom_site_fract_y
_atom_site_fract_z
_atom_type_partial_charge
C1    C     C_R   0.497805 0.199730 0.453146 0.902899
C2    C     C_R   0.503146 0.800371 0.546818 0.894038
C3    C     C_R   0.038143 0.230576 0.553105 -0.191997
C4    C     C_R   0.962557 0.768189 0.458403 -0.203037
C5    C     C_2   0.497260 0.031955 0.427002 -0.390817
C6    C     C_2   0.505384 0.968361 0.573020 -0.354700
C7    C     C_R   0.329094 0.496593 0.502537 0.855434
C8    C     C_R   0.670922 0.501505 0.497122 0.872916
C9    C     C_R   0.816234 0.630616 0.456558 0.359784
C10   C     C_R   0.182651 0.355764 0.512740 0.363220
C11   C     C_R   0.767065 0.500427 0.490677 -0.146397
C12   C     C_R   0.232930 0.495132 0.508554 -0.148093
C13   C     C_R   0.809616 0.370093 0.526166 -0.329996
C14   C     C_R   0.191174 0.633183 0.500572 -0.318018
C15   C     C_R   0.902461 0.367295 0.528116 0.122969
C16   C     C_R   0.098213 0.634295 0.493690 0.125813
C17   C     C_R   0.953255 0.500049 0.503170 0.027224
C18   C     C_R   0.047108 0.498601 0.508611 0.022593
C19   C     C_R   0.910391 0.634004 0.472194 0.016549
C20   C     C_R   0.089643 0.360754 0.526021 0.019099
C21   C     C_R   0.945374 0.234735 0.556868 -0.214782
C22   C     C_R   0.055615 0.768614 0.471151 -0.211568
Cu1   Cu    Cu3+1 0.510010 0.517380 0.684380 0.964107
Cu2   Cu    Cu3+1 0.489990 0.482620 0.315620 0.953678
H1    H     H_    0.069721 0.126995 0.575366 0.179551
H2    H     H_    0.931763 0.873113 0.437564 0.173483
H3    H     H_    0.431131 0.375899 0.948278 0.232181
H4    H     H_    0.568063 0.625159 0.051911 0.224313
N1    N     N_2   0.474890 0.456420 0.038520 -0.218538
N2    N     N_2   0.525110 0.543580 0.961480 -0.223504
O1    O     O_R   0.506510 0.286130 0.619770 -0.583437
O2    O     O_R   0.493490 0.713870 0.380230 -0.585551
O3    O     O_R   0.489600 0.256770 0.308360 -0.593027
O4    O     O_R   0.510400 0.743230 0.691640 -0.588929
O5    O     O_R   0.378710 0.514640 0.655720 -0.574779
O6    O     O_R   0.621290 0.485360 0.344280 -0.592394
O7    O     O_R   0.361800 0.485290 0.344300 -0.596693
O8    O     O_R   0.638200 0.514710 0.655700 -0.585255
O9    O     O_3   0.772135 0.758770 0.423246 -0.597556
C23   C     C_3   0.763876 0.747257 0.230360 0.055119
H5    H     H_    0.724256 0.637274 0.156743 0.158608
H6    H     H_    0.830595 0.747921 0.172816 0.147341
C24   C     C_3   0.716172 0.888000 0.191860 -0.783667
H7    H     H_    0.755668 0.999387 0.260059 0.245039
H8    H     H_    0.708310 0.879343 0.040472 0.212889
H9    H     H_    0.648880 0.889933 0.245785 0.247841
O10   O     O_3   0.223555 0.214396 0.497644 -0.601591
C25   C     C_3   0.228498 0.145663 0.307143 0.047475
H10   H     H_    0.274911 0.218298 0.244981 0.166940
H11   H     H_    0.161395 0.133699 0.229065 0.146427
C26   C     C_3   0.264272 0.982038 0.282006 -0.786267
H12   H     H_    0.208437 0.892651 0.274688 0.222071
H13   H     H_    0.297316 0.951580 0.150383 0.214004
H14   H     H_    0.313480 0.977437 0.398323 0.262867
H15   H     H_    0.770004 0.270361 0.550362 0.161714
H16   H     H_    0.231445 0.738372 0.495592 0.157890
H17   H     H_    0.906924 0.134110 0.580939 0.155700
H18   H     H_    0.094373 0.872858 0.459816 0.152655
H19   H     H_    0.488868 0.960200 0.286284 0.175927
H20   H     H_    0.513339 0.040105 0.713770 0.180234

loop_
_geom_bond_atom_site_label_1
_geom_bond_atom_site_label_2
_ccdc_geom_bond_type
C22   H18   S    
C14   H16   S    
C24   H7    S    
Cu2   O2    S    
C21   H17   S    
N1    N2    D    
H3    N1    S    
Cu1   O8    S    
C4    C22   A    
C18   C20   A    
Cu2   O3    S    
C4    C19   A    
C13   C15   A    
C15   C21   A    
Cu1   Cu2   S    
Cu1   O4    S    
C23   C24   S    
C2    O4    A    
H4    N2    S    
Cu2   O7    S    
C7    O7    A    
C1    O3    A    
C3    C20   A    
C16   C18   A    
C2    C6    S    
C26   H14   S    
C24   H8    S    
Cu2   O6    S    
C8    O8    A    
C8    C11   S    
C1    C5    S    
C10   C12   A    
C25   H11   S    
C23   H5    S    
C17   C19   A    
C12   C14   A    
C17   C18   A    
Cu1   O5    S    
C9    C11   A    
C1    O1    A    
C5    C6    D    
C24   H9    S    
C14   C16   A    
C7    C12   S    
C3    C21   A    
C11   C13   A    
C4    H2    S    
C5    H19   S    
C26   H12   S    
Cu1   N2    S    
C6    H20   S    
C9    O9    S    
C3    H1    S    
C2    O2    A    
C8    O6    A    
O9    C23   S    
C15   C17   A    
Cu2   N1    S    
C25   H10   S    
C16   C22   A    
C26   H13   S    
C10   O10   S    
C7    O5    A    
C9    C19   A    
C25   C26   S    
O10   C25   S    
C10   C20   A    
C23   H6    S    
C13   H15   S    
Cu1   O1    S    
