data_str_m2_o14_o16_f0_pcu.sym.28
_audit_creation_date              2012-10-26T19:04:41-0400
_audit_creation_method            fapswitch 2.2
_symmetry_space_group_name_H-M    P1
_symmetry_Int_Tables_number       1
_space_group_crystal_system       triclinic
_cell_length_a                    9.60659
_cell_length_b                    10.750385
_cell_length_c                    13.461916
_cell_angle_alpha                 92.449181
_cell_angle_beta                  71.866837
_cell_angle_gamma                 89.951398
_cell_volume                      1319.87284983

loop_
_atom_site_label
_atom_site_type_symbol
_atom_type_description
_atom_site_fract_x
_atom_site_fract_y
_atom_site_fract_z
_atom_type_partial_charge
C1    C     C_R   0.500033 0.737207 0.500004 0.542264
C2    C     C_R   0.370753 0.508460 0.816847 -0.036527
C3    C     C_R   0.397143 0.879737 0.697470 -0.143170
C4    C     C_R   0.420190 0.499762 0.700617 0.512506
C5    C     C_R   0.344539 0.949059 0.791837 -0.062542
C6    C     C_R   0.340966 0.078775 0.792698 0.102610
C7    C     C_R   0.391074 0.139493 0.698233 -0.103378
C8    C     C_R   0.444608 0.070707 0.601908 0.010601
C9    C     C_R   0.446332 0.939357 0.601551 0.013782
C10   C     C_R   0.498312 0.871229 0.504919 0.014232
C11   C     C_R   0.550298 0.931220 0.410881 -0.138399
C12   C     C_R   0.440174 0.508286 0.978018 0.018427
C13   C     C_R   0.550288 0.059818 0.411226 -0.151522
C14   C     C_R   0.497524 0.129279 0.505555 0.013785
C15   C     C_R   0.915951 0.334305 0.361748 -0.099822
C16   C     C_R   0.499661 0.262817 0.500849 0.522591
C17   C     C_R   0.017067 0.251683 0.292795 0.262500
C18   C     C_R   0.161345 0.251082 0.292879 0.117401
C19   C     C_R   0.203251 0.332581 0.361762 -0.127869
C20   C     C_R   0.103996 0.417690 0.432192 0.120881
C21   C     C_R   0.954820 0.418130 0.432129 0.106879
C22   C     C_R   0.897902 0.578040 0.564528 0.012423
C23   C     C_R   0.465487 0.467617 0.872276 -0.008917
C24   C     C_R   0.045798 0.578194 0.564319 0.003011
C25   C     C_R   0.579625 0.498575 0.299422 0.537755
C26   C     C_R   0.786481 0.391233 0.020254 0.137870
C27   C     C_R   0.626016 0.485001 0.183838 -0.015526
C28   C     C_R   0.239045 0.574150 0.872639 0.121973
C29   C     C_R   0.213178 0.612407 0.977261 0.133966
C30   C     C_R   0.314658 0.583185 0.027941 -0.129611
C31   C     C_R   0.544491 0.476704 0.029038 0.011285
C32   C     C_R   0.675805 0.411435 0.972861 0.059816
C33   C     C_R   0.692292 0.364841 0.871094 -0.123881
C34   C     C_R   0.586061 0.387364 0.824034 -0.134046
C35   C     C_R   0.518765 0.503722 0.135783 -0.168553
C36   C     C_R   0.767329 0.442886 0.122618 0.113222
Cu1   Cu    Cu3+1 0.359340 0.500010 0.500010 0.911756
Cu2   Cu    Cu3+1 0.640660 0.499990 0.499990 0.921988
H1    H     H_    0.399985 0.779442 0.700236 0.112214
H2    H     H_    0.412700 0.536105 0.184699 0.139231
H3    H     H_    0.293483 0.623497 0.105833 0.102238
H4    H     H_    0.600706 0.340433 0.748840 0.148299
H5    H     H_    0.590702 0.878097 0.337063 0.121169
H6    H     H_    0.885803 0.542614 0.197079 0.247777
H7    H     H_    0.987594 0.450570 0.104522 0.260816
H8    H     H_    0.371256 0.203422 0.899888 0.242599
H9    H     H_    0.203229 0.208067 0.885287 0.245333
H10   H     H_    0.872093 0.182685 0.232433 0.313649
H11   H     H_    0.239062 0.077020 0.245389 0.251773
H12   H     H_    0.306973 0.901568 0.864581 0.139575
H13   H     H_    0.371568 0.183360 0.224712 0.199313
H14   H     H_    0.971759 0.289857 0.015285 0.261819
H15   H     H_    0.875624 0.229057 0.946046 0.218526
H16   H     H_    0.177021 0.667878 0.764519 0.226334
H17   H     H_    0.093208 0.527370 0.795970 0.263673
H18   H     H_    0.097043 0.773058 0.996660 0.249746
H19   H     H_    0.076293 0.703282 0.109239 0.214038
H20   H     H_    0.387134 0.240076 0.701062 0.115459
H21   H     H_    0.590806 0.105553 0.337671 0.098141
H22   H     H_    0.819722 0.642121 0.617444 0.126525
H23   H     H_    0.808800 0.330900 0.355824 0.189183
H24   H     H_    0.315025 0.325028 0.356650 0.185031
H25   H     H_    0.787293 0.309995 0.826305 0.137660
H26   H     H_    0.077930 0.642741 0.616688 0.112733
N1    N     N_R   0.852480 0.498790 0.499000 -0.239015
N2    N     N_R   0.148360 0.498710 0.498970 -0.233085
N3    N     N_3   0.888002 0.452292 0.164592 -0.612304
N4    N     N_3   0.286481 0.148357 0.890217 -0.604854
N5    N     N_3   0.265799 0.167470 0.221172 -0.557042
N6    N     N_3   0.913388 0.315006 0.965491 -0.635891
N7    N     N_3   0.131097 0.607957 0.824742 -0.593511
N8    N     N_3   0.084621 0.686370 0.030522 -0.594380
O1    O     O_R   0.381190 0.680360 0.500010 -0.497152
O2    O     O_R   0.618760 0.680340 0.500000 -0.493758
O3    O     O_R   0.323240 0.499990 0.650990 -0.508968
O4    O     O_R   0.560820 0.499960 0.650980 -0.501551
O5    O     O_R   0.381240 0.319660 0.500000 -0.514794
O6    O     O_R   0.618810 0.319640 0.499990 -0.522673
O7    O     O_R   0.439180 0.500040 0.349020 -0.525788
O8    O     O_R   0.676760 0.500010 0.349010 -0.499927
O9    O     O_3   0.977772 0.171185 0.223553 -0.667922

loop_
_geom_bond_atom_site_label_1
_geom_bond_atom_site_label_2
_ccdc_geom_bond_type
C26   C32   A    
C25   O8    A    
C19   C20   A    
C34   H4    S    
C36   N3    S    
C7    C8    A    
Cu2   O4    S    
Cu1   O7    S    
C12   C23   A    
C29   C30   A    
C1    O2    A    
C22   C24   A    
C20   N2    A    
C28   C29   A    
C18   C19   A    
C22   H22   S    
C5    C6    A    
C19   H24   S    
H10   O9    S    
C16   O5    A    
C4    O3    A    
H16   N7    S    
C8    C9    A    
H18   N8    S    
H7    N3    S    
C30   H3    S    
C11   H5    S    
C9    C10   A    
C7    H20   S    
C17   O9    S    
C24   N2    A    
C29   N8    S    
C21   N1    A    
C18   N5    S    
C6    N4    S    
Cu1   O3    S    
C3    H1    S    
C24   H26   S    
H11   N5    S    
C13   C14   A    
H15   N6    S    
C33   C34   A    
Cu2   O6    S    
C27   C35   A    
Cu1   O5    S    
C2    C4    S    
C22   N1    A    
H8    N4    S    
Cu1   Cu2   S    
C3    C9    A    
C31   C32   A    
Cu2   N1    S    
C33   H25   S    
C23   C34   A    
Cu1   N2    S    
C17   C18   A    
C15   H23   S    
C26   C36   A    
C12   C31   A    
C26   N6    S    
C14   C16   S    
C5    H12   S    
C28   N7    S    
H9    N4    S    
Cu2   O2    S    
C15   C17   A    
Cu1   O1    S    
C8    C14   A    
C12   C30   A    
C25   O7    A    
C1    C10   S    
C3    C5    A    
C6    C7    A    
C13   H21   S    
C27   C36   A    
C25   C27   S    
C1    O1    A    
C32   C33   A    
C35   H2    S    
C11   C13   A    
Cu2   O8    S    
C31   C35   A    
C16   O6    A    
H19   N8    S    
C4    O4    A    
H14   N6    S    
C10   C11   A    
C15   C21   A    
C20   C21   A    
C2    C23   A    
H6    N3    S    
C2    C28   A    
H13   N5    S    
H17   N7    S    
