data_str_m9_o11_o13_f0_sra.sym.66
_audit_creation_date              2012-12-11T14:14:21-0500
_audit_creation_method            fapswitch 2.2
_symmetry_space_group_name_H-M    P1
_symmetry_Int_Tables_number       1
_space_group_crystal_system       triclinic
_cell_length_a                    16.895838
_cell_length_b                    7.247672
_cell_length_c                    17.106743
_cell_angle_alpha                 89.99882
_cell_angle_beta                  99.553573
_cell_angle_gamma                 90.001342
_cell_volume                      2065.76132438

loop_
_atom_site_label
_atom_site_type_symbol
_atom_type_description
_atom_site_fract_x
_atom_site_fract_y
_atom_site_fract_z
_atom_type_partial_charge
O1    O     O_R   0.414560 0.494370 0.416770 -0.537910
O2    O     O_R   0.585440 0.994370 0.583230 -0.537925
O3    O     O_R   0.578370 0.819590 0.429320 -0.522554
O4    O     O_R   0.421630 0.319590 0.570680 -0.522605
C1    C     C_R   0.604287 0.655923 0.413532 0.722413
C2    C     C_R   0.395711 0.155917 0.586466 0.722282
O5    O     O_R   0.414740 0.823790 0.407360 -0.545688
O6    O     O_R   0.585260 0.323790 0.592640 -0.545709
O7    O     O_R   0.420650 0.998510 0.561120 -0.542675
O8    O     O_R   0.579350 0.498510 0.438880 -0.542675
C3    C     C_R   0.387394 0.654716 0.385782 0.767066
C4    C     C_R   0.612605 0.154716 0.614218 0.766991
O9    O     O_3   0.502130 0.662240 0.550470 -0.381709
O10   O     O_3   0.497870 0.162240 0.449530 -0.381645
V1    V     V_3+5 0.499600 0.935390 0.490640 1.436436
V2    V     V_3+5 0.500400 0.435390 0.509360 1.436313
C5    C     C_2   0.792016 0.275961 0.779972 0.455241
C6    C     C_2   0.207982 0.775963 0.220030 0.455286
C7    C     C_2   0.817020 0.118485 0.820067 -0.377171
C8    C     C_2   0.182978 0.618488 0.179935 -0.377072
H1    H     H_    0.782921 0.992054 0.807559 0.103921
H2    H     H_    0.217077 0.492059 0.192443 0.103934
C9    C     C_2   0.713701 0.281554 0.722962 -0.267938
C10   C     C_2   0.286296 0.781558 0.277041 -0.267774
C11   C     C_2   0.683675 0.138550 0.677565 -0.343040
C12   C     C_2   0.316323 0.638550 0.322437 -0.343083
H3    H     H_    0.682654 0.413002 0.714637 0.142963
H4    H     H_    0.317343 0.913009 0.285367 0.143030
H5    H     H_    0.714180 0.006257 0.683772 0.126482
H6    H     H_    0.285819 0.506253 0.316228 0.126475
C13   C     C_R   0.330002 0.153865 0.634178 -0.172445
C14   C     C_R   0.669992 0.653886 0.365816 -0.172885
C15   C     C_R   0.163690 0.116348 0.858643 -0.138856
C16   C     C_R   0.836313 0.616319 0.141362 -0.138360
C17   C     C_R   0.292241 0.997171 0.832708 0.423308
C18   C     C_R   0.707770 0.497036 0.167328 0.423493
C19   C     C_R   0.233267 0.010887 0.880966 -0.285087
C20   C     C_R   0.766762 0.510739 0.119067 -0.286164
C21   C     C_R   0.151343 0.209271 0.784176 0.092921
C22   C     C_R   0.848649 0.709288 0.215816 0.092920
C23   C     C_R   0.210952 0.192575 0.733636 0.002069
C24   C     C_R   0.789047 0.692576 0.266359 0.001739
C25   C     C_R   0.281042 0.084423 0.758201 0.033129
C26   C     C_R   0.718966 0.584382 0.241807 0.033888
C27   C     C_R   0.339603 0.066175 0.708178 -0.253750
C28   C     C_R   0.660387 0.566208 0.291815 -0.252807
C29   C     C_R   0.259421 0.254926 0.608471 0.458981
C30   C     C_R   0.740577 0.754940 0.391522 0.459006
C31   C     C_R   0.202202 0.276777 0.658197 -0.206530
C32   C     C_R   0.797792 0.776801 0.341792 -0.206541
H7    H     H_    0.394145 0.988509 0.727544 0.169956
H8    H     H_    0.605828 0.488602 0.272437 0.170333
H9    H     H_    0.150561 0.358088 0.634412 0.147996
H10   H     H_    0.849431 0.858126 0.365573 0.148025
H11   H     H_    0.241845 0.936589 0.936742 0.141868
H12   H     H_    0.758257 0.436261 0.063340 0.141259
O11   O     O_R   0.920750 0.773600 0.061260 -0.539484
O12   O     O_R   0.079250 0.273600 0.938740 -0.539447
O13   O     O_R   0.085340 0.439850 0.092570 -0.554405
O14   O     O_R   0.914660 0.939850 0.907430 -0.554413
C33   C     C_R   0.112421 0.609029 0.114802 0.747647
C34   C     C_R   0.887579 0.109028 0.885199 0.747585
O15   O     O_R   0.921720 0.444130 0.070790 -0.541836
O16   O     O_R   0.078280 0.944130 0.929210 -0.541826
O17   O     O_R   0.914480 0.269530 0.916840 -0.496526
O18   O     O_R   0.085520 0.769530 0.083160 -0.496511
C35   C     C_R   0.897442 0.612341 0.087764 0.706568
C36   C     C_R   0.102558 0.112348 0.912238 0.706633
O19   O     O_3   0.997840 0.601520 0.949550 -0.376824
O20   O     O_3   0.002160 0.101520 0.050450 -0.376835
V3    V     V_3+5 0.000400 0.328340 0.009360 1.442054
V4    V     V_3+5 0.999600 0.828340 0.990640 1.442064
O21   O     O_3   0.838103 0.435511 0.797524 -0.538401
C37   C     C_3   0.827849 0.565257 0.734918 0.075394
H13   H     H_    0.776462 0.657169 0.740685 0.115718
H14   H     H_    0.817693 0.498364 0.675489 0.111796
C38   C     C_3   0.903193 0.682630 0.739971 -0.726757
H15   H     H_    0.951166 0.604346 0.717658 0.197844
H16   H     H_    0.889849 0.809203 0.703709 0.175871
H17   H     H_    0.925584 0.722262 0.801984 0.264205
O22   O     O_3   0.161896 0.935511 0.202476 -0.538392
C39   C     C_3   0.172152 0.065261 0.265079 0.075391
H18   H     H_    0.223541 0.157171 0.259309 0.115771
H19   H     H_    0.182309 0.998370 0.324510 0.111763
C40   C     C_3   0.096811 0.182636 0.260024 -0.726772
H20   H     H_    0.048838 0.104363 0.282346 0.197835
H21   H     H_    0.110158 0.309221 0.296277 0.175870
H22   H     H_    0.074415 0.222250 0.198009 0.264216
C41   C     C_3   0.072717 0.313587 0.758168 -0.346106
C42   C     C_3   0.002980 0.183784 0.725730 -0.302494
C43   C     C_3   0.010292 0.104550 0.644685 -0.749820
H23   H     H_    0.014717 0.217527 0.601798 0.226225
H24   H     H_    0.063608 0.013304 0.649203 0.236429
H25   H     H_    0.956075 0.021813 0.622202 0.214973
H26   H     H_    0.999008 0.068786 0.767779 0.180381
H27   H     H_    0.945966 0.262248 0.719654 0.206888
H28   H     H_    0.056342 0.391756 0.808617 0.177385
H29   H     H_    0.077441 0.425608 0.715478 0.153073
C44   C     C_3   0.927271 0.813635 0.241816 -0.346126
C45   C     C_3   0.997015 0.683854 0.274255 -0.302465
C46   C     C_3   0.989708 0.604605 0.355303 -0.749826
H30   H     H_    0.985278 0.717572 0.398189 0.226226
H31   H     H_    0.936398 0.513339 0.350785 0.236426
H32   H     H_    0.043929 0.521886 0.377786 0.214969
H33   H     H_    0.000994 0.568862 0.232207 0.180351
H34   H     H_    0.054025 0.762341 0.280330 0.206893
H35   H     H_    0.943639 0.891811 0.191365 0.177378
H36   H     H_    0.922545 0.925654 0.284504 0.153083
O23   O     O_3   0.246431 0.341662 0.535362 -0.560964
C47   C     C_3   0.216884 0.212265 0.475541 0.093462
H37   H     H_    0.254303 0.085053 0.478808 0.102094
H38   H     H_    0.220353 0.277452 0.417518 0.135528
C48   C     C_3   0.129121 0.161697 0.476923 -0.800050
H39   H     H_    0.092666 0.288336 0.479211 0.230758
H40   H     H_    0.104278 0.081527 0.423367 0.199706
H41   H     H_    0.124647 0.073764 0.529018 0.218469
O24   O     O_3   0.753571 0.841670 0.464631 -0.560943
C49   C     C_3   0.783115 0.712267 0.524451 0.093460
H42   H     H_    0.745692 0.585059 0.521187 0.102098
H43   H     H_    0.779651 0.777451 0.582475 0.135526
C50   C     C_3   0.870876 0.661689 0.523066 -0.800058
H44   H     H_    0.907335 0.788325 0.520775 0.230758
H45   H     H_    0.895717 0.581518 0.576623 0.199706
H46   H     H_    0.875344 0.573757 0.470972 0.218468
O25   O     O_3   0.358115 0.884737 0.855856 -0.551995
C51   C     C_3   0.414754 0.981406 0.910853 0.083648
H47   H     H_    0.391471 0.004166 0.967280 0.123689
H48   H     H_    0.430203 0.117020 0.886476 0.118536
C52   C     C_3   0.491270 0.867594 0.928849 -0.719805
H49   H     H_    0.516481 0.844838 0.873664 0.221699
H50   H     H_    0.536466 0.940921 0.972396 0.174960
H51   H     H_    0.478178 0.732024 0.953988 0.220813
O26   O     O_3   0.641905 0.384435 0.144326 -0.552092
C53   C     C_3   0.585905 0.479154 0.087967 0.083752
H52   H     H_    0.609594 0.497090 0.031465 0.123729
H53   H     H_    0.570875 0.616977 0.110590 0.118318
C54   C     C_3   0.508935 0.366691 0.070953 -0.719444
H54   H     H_    0.483007 0.349892 0.126102 0.221289
H55   H     H_    0.464460 0.437755 0.025882 0.174816
H56   H     H_    0.521688 0.228408 0.048119 0.221305

loop_
_geom_bond_atom_site_label_1
_geom_bond_atom_site_label_2
_ccdc_geom_bond_type
C51   H47   S    
C14   C30   A    
O21   C37   S    
O1    C3    A    
O2    C4    A    
C18   O26   S    
C22   C44   S    
O22   C39   S    
C42   H26   S    
C29   C31   A    
C38   H15   S    
O5    C3    A    
C44   H36   S    
C54   H55   S    
C45   H33   S    
C32   H10   S    
C37   H14   S    
C16   C22   A    
O16   C36   A    
C17   C19   A    
C10   C12   D    
C52   H49   S    
C40   H20   S    
O12   V3    S    
C40   H22   S    
O14   V4    S    
C7    C34   S    
C28   H8    S    
C6    O22   S    
O14   C34   A    
C8    C33   S    
C17   O25   S    
C49   H42   S    
C50   H46   S    
C47   H37   S    
C33   O18   A    
C15   C21   A    
O18   V4    S    
C37   C38   S    
O20   V3    S    
C9    H3    S    
C17   C25   A    
C52   H51   S    
C30   C32   A    
C2    C13   S    
O6    V2    S    
C13   C29   A    
C5    O21   S    
C23   C25   A    
C24   C26   A    
C53   C54   S    
C23   C31   A    
C26   C28   A    
C49   H43   S    
C38   H16   S    
C11   H5    S    
C54   H56   S    
O15   C35   A    
O13   C33   A    
C37   H13   S    
C40   H21   S    
C46   H30   S    
C21   C23   A    
C43   H23   S    
C53   H53   S    
C3    C12   S    
C29   O23   S    
C15   C19   A    
C41   H28   S    
C49   C50   S    
O4    V2    S    
O19   V4    S    
C43   H24   S    
C44   C45   S    
O6    C4    A    
O1    V2    S    
C5    C9    S    
O2    V1    S    
C25   C27   A    
C47   C48   S    
C50   H44   S    
C53   H52   S    
C24   C32   A    
O12   C36   A    
O15   V3    S    
C12   H6    S    
C46   H32   S    
C39   H19   S    
O26   C53   S    
C6    C10   S    
C18   C26   A    
O4    C2    A    
O3    V1    S    
C48   H39   S    
C38   H17   S    
C51   H48   S    
C34   O17   A    
C7    H1    S    
C16   C20   A    
C14   C28   A    
C10   H4    S    
C8    H2    S    
C22   C24   A    
O3    C1    A    
C16   C35   S    
C48   H41   S    
C42   H27   S    
C30   O24   S    
C39   C40   S    
C44   H35   S    
C54   H54   S    
C4    C11   S    
C45   H34   S    
C51   C52   S    
C41   H29   S    
C1    C14   S    
C18   C20   A    
O7    V1    S    
C1    O8    A    
O17   V3    S    
O24   C49   S    
C43   H25   S    
O11   C35   A    
C42   C43   S    
O25   C51   S    
C31   H9    S    
O5    V1    S    
C45   C46   S    
C5    C7    D    
C6    C8    D    
O16   V4    S    
O11   V4    S    
C47   H38   S    
C50   H45   S    
C19   H11   S    
C2    O7    A    
C9    C11   D    
C20   H12   S    
C46   H31   S    
C39   H18   S    
C13   C27   A    
O9    V2    S    
C27   H7    S    
O10   V1    S    
O8    V2    S    
C48   H40   S    
C41   C42   S    
O23   C47   S    
C21   C41   S    
C15   C36   S    
O13   V3    S    
C52   H50   S    
