data_str_m4_o22_o24_f0_acs.sym.13
_audit_creation_date              2012-12-11T15:08:43-0500
_audit_creation_method            fapswitch 2.2
_symmetry_space_group_name_H-M    P1
_symmetry_Int_Tables_number       1
_space_group_crystal_system       triclinic
_cell_length_a                    19.484281
_cell_length_b                    11.378932
_cell_length_c                    18.716191
_cell_angle_alpha                 90.222864
_cell_angle_beta                  91.005277
_cell_angle_gamma                 89.965851
_cell_volume                      4148.90182995

loop_
_atom_site_label
_atom_site_type_symbol
_atom_type_description
_atom_site_fract_x
_atom_site_fract_y
_atom_site_fract_z
_atom_type_partial_charge
C1    C     C_R   0.273901 0.042886 0.854237 0.546282
C2    C     C_3   0.699044 0.513347 0.959211 -0.257850
C3    C     C_R   0.227129 0.543321 0.354181 0.536442
C4    C     C_R   0.468027 0.822974 0.645277 0.535621
C5    C     C_R   0.532017 0.823211 0.354796 0.533581
C6    C     C_R   0.968027 0.322974 0.645277 0.535622
C7    C     C_R   0.032017 0.323211 0.354796 0.533581
C8    C     C_R   0.260627 0.639961 0.643850 0.543447
C9    C     C_R   0.739319 0.640339 0.356205 0.543553
C10   C     C_R   0.760627 0.139961 0.643850 0.543446
C11   C     C_R   0.239319 0.140339 0.356205 0.543554
C12   C     C_3   0.458741 0.911391 0.030422 -0.139537
C13   C     C_3   0.810641 0.020733 0.043623 -0.238107
C14   C     C_3   0.516553 0.928013 0.976415 -0.132281
C15   C     C_3   0.958742 0.411394 0.030422 -0.139539
C16   C     C_3   0.016554 0.428011 0.976415 -0.132284
C17   C     C_3   0.430573 0.807850 0.984700 -0.119209
C18   C     C_3   0.560459 0.839245 0.018707 -0.122116
C19   C     C_3   0.930571 0.307853 0.984701 -0.119202
C20   C     C_3   0.060458 0.339242 0.018708 -0.122117
C21   C     C_3   0.488917 0.825161 0.932056 0.050993
C22   C     C_3   0.502520 0.822761 0.071359 0.049440
C23   C     C_3   0.988916 0.325160 0.932057 0.050988
C24   C     C_3   0.199043 0.013348 0.959211 -0.257850
C25   C     C_3   0.002518 0.322762 0.071360 0.049443
C26   C     C_3   0.319505 0.762941 0.111819 -0.422038
C27   C     C_3   0.684394 0.752035 0.874024 -0.433599
C28   C     C_3   0.819508 0.262950 0.111815 -0.422029
C29   C     C_3   0.184395 0.252036 0.874023 -0.433598
C30   C     C_3   0.612495 0.127239 0.038640 -0.388100
C31   C     C_3   0.395296 0.136006 0.950279 -0.390967
C32   C     C_3   0.112494 0.627237 0.038640 -0.388100
C33   C     C_3   0.895296 0.636007 0.950279 -0.390967
C34   C     C_3   0.323846 0.557677 0.965699 -0.240290
C35   C     C_3   0.698641 0.522861 0.041410 -0.263356
C36   C     C_3   0.823847 0.057677 0.965699 -0.240287
C37   C     C_3   0.198639 0.022864 0.041410 -0.263354
C38   C     C_3   0.180164 0.556168 0.023215 -0.105964
C39   C     C_3   0.828045 0.573439 0.975174 -0.108338
C40   C     C_3   0.680165 0.056170 0.023216 -0.105965
C41   C     C_R   0.727425 0.043187 0.146198 0.533429
C42   C     C_3   0.328045 0.073439 0.975174 -0.108337
C43   C     C_3   0.257211 0.716298 0.069046 -0.111290
C44   C     C_3   0.738367 0.716220 0.932017 -0.117890
C45   C     C_3   0.757213 0.216299 0.069044 -0.111283
C46   C     C_3   0.238368 0.216220 0.932017 -0.117889
C47   C     C_3   0.244825 0.583559 0.073235 0.089275
C48   C     C_3   0.759878 0.585916 0.927303 0.097266
C49   C     C_3   0.744827 0.083560 0.073235 0.089273
C50   C     C_3   0.259878 0.085916 0.927303 0.097266
C51   C     C_3   0.263981 0.636059 0.937585 0.038951
C52   C     C_R   0.773901 0.542886 0.854237 0.546282
C53   C     C_3   0.737894 0.635995 0.062562 0.028127
C54   C     C_3   0.763981 0.136057 0.937584 0.038952
C55   C     C_3   0.237894 0.135996 0.062562 0.028126
C56   C     C_3   0.198892 0.560776 0.943970 -0.226004
C57   C     C_3   0.814600 0.615672 0.050734 -0.208261
C58   C     C_3   0.698892 0.060774 0.943970 -0.226008
C59   C     C_3   0.314600 0.115670 0.050734 -0.208259
C60   C     C_3   0.254450 0.745542 0.988037 -0.212575
C61   C     C_3   0.713587 0.733063 0.009842 -0.249088
C62   C     C_3   0.754450 0.245541 0.988035 -0.212569
C63   C     C_R   0.227424 0.543185 0.146197 0.533425
C64   C     C_3   0.213588 0.233065 0.009841 -0.249090
C65   C     C_3   0.504159 0.702760 0.460186 -0.226315
C66   C     C_3   0.495900 0.702580 0.539412 -0.227502
C67   C     C_3   0.004159 0.202760 0.460186 -0.226314
C68   C     C_3   0.995900 0.202580 0.539412 -0.227502
C69   C     C_R   0.469251 0.820957 0.855188 0.523995
C70   C     C_R   0.527105 0.820668 0.147249 0.519357
C71   C     C_R   0.969250 0.320957 0.855188 0.523994
C72   C     C_R   0.027104 0.320668 0.147250 0.519356
C73   C     C_3   0.564647 0.904544 0.475255 -0.216366
C74   C     C_3   0.532572 0.735925 0.973266 -0.121133
C75   C     C_3   0.435381 0.904306 0.525319 -0.215754
C76   C     C_3   0.064647 0.404544 0.475255 -0.216366
C77   C     C_3   0.935381 0.404306 0.525319 -0.215754
C78   C     C_3   0.441495 0.887350 0.443384 -0.262401
C79   C     C_3   0.558572 0.887090 0.557085 -0.262188
C80   C     C_3   0.941495 0.387350 0.443384 -0.262401
C81   C     C_3   0.058572 0.387090 0.557085 -0.262188
C82   C     C_3   0.511078 0.829715 0.431035 0.064271
C83   C     C_3   0.489001 0.829358 0.569130 0.063734
C84   C     C_3   0.011078 0.329715 0.431035 0.064271
C85   C     C_3   0.475298 0.718918 0.026658 -0.113475
C86   C     C_3   0.989001 0.329358 0.569130 0.063734
C87   C     C_3   0.179783 0.645933 0.458751 -0.227177
C88   C     C_3   0.820068 0.645696 0.541454 -0.226395
C89   C     C_3   0.679782 0.145933 0.458751 -0.227177
C90   C     C_3   0.320068 0.145696 0.541454 -0.226395
C91   C     C_3   0.184618 0.659792 0.537956 -0.229729
C92   C     C_3   0.815275 0.659790 0.462277 -0.229926
C93   C     C_3   0.684618 0.159792 0.537956 -0.229729
C94   C     C_3   0.315275 0.159790 0.462277 -0.229926
C95   C     C_3   0.252499 0.455411 0.472937 -0.214899
C96   C     C_3   0.032569 0.235922 0.973268 -0.121133
C97   C     C_3   0.747454 0.455199 0.526207 -0.215784
C98   C     C_3   0.752499 0.955411 0.472937 -0.214900
C99   C     C_3   0.247454 0.955199 0.526207 -0.215784
C100  C     C_3   0.304543 0.647373 0.443982 -0.265721
C101  C     C_3   0.695396 0.647033 0.556368 -0.264955
C102  C     C_3   0.804543 0.147373 0.443982 -0.265721
C103  C     C_3   0.195396 0.147033 0.556368 -0.264955
C104  C     C_3   0.240810 0.572352 0.430156 0.067021
C105  C     C_3   0.759128 0.571926 0.569746 0.066606
C106  C     C_3   0.740810 0.072352 0.430156 0.067021
C107  C     C_3   0.975294 0.218920 0.026660 -0.113466
C108  C     C_3   0.259128 0.071926 0.569746 0.066606
C109  C     C_3   0.252314 0.605860 0.567883 0.064171
C110  C     C_3   0.747643 0.606100 0.432085 0.063822
C111  C     C_3   0.752314 0.105860 0.567883 0.064171
C112  C     C_3   0.247643 0.106100 0.432085 0.063821
C113  C     C_3   0.246828 0.473552 0.554575 -0.265145
C114  C     C_3   0.753138 0.473721 0.444656 -0.264053
C115  C     C_3   0.746828 0.973552 0.554575 -0.265145
C116  C     C_3   0.253137 0.973721 0.444656 -0.264053
C117  C     C_R   0.271688 0.674333 0.861140 0.539563
C118  C     C_3   0.310641 0.520735 0.043624 -0.238112
C119  C     C_R   0.728242 0.674692 0.138889 0.545062
C120  C     C_R   0.771688 0.174331 0.861140 0.539564
C121  C     C_R   0.228242 0.174692 0.138889 0.545060
C122  C     C_3   0.316710 0.648263 0.525899 -0.215287
C123  C     C_3   0.683278 0.648441 0.474429 -0.215478
C124  C     C_3   0.816710 0.148263 0.525899 -0.215287
C125  C     C_3   0.183278 0.148441 0.474429 -0.215478
C126  C     C_R   0.272926 0.042908 0.645707 0.537241
C127  C     C_R   0.727129 0.043321 0.354181 0.536443
C128  C     C_R   0.772926 0.542908 0.645707 0.537241
Cr1   Cr    Cr6+3 0.229620 0.836040 0.749110 0.988637
Cr2   Cr    Cr6+3 0.613980 0.676590 0.250790 0.994936
Cr3   Cr    Cr6+3 0.886020 0.176590 0.749210 0.995131
Cr4   Cr    Cr6+3 0.113980 0.176590 0.250790 0.994937
Cr5   Cr    Cr6+3 0.770380 0.836040 0.250890 0.989236
Cr6   Cr    Cr6+3 0.729620 0.336040 0.749110 0.988637
Cr7   Cr    Cr6+3 0.270380 0.336040 0.250890 0.989235
Cr8   Cr    Cr6+3 0.387630 0.990680 0.750730 0.984249
Cr9   Cr    Cr6+3 0.612370 0.990680 0.249270 0.988110
Cr10  Cr    Cr6+3 0.887630 0.490680 0.750730 0.984249
Cr11  Cr    Cr6+3 0.112370 0.490680 0.249270 0.988109
Cr12  Cr    Cr6+3 0.386020 0.676590 0.749210 0.995131
H1    H     H_    0.215090 0.762980 0.095721 0.133353
H2    H     H_    0.841793 0.700604 0.060795 0.151512
H3    H     H_    0.144578 0.025473 0.059570 0.139547
H4    H     H_    0.328308 0.477324 0.932028 0.118503
H5    H     H_    0.723879 0.447026 0.066517 0.126895
H6    H     H_    0.828309 0.977325 0.932028 0.118502
H7    H     H_    0.223875 0.947026 0.066517 0.126892
H8    H     H_    0.669483 0.967624 0.032331 0.119854
H9    H     H_    0.339886 0.979749 0.977889 0.126405
H10   H     H_    0.169482 0.467623 0.032328 0.119852
H11   H     H_    0.839886 0.479749 0.977890 0.126402
H12   H     H_    0.709681 0.971742 0.923328 0.111244
H13   H     H_    0.654997 0.092632 0.910858 0.150082
H14   H     H_    0.334554 0.051872 0.090494 0.115321
H15   H     H_    0.209681 0.471744 0.923326 0.111244
H16   H     H_    0.834555 0.551874 0.090494 0.115323
H17   H     H_    0.381608 0.792634 0.958629 0.104353
H18   H     H_    0.606056 0.844813 0.051938 0.097231
H19   H     H_    0.881607 0.292638 0.958629 0.104354
H20   H     H_    0.106055 0.344811 0.051939 0.097231
H21   H     H_    0.326493 0.857580 0.101860 0.121294
H22   H     H_    0.311044 0.751385 0.169922 0.136283
H23   H     H_    0.367407 0.718760 0.099432 0.149333
H24   H     H_    0.341793 0.200602 0.060796 0.151512
H25   H     H_    0.710917 0.789614 0.827281 0.140547
H26   H     H_    0.653338 0.677056 0.853829 0.143098
H27   H     H_    0.648025 0.818689 0.894097 0.130893
H28   H     H_    0.826515 0.357573 0.101823 0.121298
H29   H     H_    0.811031 0.251459 0.169918 0.136271
H30   H     H_    0.867406 0.218732 0.099460 0.149322
H31   H     H_    0.210918 0.289618 0.827282 0.140546
H32   H     H_    0.153339 0.177058 0.853828 0.143099
H33   H     H_    0.148025 0.318688 0.894098 0.130893
H34   H     H_    0.200328 0.769437 0.979321 0.123918
H35   H     H_    0.547590 0.647033 0.447265 0.135787
H36   H     H_    0.725935 0.818590 0.030892 0.084564
H37   H     H_    0.700328 0.269435 0.979320 0.123918
H38   H     H_    0.225938 0.318592 0.030892 0.084567
H39   H     H_    0.575751 0.071668 0.067618 0.175029
H40   H     H_    0.618419 0.205624 0.072654 0.138351
H41   H     H_    0.586672 0.161299 0.989786 0.094883
H42   H     H_    0.423796 0.080740 0.912435 0.193282
H43   H     H_    0.386214 0.222741 0.925486 0.134134
H44   H     H_    0.432258 0.150995 0.995254 0.094444
H45   H     H_    0.075751 0.571666 0.067619 0.175031
H46   H     H_    0.452441 0.646986 0.552050 0.135111
H47   H     H_    0.118418 0.705623 0.072653 0.138349
H48   H     H_    0.086670 0.661296 0.989785 0.094883
H49   H     H_    0.923797 0.580740 0.912436 0.193281
H50   H     H_    0.886214 0.722741 0.925484 0.134135
H51   H     H_    0.932258 0.650999 0.995254 0.094444
H52   H     H_    0.296717 0.737485 0.423418 0.107995
H53   H     H_    0.703185 0.737021 0.577592 0.107902
H54   H     H_    0.796717 0.237485 0.423418 0.107995
H55   H     H_    0.203185 0.237021 0.577592 0.107902
H56   H     H_    0.047590 0.147034 0.447265 0.135787
H57   H     H_    0.952441 0.146986 0.552050 0.135111
H58   H     H_    0.459705 0.657956 0.434144 0.115527
H59   H     H_    0.540355 0.657661 0.565211 0.115400
H60   H     H_    0.959705 0.157956 0.434144 0.115528
H61   H     H_    0.782362 0.775958 0.924774 0.140451
H62   H     H_    0.040355 0.157661 0.565211 0.115400
H63   H     H_    0.616625 0.894541 0.456877 0.111484
H64   H     H_    0.383394 0.894171 0.543590 0.111673
H65   H     H_    0.116625 0.394541 0.456877 0.111484
H66   H     H_    0.883395 0.394171 0.543590 0.111673
H67   H     H_    0.600491 0.831037 0.578290 0.108102
H68   H     H_    0.399613 0.831394 0.421780 0.107891
H69   H     H_    0.100491 0.331037 0.578290 0.108102
H70   H     H_    0.899613 0.331394 0.421781 0.107891
H71   H     H_    0.432948 0.979961 0.061484 0.104010
H72   H     H_    0.715091 0.262982 0.095718 0.133345
H73   H     H_    0.533332 0.007338 0.947981 0.103384
H74   H     H_    0.932951 0.479968 0.061483 0.104007
H75   H     H_    0.033334 0.507333 0.947980 0.103386
H76   H     H_    0.438384 0.973210 0.415490 0.110332
H77   H     H_    0.561699 0.972813 0.585549 0.110687
H78   H     H_    0.938384 0.473210 0.415490 0.110332
H79   H     H_    0.061699 0.472813 0.585549 0.110687
H80   H     H_    0.448916 0.996917 0.536271 0.118672
H81   H     H_    0.551102 0.997258 0.464965 0.117858
H82   H     H_    0.948916 0.496917 0.536271 0.118672
H83   H     H_    0.282363 0.275958 0.924773 0.140451
H84   H     H_    0.051102 0.497258 0.464965 0.117858
H85   H     H_    0.129877 0.608128 0.444940 0.137507
H86   H     H_    0.870005 0.608060 0.555055 0.137124
H87   H     H_    0.629877 0.108128 0.444940 0.137507
H88   H     H_    0.370005 0.108060 0.555055 0.137124
H89   H     H_    0.178804 0.734012 0.433242 0.115278
H90   H     H_    0.820975 0.733702 0.567451 0.115544
H91   H     H_    0.678804 0.234012 0.433242 0.115278
H92   H     H_    0.320975 0.233702 0.567451 0.115544
H93   H     H_    0.179426 0.752953 0.550833 0.135492
H94   H     H_    0.282967 0.823389 0.974248 0.083933
H95   H     H_    0.820457 0.752894 0.449892 0.134531
H96   H     H_    0.679426 0.252953 0.550833 0.135492
H97   H     H_    0.320457 0.252894 0.449892 0.134531
H98   H     H_    0.139694 0.617422 0.562966 0.115726
H99   H     H_    0.860196 0.617440 0.437025 0.115858
H100  H     H_    0.639694 0.117422 0.562966 0.115726
H101  H     H_    0.360196 0.117440 0.437025 0.115858
H102  H     H_    0.721790 0.882595 0.452815 0.112654
H103  H     H_    0.278206 0.882297 0.545756 0.112072
H104  H     H_    0.221790 0.382595 0.452815 0.112654
H105  H     H_    0.659355 0.718978 0.005915 0.140730
H106  H     H_    0.778206 0.382297 0.545756 0.112072
H107  H     H_    0.697616 0.939380 0.574211 0.109254
H108  H     H_    0.302355 0.939572 0.424787 0.109120
H109  H     H_    0.197616 0.439380 0.574211 0.109254
H110  H     H_    0.802355 0.439572 0.424787 0.109120
H111  H     H_    0.349289 0.609046 0.416320 0.108683
H112  H     H_    0.650652 0.608569 0.583746 0.108966
H113  H     H_    0.849289 0.109046 0.416320 0.108683
H114  H     H_    0.150652 0.108569 0.583746 0.108966
H115  H     H_    0.560333 0.664171 0.946524 0.103899
H116  H     H_    0.782965 0.323389 0.974244 0.083927
H117  H     H_    0.460701 0.632388 0.048678 0.102797
H118  H     H_    0.060330 0.164166 0.946527 0.103898
H119  H     H_    0.960696 0.132391 0.048681 0.102796
H120  H     H_    0.337338 0.730937 0.545569 0.112799
H121  H     H_    0.662730 0.731339 0.455457 0.112479
H122  H     H_    0.837338 0.230937 0.545569 0.112799
H123  H     H_    0.162730 0.231339 0.455457 0.112479
H124  H     H_    0.356857 0.581905 0.536946 0.120254
H125  H     H_    0.643112 0.582270 0.462946 0.120415
H126  H     H_    0.856857 0.081905 0.536946 0.120254
H127  H     H_    0.159356 0.218982 0.005914 0.140729
H128  H     H_    0.143112 0.082270 0.462946 0.120415
H129  H     H_    0.306241 0.429392 0.463167 0.118758
H130  H     H_    0.693732 0.429048 0.535744 0.118053
H131  H     H_    0.806241 0.929392 0.463167 0.118758
H132  H     H_    0.193733 0.929048 0.535744 0.118053
H133  H     H_    0.288770 0.426208 0.583338 0.109585
H134  H     H_    0.711222 0.426476 0.415594 0.110133
H135  H     H_    0.788770 0.926208 0.583338 0.109585
H136  H     H_    0.211222 0.926476 0.415594 0.110133
H137  H     H_    0.307802 0.424702 0.046301 0.114237
H138  H     H_    0.154997 0.592636 0.910858 0.150083
H139  H     H_    0.695310 0.425966 0.938087 0.129454
H140  H     H_    0.807798 0.924701 0.046298 0.114235
H141  H     H_    0.195310 0.925966 0.938087 0.129454
H142  H     H_    0.356483 0.538186 0.077626 0.117771
H143  H     H_    0.649315 0.546908 0.938933 0.114157
H144  H     H_    0.856484 0.038176 0.077625 0.117765
H145  H     H_    0.149315 0.046909 0.938931 0.114158
H146  H     H_    0.373683 0.601673 0.961435 0.135812
H147  H     H_    0.644580 0.525468 0.059572 0.139547
H148  H     H_    0.873683 0.101676 0.961436 0.135816
O1    O     O_R   0.214130 0.708570 0.829890 -0.531914
O2    O     O_R   0.542830 0.717300 0.331620 -0.535501
O3    O     O_R   0.957170 0.217300 0.668380 -0.534163
O4    O     O_R   0.042830 0.217300 0.331620 -0.535501
O5    O     O_R   0.320870 0.624890 0.673130 -0.509123
O6    O     O_R   0.679130 0.624890 0.326870 -0.509202
O7    O     O_R   0.820870 0.124890 0.673130 -0.509123
O8    O     O_R   0.179130 0.124890 0.326870 -0.509201
O9    O     O_3   0.334430 0.834430 0.749680 -0.282662
O10   O     O_3   0.665570 0.834430 0.250320 -0.282249
O11   O     O_3   0.834430 0.334430 0.749680 -0.282661
O12   O     O_R   0.785870 0.708570 0.170110 -0.533462
O13   O     O_3   0.165570 0.334430 0.250320 -0.282249
O14   O     O_R   0.236050 0.959150 0.825270 -0.528827
O15   O     O_R   0.763950 0.959150 0.174730 -0.524478
O16   O     O_R   0.736050 0.459150 0.825270 -0.528826
O17   O     O_R   0.263950 0.459150 0.174730 -0.524480
O18   O     O_R   0.332100 0.076650 0.832310 -0.531158
O19   O     O_R   0.667900 0.076650 0.167690 -0.530303
O20   O     O_R   0.832100 0.576650 0.832310 -0.531158
O21   O     O_R   0.167900 0.576650 0.167690 -0.530303
O22   O     O_R   0.446500 0.918620 0.826240 -0.521811
O23   O     O_R   0.714130 0.208570 0.829890 -0.531914
O24   O     O_R   0.553500 0.918620 0.173760 -0.514067
O25   O     O_R   0.946500 0.418620 0.826240 -0.521810
O26   O     O_R   0.053500 0.418620 0.173760 -0.514068
O27   O     O_R   0.457310 0.715830 0.831280 -0.525598
O28   O     O_R   0.542690 0.715830 0.168720 -0.526328
O29   O     O_R   0.957310 0.215830 0.831280 -0.525598
O30   O     O_R   0.042690 0.215830 0.168720 -0.526329
O31   O     O_R   0.321000 0.623520 0.824130 -0.505506
O32   O     O_R   0.679000 0.623520 0.175870 -0.502684
O33   O     O_R   0.821000 0.123520 0.824130 -0.505507
O34   O     O_R   0.285870 0.208570 0.170110 -0.533462
O35   O     O_R   0.179000 0.123520 0.175870 -0.502683
O36   O     O_R   0.213990 0.710040 0.667000 -0.531312
O37   O     O_R   0.786010 0.710040 0.333000 -0.531212
O38   O     O_R   0.713990 0.210040 0.667000 -0.531312
O39   O     O_R   0.286010 0.210040 0.333000 -0.531212
O40   O     O_R   0.235920 0.960520 0.674260 -0.512050
O41   O     O_R   0.764080 0.960520 0.325740 -0.512883
O42   O     O_R   0.735920 0.460520 0.674260 -0.512050
O43   O     O_R   0.264080 0.460520 0.325740 -0.512883
O44   O     O_R   0.331960 0.078120 0.669410 -0.534055
O45   O     O_R   0.446360 0.919990 0.675230 -0.509867
O46   O     O_R   0.668040 0.078120 0.330590 -0.533871
O47   O     O_R   0.831960 0.578120 0.669410 -0.534055
O48   O     O_R   0.168040 0.578120 0.330590 -0.533870
O49   O     O_R   0.553640 0.919990 0.324770 -0.510403
O50   O     O_R   0.946360 0.419990 0.675230 -0.509867
O51   O     O_R   0.053640 0.419990 0.324770 -0.510403
O52   O     O_R   0.457170 0.717300 0.668380 -0.534163

loop_
_geom_bond_atom_site_label_1
_geom_bond_atom_site_label_2
_ccdc_geom_bond_type
C88   H90   S    
C92   H99   S    
C31   C42   S    
C87   C91   S    
C35   C53   S    
C60   H34   S    
C81   H69   S    
C69   O22   A    
C41   O15   A    
C76   H84   S    
C17   C85   S    
C10   O38   A    
C14   C21   S    
C90   H88   S    
C128  O47   A    
C118  H142  S    
C55   C59   S    
C15   H74   S    
C97   H130  S    
C8    O5    A    
C93   H100  S    
C26   H23   S    
C100  C104  S    
C33   H49   S    
C35   H5    S    
C116  H136  S    
C59   H24   S    
Cr9   O49   S    
C89   C106  S    
C52   O20   A    
C63   O21   A    
C119  O12   A    
C81   C86   S    
C97   C105  S    
C111  C124  S    
C65   H35   S    
C101  C105  S    
C127  O41   A    
C102  H54   S    
C41   C49   S    
C58   H12   S    
Cr1   O14   S    
C45   H72   S    
C40   C58   S    
C68   H62   S    
Cr1   O36   S    
C67   H60   S    
C117  O1    A    
C99   C116  S    
C117  O31   A    
C87   H89   S    
C106  C127  S    
C17   C21   S    
Cr4   O8    S    
C14   H73   S    
C16   H75   S    
C19   C23   S    
C58   H13   S    
C110  C123  S    
Cr11  O26   S    
C7    O4    A    
C78   C82   S    
C16   C20   S    
C10   C111  S    
C37   H7    S    
C112  C125  S    
C71   O25   A    
C72   O30   A    
Cr4   O13   S    
C66   H46   S    
C120  O23   A    
C35   H147  S    
C101  H112  S    
C36   H148  S    
C25   C107  S    
C80   H70   S    
C9    C110  S    
C11   C112  S    
C64   H127  S    
C13   H144  S    
Cr3   O3    S    
C98   H131  S    
Cr2   O6    S    
C26   H21   S    
C98   C106  S    
C73   H81   S    
C33   H51   S    
C102  H113  S    
C5    C82   S    
C65   C82   S    
C79   H67   S    
Cr1   O9    S    
C98   H102  S    
C28   H28   S    
Cr8   O18   S    
C48   C52   S    
C24   H141  S    
Cr11  O48   S    
C103  H114  S    
C30   H40   S    
C85   H117  S    
C43   C47   S    
C44   C48   S    
C34   C118  S    
C55   C121  S    
C5    O49   A    
C99   H132  S    
Cr7   O34   S    
C99   C108  S    
C73   H63   S    
C34   C51   S    
C32   H45   S    
Cr2   O10   S    
C8    O36   A    
Cr5   O41   S    
C15   C25   S    
C40   C49   S    
C12   C22   S    
C45   C62   S    
C113  H109  S    
C107  H119  S    
C22   C85   S    
C53   C61   S    
C27   C44   S    
C88   H86   S    
C6    O3    A    
Cr5   O10   S    
C17   H17   S    
C110  C114  S    
Cr10  O20   S    
C20   C96   S    
C4    O45   A    
C27   H25   S    
C90   H92   S    
C100  H52   S    
C93   H96   S    
C24   C50   S    
C57   H16   S    
Cr2   O28   S    
C30   C40   S    
Cr4   O30   S    
Cr8   O44   S    
C113  H133  S    
Cr12  O5    S    
Cr5   O37   S    
Cr12  O27   S    
C21   C69   S    
C68   H57   S    
C6    O50   A    
C94   H97   S    
C24   C37   S    
C73   C79   S    
C29   H31   S    
C42   C50   S    
C16   C23   S    
C20   H20   S    
C1    O14   A    
Cr1   O40   S    
C67   H56   S    
C112  C116  S    
Cr8   O9    S    
C32   H47   S    
C126  O44   A    
C18   C22   S    
C12   H71   S    
C12   C14   S    
C42   C59   S    
Cr12  O9    S    
C44   C61   S    
C95   H104  S    
C6    C86   S    
C108  C126  S    
C90   C108  S    
Cr9   O24   S    
C71   O29   A    
C88   C105  S    
C72   O26   A    
C98   C115  S    
C34   H146  S    
C94   C112  S    
C51   C117  S    
Cr5   O12   S    
C74   C85   S    
C89   C93   S    
Cr8   O45   S    
C103  C125  S    
C78   H68   S    
Cr11  O13   S    
C36   C54   S    
C65   H58   S    
C37   C55   S    
C77   H82   S    
C38   C56   S    
C96   H118  S    
C51   C60   S    
C97   C114  S    
C22   C70   S    
C13   H140  S    
C19   C107  S    
C2    C35   S    
Cr10  O47   S    
C31   H44   S    
C69   O27   A    
C70   O28   A    
C80   C84   S    
C100  H111  S    
C5    O2    A    
C76   C84   S    
C62   H37   S    
C15   C19   S    
C34   H4    S    
C94   H101  S    
C47   C63   S    
C20   C25   S    
Cr8   O22   S    
C81   H79   S    
C119  O32   A    
C42   H9    S    
C14   C18   S    
C66   C83   S    
C121  O35   A    
C47   C118  S    
C116  H108  S    
C4    O52   A    
C12   C17   S    
C1    C50   S    
C74   H115  S    
Cr9   O19   S    
Cr6   O23   S    
Cr11  O51   S    
C128  O42   A    
Cr5   O15   S    
Cr3   O11   S    
C61   H36   S    
C103  H55   S    
C102  C124  S    
C70   O24   A    
C59   H14   S    
C101  H53   S    
C90   C94   S    
C115  H107  S    
C40   H8    S    
C67   C68   S    
C23   C71   S    
C60   H94   S    
C97   H106  S    
C53   C57   S    
C54   C62   S    
C2    C48   S    
C26   H22   S    
C46   H83   S    
C33   H50   S    
C18   H18   S    
C64   H38   S    
C120  O33   A    
Cr11  O21   S    
C45   C49   S    
C125  H123  S    
C101  C123  S    
C93   C111  S    
C57   H2    S    
C122  H120  S    
C96   C107  S    
Cr2   O32   S    
Cr6   O42   S    
Cr3   O29   S    
C31   H42   S    
C30   H41   S    
C43   H1    S    
C73   C82   S    
Cr10  O25   S    
C76   H65   S    
C114  H134  S    
C77   C80   S    
Cr12  O31   S    
C91   H93   S    
C37   H3    S    
C118  H137  S    
C3    O43   A    
C92   H95   S    
C29   C46   S    
C19   H19   S    
C77   H66   S    
C79   C83   S    
C75   C83   S    
C4    C83   S    
C75   H80   S    
C91   H98   S    
Cr6   O11   S    
C99   H103  S    
C39   H11   S    
C79   H77   S    
C27   H26   S    
C87   C104  S    
C28   H29   S    
C126  O40   A    
Cr6   O38   S    
Cr10  O11   S    
C39   C48   S    
C114  H110  S    
C3    C104  S    
Cr4   O35   S    
C54   C120  S    
C68   C86   S    
C52   O16   A    
C63   O17   A    
C92   C110  S    
C62   H116  S    
C33   C39   S    
C123  H121  S    
Cr9   O46   S    
C80   H78   S    
C109  C122  S    
C61   H105  S    
C15   C16   S    
C39   C57   S    
C23   C96   S    
C51   C56   S    
C88   C92   S    
C87   H85   S    
C30   H39   S    
Cr4   O4    S    
C103  C108  S    
C32   C38   S    
C66   H59   S    
C109  C113  S    
C7    C84   S    
Cr1   O1    S    
C67   C84   S    
C18   C74   S    
Cr9   O10   S    
Cr6   O16   S    
C89   H87   S    
C56   H15   S    
Cr7   O13   S    
C9    O6    A    
C26   C43   S    
C95   H129  S    
Cr7   O39   S    
C11   O8    A    
C28   C45   S    
C32   H48   S    
C56   H138  S    
Cr12  O52   S    
C13   C36   S    
C78   H76   S    
C2    H139  S    
C21   C74   S    
C41   O19   A    
C89   H91   S    
C46   C64   S    
C7    O51   A    
C123  H125  S    
C124  H122  S    
C55   C64   S    
Cr2   O2    S    
Cr3   O7    S    
C25   C72   S    
C38   C47   S    
Cr3   O33   S    
C43   C60   S    
C13   C49   S    
C36   H6    S    
C9    O37   A    
C77   C86   S    
C125  H128  S    
C44   H61   S    
C11   O39   A    
C95   C104  S    
Cr7   O17   S    
C54   C58   S    
C28   H30   S    
C24   H145  S    
Cr7   O43   S    
C105  C128  S    
C31   H43   S    
Cr10  O50   S    
C29   H33   S    
C76   C81   S    
C75   H64   S    
C53   C119  S    
C2    H143  S    
C1    O18   A    
C46   C50   S    
C91   C109  S    
C8    C109  S    
C122  H124  S    
C95   C113  S    
C3    O48   A    
C124  H126  S    
C127  O46   A    
C102  C106  S    
C100  C122  S    
C29   H32   S    
C75   C78   S    
C115  H135  S    
C121  O34   A    
C65   C66   S    
C111  C115  S    
C38   H10   S    
C27   H27   S    
C10   O7    A    
