data_str_m2_o5_o29_f0_pcu.sym.24
_audit_creation_date              2013-03-05T16:36:13-0500
_audit_creation_method            fapswitch 2.2
_symmetry_space_group_name_H-M    P1
_symmetry_Int_Tables_number       1
_space_group_crystal_system       triclinic
_cell_length_a                    27.83406
_cell_length_b                    9.080057
_cell_length_c                    7.780287
_cell_angle_alpha                 90.034926
_cell_angle_beta                  89.999872
_cell_angle_gamma                 90.000126
_cell_volume                      1966.349313

loop_
_atom_site_label
_atom_site_type_symbol
_atom_site_description
_atom_site_fract_x
_atom_site_fract_y
_atom_site_fract_z
_atom_type_partial_charge
O1    O     O_R   0.500000 0.288390 0.642760 -0.575261
O2    O     O_R   0.500000 0.711610 0.357240 -0.575261
O3    O     O_R   0.500000 0.711610 0.642760 -0.574848
O4    O     O_R   0.500000 0.288390 0.357240 -0.574848
C1    C     C_R   0.500000 0.220022 0.499968 0.853117
C2    C     C_R   0.500000 0.779978 0.500032 0.853118
O5    O     O_R   0.430260 0.500000 0.642770 -0.585697
O6    O     O_R   0.569740 0.500000 0.357230 -0.585704
O7    O     O_R   0.569740 0.500000 0.642770 -0.585704
O8    O     O_R   0.430260 0.500000 0.357230 -0.585697
C3    C     C_R   0.407181 0.500000 0.500000 0.796680
C4    C     C_R   0.592820 0.500000 0.500000 0.796686
Cu1   Cu    Cu3+1 0.500000 0.500000 0.669080 1.007978
Cu2   Cu    Cu3+1 0.500000 0.500000 0.330920 1.007978
C5    C     C_R   0.178016 0.370856 0.527306 0.536934
C6    C     C_R   0.821976 0.629127 0.472612 0.536982
C7    C     C_R   0.178016 0.629145 0.472699 0.536934
C8    C     C_R   0.821976 0.370865 0.527384 0.536983
O9    O     O_2   0.202881 0.245177 0.553136 -0.516517
O10   O     O_2   0.797108 0.754780 0.446660 -0.516439
O11   O     O_2   0.202881 0.754826 0.446870 -0.516518
O12   O     O_2   0.797108 0.245211 0.553336 -0.516440
N1    N     N_R   0.202052 0.500001 0.500002 -0.472505
N2    N     N_R   0.797943 0.499996 0.499998 -0.472571
C9    C     C_R   0.278658 0.490424 0.655413 -0.099386
C10   C     C_R   0.721345 0.508306 0.344472 -0.099520
C11   C     C_R   0.278658 0.509578 0.344590 -0.099387
C12   C     C_R   0.721345 0.491687 0.655525 -0.099521
C13   C     C_R   0.328758 0.490741 0.655643 -0.206063
C14   C     C_R   0.671246 0.508004 0.344245 -0.205914
C15   C     C_R   0.328758 0.509260 0.344359 -0.206063
C16   C     C_R   0.671246 0.491992 0.655753 -0.205915
C17   C     C_R   0.253516 0.500001 0.500002 0.360343
C18   C     C_R   0.746484 0.499995 0.499998 0.360731
C19   C     C_R   0.101920 0.500000 0.500002 -0.043352
C20   C     C_R   0.898072 0.499997 0.499999 -0.043335
C21   C     C_R   0.127577 0.368406 0.527593 -0.020624
C22   C     C_R   0.872415 0.631581 0.472340 -0.020663
C23   C     C_R   0.127577 0.631594 0.472412 -0.020625
C24   C     C_R   0.872415 0.368412 0.527658 -0.020663
C25   C     C_R   0.102531 0.237410 0.554550 -0.145217
C26   C     C_R   0.897461 0.762566 0.445314 -0.145235
C27   C     C_R   0.102531 0.762589 0.445454 -0.145217
C28   C     C_R   0.897461 0.237428 0.554685 -0.145235
C29   C     C_R   0.354272 0.500000 0.500001 -0.037803
C30   C     C_R   0.645730 0.499999 0.499999 -0.037816
H1    H     H_    0.347456 0.516578 0.222558 0.160720
H2    H     H_    0.652550 0.485689 0.777648 0.160678
H3    H     H_    0.347455 0.483422 0.777443 0.160720
H4    H     H_    0.652550 0.514309 0.222351 0.160678
H5    H     H_    0.121422 0.134687 0.575919 0.187073
H6    H     H_    0.878570 0.865279 0.423878 0.187083
H7    H     H_    0.121421 0.865313 0.424085 0.187072
H8    H     H_    0.878570 0.134714 0.576120 0.187083
C31   C     C_R   0.974433 0.365846 0.527760 0.045044
C32   C     C_R   0.025558 0.634155 0.472270 0.045047
C33   C     C_R   0.974433 0.634151 0.472241 0.045044
C34   C     C_R   0.025558 0.365842 0.527733 0.045047
C35   C     C_R   0.949212 0.499998 0.500000 0.067296
C36   C     C_R   0.050780 0.499999 0.500002 0.067284
C37   C     C_R   0.947319 0.235782 0.554754 -0.208221
C38   C     C_R   0.052672 0.764233 0.445366 -0.208210
C39   C     C_R   0.947319 0.764214 0.445246 -0.208221
C40   C     C_R   0.052672 0.235765 0.554637 -0.208210
H9    H     H_    0.963248 0.129603 0.576794 0.132463
H10   H     H_    0.036743 0.870424 0.423410 0.132428
H11   H     H_    0.963248 0.870393 0.423208 0.132463
H12   H     H_    0.036744 0.129574 0.576591 0.132428
C41   C     C_1   0.500000 0.065394 0.499956 -0.166725
C42   C     C_1   0.500000 0.934605 0.500044 -0.166725
N3    N     N_1   0.500000 0.500000 0.076820 -0.049777
N4    N     N_1   0.500000 0.500000 0.923180 -0.049777
H13   H     H_    0.259317 0.516796 0.224084 0.136949
H14   H     H_    0.740689 0.485459 0.776113 0.136708
H15   H     H_    0.259317 0.483206 0.775919 0.136949
H16   H     H_    0.740689 0.514533 0.223883 0.136708

loop_
_geom_bond_atom_site_label_1
_geom_bond_atom_site_label_2
_geom_bond_distance
_ccdc_geom_bond_type
O5    Cu1   1.951911 S    
C31   C35   1.422529 A    
Cu2   N3    1.976970 S    
C20   C35   1.423439 A    
C12   H14   1.083233 S    
C13   H3    1.083222 S    
C11   C17   1.399812 A    
C5    O9    1.349799 S    
C7    N1    1.366790 A    
O1    C1    1.272309 A    
C40   H12   1.075028 S    
C19   C21   1.408585 A    
C22   C26   1.394656 A    
C33   C35   1.422529 A    
C34   C36   1.422528 A    
O7    Cu1   1.951907 S    
C32   C33   1.423022 A    
C7    C23   1.404095 A    
C8    C24   1.404092 A    
C5    C21   1.404095 A    
C1    C41   1.404025 S    
C27   H7    1.083654 S    
N1    C17   1.432430 S    
C10   H16   1.083235 S    
C8    N2    1.366736 A    
O3    Cu1   1.932436 S    
C6    O10   1.349790 S    
O3    C2    1.272537 A    
C5    N1    1.366790 A    
C14   H4    1.083304 S    
C12   C18   1.399859 A    
C6    N2    1.366738 A    
C15   H1    1.083222 S    
Cu1   Cu2   2.630983 S    
C21   C25   1.394663 A    
C16   H2    1.083306 S    
O2    C2    1.272309 A    
C10   C18   1.399857 A    
C33   C39   1.417282 A    
C9    C13   1.394482 A    
C39   H11   1.075026 S    
C38   H10   1.075027 S    
C11   C15   1.394482 A    
C12   C16   1.394482 A    
C4    C30   1.472697 S    
O8    Cu2   1.951910 S    
C23   C27   1.394666 A    
C34   C40   1.417282 A    
N2    C18   1.432318 S    
C32   C36   1.422529 A    
C13   C29   1.406384 A    
C19   C36   1.423445 A    
C9    H15   1.083153 S    
C19   C23   1.408585 A    
C37   H9    1.075027 S    
O5    C3    1.283170 A    
C20   C24   1.408595 A    
O6    C4    1.283180 A    
C10   C14   1.394482 A    
C32   C38   1.417281 A    
C3    C29   1.472656 S    
O1    Cu1   1.932189 S    
C2    C42   1.404025 S    
O6    Cu2   1.951908 S    
C8    O12   1.349789 S    
C16   C30   1.406512 A    
C14   C30   1.406515 A    
O4    C1    1.272537 A    
Cu1   N4    1.976970 S    
C28   C37   1.387845 A    
C20   C22   1.408596 A    
N3    N4    1.195364 T    
C31   C37   1.417283 A    
O4    Cu2   1.932437 S    
C41   C42   1.187571 T    
O2    Cu2   1.932188 S    
O7    C4    1.283179 A    
C7    O11   1.349799 S    
C9    C17   1.399811 A    
O8    C3    1.283169 A    
C28   H8    1.083653 S    
C24   C28   1.394656 A    
C15   C29   1.406384 A    
C31   C34   1.423022 A    
C26   H6    1.083652 S    
C25   C40   1.387842 A    
C11   H13   1.083152 S    
C26   C39   1.387845 A    
C25   H5    1.083654 S    
C27   C38   1.387842 A    
C6    C22   1.404089 A    
