data_str_m9_o2_o23_f0_sra.sym.242
_audit_creation_date              2013-03-05T16:03:02-0500
_audit_creation_method            fapswitch 2.2
_symmetry_space_group_name_H-M    P1
_symmetry_Int_Tables_number       1
_space_group_crystal_system       triclinic
_cell_length_a                    6.946981
_cell_length_b                    18.174274
_cell_length_c                    20.306069
_cell_angle_alpha                 68.442219
_cell_angle_beta                  90.87208
_cell_angle_gamma                 90.681817
_cell_volume                      2384.0967055

loop_
_atom_site_label
_atom_site_type_symbol
_atom_site_description
_atom_site_fract_x
_atom_site_fract_y
_atom_site_fract_z
_atom_type_partial_charge
O1    O     O_R   0.488990 0.443920 0.942160 -0.600449
O2    O     O_R   0.823840 0.406530 0.087600 -0.577813
O3    O     O_R   0.999650 0.556080 0.057840 -0.535069
C1    C     C_R   0.656313 0.384758 0.116063 1.004903
O4    O     O_R   0.818390 0.434590 0.944530 -0.608727
O5    O     O_R   0.994160 0.584350 0.913750 -0.580889
C2    C     C_R   0.648644 0.420334 0.924271 0.954983
O6    O     O_R   0.494480 0.415650 0.086250 -0.608004
O7    O     O_3   0.662600 0.549100 0.990070 -0.228270
V1    V     V_3+5 0.935320 0.490890 0.001840 1.244949
O8    O     O_R   0.324240 0.593470 0.912400 -0.591097
C3    C     C_R   0.154456 0.620084 0.887292 0.995053
O9    O     O_R   0.329690 0.565410 0.055470 -0.552262
C4    C     C_R   0.162915 0.575491 0.079201 1.112270
V2    V     V_3+5 0.435990 0.509110 0.998160 1.255885
O10   O     O_3   0.158840 0.450900 0.009930 -0.305306
C5    C     C_3   0.981316 0.672059 0.267131 -0.357287
C6    C     C_3   0.335824 0.700827 0.250978 -0.367255
C7    C     C_3   0.326427 0.749716 0.299775 -0.403510
H1    H     H_    0.995314 0.681124 0.371971 0.167885
H2    H     H_    0.009465 0.608917 0.299951 0.176542
H3    H     H_    0.453895 0.724314 0.212216 0.171811
H4    H     H_    0.371144 0.638253 0.283441 0.168705
H5    H     H_    0.357289 0.710419 0.355488 0.165624
H6    H     H_    0.440047 0.796464 0.284222 0.151258
C8    C     C_1   0.110326 0.873601 0.379219 -0.291641
C9    C     C_3   0.141565 0.704466 0.211138 0.330050
C10   C     C_3   0.971838 0.720982 0.315910 -0.403566
C11   C     C_3   0.125498 0.788110 0.294655 0.414931
C12   C     C_3   0.088112 0.841525 0.216129 -0.411925
C13   C     C_3   0.097464 0.792641 0.167331 -0.340056
C14   C     C_1   0.116750 0.835053 0.341361 -0.096324
C15   C     C_1   0.150361 0.657794 0.164263 -0.030212
C16   C     C_1   0.156774 0.620097 0.125716 -0.019322
H7    H     H_    0.957888 0.797379 0.138465 0.177698
H8    H     H_    0.210706 0.817953 0.126874 0.179287
H9    H     H_    0.944126 0.869568 0.210473 0.155408
H10   H     H_    0.839482 0.674385 0.240207 0.178123
H11   H     H_    0.825548 0.746660 0.312121 0.155790
H12   H     H_    0.196992 0.890089 0.198940 0.163178
H13   H     H_    0.052652 0.520113 0.698125 0.122566
C17   C     C_R   0.191588 0.790729 0.875710 0.343730
C18   C     C_R   0.217955 0.869052 0.869678 -0.121433
C19   C     C_R   0.199534 0.929971 0.805393 -0.090762
C20   C     C_R   0.157951 0.914648 0.744474 -0.037466
C21   C     C_R   0.146616 0.834598 0.746918 0.098006
C22   C     C_R   0.160667 0.770523 0.814576 -0.075454
C23   C     C_R   0.118468 0.817394 0.684314 -0.267080
C24   C     C_R   0.100096 0.738050 0.688700 0.108805
C25   C     C_R   0.112013 0.674579 0.755403 0.126582
C26   C     C_R   0.142654 0.689838 0.818576 -0.279008
C27   C     C_R   0.071019 0.720433 0.626786 -0.174241
C28   C     C_R   0.053688 0.642619 0.630475 -0.084753
C29   C     C_R   0.065609 0.580573 0.695473 -0.099934
C30   C     C_R   0.094852 0.595942 0.757212 -0.185627
H14   H     H_    0.241974 0.883189 0.916574 0.174200
H15   H     H_    0.210815 0.990395 0.803111 0.196795
H16   H     H_    0.061472 0.766474 0.574739 0.090456
H17   H     H_    0.031373 0.630440 0.582569 0.124685
H18   H     H_    0.104400 0.545157 0.806167 0.111891
H19   H     H_    0.507294 0.472534 0.315738 0.156274
C31   C     C_R   0.718440 0.226460 0.123432 -0.174372
C32   C     C_R   0.741553 0.151080 0.122725 -0.103415
C33   C     C_R   0.719564 0.085549 0.184326 -0.154697
C34   C     C_R   0.675728 0.094027 0.248246 -0.013397
C35   C     C_R   0.657879 0.171319 0.251249 0.113404
C36   C     C_R   0.676337 0.238579 0.186717 0.101736
C37   C     C_R   0.615214 0.183481 0.315132 -0.282828
C38   C     C_R   0.579221 0.261178 0.312976 0.090579
C39   C     C_R   0.607909 0.328386 0.249411 -0.031019
C40   C     C_R   0.650286 0.316624 0.185423 -0.286312
C41   C     C_R   0.516193 0.273247 0.374261 -0.161304
C42   C     C_R   0.481084 0.348612 0.373341 -0.116113
C43   C     C_R   0.521139 0.414199 0.313472 -0.198834
C44   C     C_R   0.592841 0.405443 0.252801 0.320234
H20   H     H_    0.733568 0.275067 0.073270 0.099886
H21   H     H_    0.773929 0.143404 0.073656 0.132679
H22   H     H_    0.733831 0.027084 0.182370 0.115763
H23   H     H_    0.491021 0.224754 0.423732 0.129042
H24   H     H_    0.430454 0.356351 0.420482 0.200058
O11   O     O_R   0.770890 0.084490 0.414040 -0.585291
O12   O     O_R   0.445980 0.065450 0.555510 -0.596330
O13   O     O_R   0.270670 0.915620 0.586180 -0.588223
C45   C     C_R   0.615579 0.079768 0.575927 0.960890
O14   O     O_R   0.441480 0.093500 0.412450 -0.596907
O15   O     O_R   0.266140 0.943870 0.442100 -0.589967
C46   C     C_R   0.609174 0.116047 0.384685 0.965244
O16   O     O_R   0.775410 0.056240 0.558120 -0.582417
O17   O     O_3   0.602660 0.950990 0.510100 -0.273471
V3    V     V_3+5 0.329740 0.009100 0.498130 1.178668
O18   O     O_R   0.936120 0.934420 0.444240 -0.602128
C47   C     C_R   0.103765 0.920095 0.424069 0.966988
O19   O     O_R   0.940610 0.906370 0.587310 -0.589573
C48   C     C_R   0.109854 0.882223 0.613736 0.959094
V4    V     V_3+5 0.829110 0.990690 0.501470 1.178075
O20   O     O_3   0.106080 0.049010 0.489880 -0.265309
C49   C     C_3   0.840665 0.241554 0.714303 0.273355
C50   C     C_3   0.485812 0.274892 0.683728 0.151544
C51   C     C_3   0.481064 0.321779 0.734477 -0.503386
H25   H     H_    0.861594 0.357566 0.724762 0.171991
H26   H     H_    0.884775 0.279967 0.660097 0.133539
H27   H     H_    0.340951 0.247520 0.685593 0.144641
H28   H     H_    0.506091 0.386078 0.705086 0.212377
H29   H     H_    0.335372 0.316123 0.758051 0.162902
C52   C     C_1   0.638184 0.374242 0.879346 -0.290327
C53   C     C_3   0.636093 0.205851 0.710234 -0.150689
C54   C     C_3   0.833425 0.295036 0.759722 -0.509149
C55   C     C_3   0.633546 0.289448 0.794400 0.269715
C56   C     C_3   0.588294 0.200888 0.837201 -0.472274
C57   C     C_3   0.572541 0.152233 0.787268 0.212231
C58   C     C_1   0.633977 0.335985 0.841327 0.002621
C59   C     C_1   0.631930 0.161576 0.661105 0.172010
C60   C     C_1   0.626007 0.124870 0.621745 -0.205820
H30   H     H_    0.417843 0.137115 0.784531 0.129227
H31   H     H_    0.702260 0.178133 0.878433 0.227033
H32   H     H_    0.948299 0.280457 0.801062 0.201976
H33   H     H_    0.450062 0.195573 0.865657 0.175602
N1    N     N_R   0.179136 0.734659 0.945863 0.185307
O21   O     O_R   0.324264 0.729409 0.988589 -0.428430
O22   O     O_R   0.007856 0.716160 0.972140 -0.428690
N2    N     N_3   0.119019 0.981786 0.681385 -0.182623
H34   H     H_    0.996233 0.009665 0.689838 0.189540
H35   H     H_    0.234938 0.021344 0.672424 0.160531
N3    N     N_3   0.641722 0.023159 0.308428 -0.200265
H36   H     H_    0.525609 0.992876 0.296485 0.103025
H37   H     H_    0.763158 0.987336 0.316623 0.117998
N4    N     N_R   0.678350 0.473849 0.201014 0.212917
O23   O     O_R   0.863939 0.474875 0.193424 -0.448347
O24   O     O_R   0.586323 0.540637 0.178741 -0.435593
N5    N     N_R   0.517200 0.327894 0.610036 0.247464
O25   O     O_R   0.655377 0.380289 0.593595 -0.419245
O26   O     O_R   0.394410 0.327614 0.561114 -0.412421
N6    N     N_R   0.674650 0.075920 0.815481 0.275100
O27   O     O_R   0.762242 0.052569 0.876776 -0.350031
O28   O     O_R   0.647540 0.024403 0.785523 -0.419933
N7    N     N_R   0.986972 0.179309 0.740310 0.236283
O29   O     O_R   0.057367 0.157011 0.804387 -0.418040
O30   O     O_R   0.054696 0.148025 0.697309 -0.467676

loop_
_geom_bond_atom_site_label_1
_geom_bond_atom_site_label_2
_geom_bond_distance
_ccdc_geom_bond_type
C35   C37   1.429482 A    
C8    C14   1.217092 T    
C45   C60   1.449057 S    
C42   C43   1.383372 A    
O2    C1    1.298664 A    
V4    O20   2.159383 S    
C1    O6    1.300067 A    
C28   H17   1.082665 S    
C56   H33   1.113127 S    
V1    O10   1.702268 S    
C53   C59   1.494022 S    
C20   C21   1.438616 A    
C9    C15   1.491855 S    
C51   C55   1.548578 S    
C31   C32   1.386562 A    
C23   C48   1.484554 S    
C31   C36   1.416492 A    
C10   C11   1.552505 S    
C41   H23   1.080513 S    
C53   C57   1.575427 S    
C12   C13   1.557463 S    
O11   V4    1.998014 S    
C8    C47   1.453710 S    
V2    O10   2.159408 S    
C50   C51   1.560847 S    
C55   C56   1.553393 S    
C6    C7    1.557541 S    
C34   N3    1.432819 S    
N1    O21   1.301207 A    
C21   C22   1.440852 A    
O8    V2    2.002761 S    
C37   C38   1.421630 A    
C54   C55   1.551805 S    
C2    C52   1.448219 S    
C39   C40   1.427556 A    
O1    V2    1.961011 S    
O7    V1    2.147992 S    
C57   H30   1.111712 S    
C44   N4    1.430037 S    
C5    H10   1.113178 S    
C35   C36   1.432512 A    
C52   C58   1.213907 T    
O16   V4    1.977985 S    
O19   V4    2.002715 S    
C6    H3    1.113080 S    
O9    C4    1.301926 A    
C31   H20   1.081093 S    
C59   C60   1.214768 T    
C25   C26   1.421085 A    
O14   C46   1.296841 A    
H13   C29   1.082925 S    
C21   C23   1.426565 A    
C43   C44   1.398510 A    
C6    C9    1.552280 S    
C9    C13   1.552109 S    
C6    H4    1.113041 S    
C5    C9    1.552345 S    
N7    O30   1.300309 A    
C51   H28   1.112562 S    
O15   V3    1.964321 S    
O18   C47   1.300768 A    
O4    C2    1.297386 A    
C17   N1    1.417759 S    
C22   C26   1.442568 A    
H1    C10   1.112841 S    
C10   H11   1.113131 S    
C20   N2    1.432399 S    
C28   C29   1.387655 A    
O13   C48   1.297275 A    
C5    H2    1.112929 S    
C12   H9    1.113139 S    
O17   V4    1.707204 S    
C38   C41   1.417034 A    
N5    O26   1.300910 A    
C18   C19   1.371988 A    
N4    O24   1.301103 A    
O5    V1    2.006193 S    
C11   C12   1.551879 S    
C19   H15   1.083942 S    
O14   V3    2.008486 S    
C24   C27   1.417904 A    
C50   N5    1.469792 S    
C15   C16   1.216514 T    
C12   H12   1.112976 S    
O19   C48   1.297269 A    
N2    H34   1.045198 S    
O11   C46   1.300031 A    
O3    C4    1.298829 A    
C27   H16   1.082053 S    
C49   C53   1.568893 S    
C23   C24   1.416069 A    
C34   C35   1.435146 A    
O6    V2    2.002848 S    
O12   C45   1.298029 A    
O9    V2    1.966160 S    
N6    O27   1.301721 A    
C13   H7    1.113000 S    
C17   C18   1.393252 A    
N4    O23   1.299891 A    
O2    V1    2.008424 S    
C3    C26   1.503295 S    
C27   C28   1.392287 A    
N3    H37   1.045199 S    
C32   H21   1.082848 S    
O13   V3    2.006238 S    
C29   C30   1.392564 A    
H25   C54   1.113466 S    
C51   H29   1.113651 S    
O1    C2    1.297626 A    
C5    C10   1.557750 S    
C33   H22   1.083549 S    
C19   C20   1.389823 A    
C45   O16   1.297533 A    
C41   C42   1.387422 A    
O12   V3    1.971571 S    
C4    C16   1.454632 S    
O8    C3    1.303507 A    
V3    O20   1.702338 S    
H19   C43   1.083414 S    
C11   C14   1.492869 S    
C25   C30   1.419713 A    
C50   C53   1.572207 S    
C55   C58   1.488459 S    
C33   C34   1.400470 A    
N5    O25   1.301546 A    
O7    V2    1.710670 S    
O4    V1    1.971701 S    
O3    V1    1.964312 S    
C50   H27   1.112225 S    
C56   C57   1.573272 S    
O5    C3    1.301947 A    
C42   H24   1.081748 S    
C7    H5    1.112846 S    
C36   C40   1.422634 A    
C17   C22   1.430762 A    
C38   C39   1.428691 A    
C7    H6    1.113117 S    
N1    O22   1.300584 A    
C54   H32   1.110366 S    
N2    H35   1.045468 S    
C56   H31   1.109974 S    
O18   V4    1.966410 S    
C32   C33   1.383178 A    
C49   C54   1.568210 S    
C18   H14   1.083794 S    
C24   C25   1.422243 A    
C39   C44   1.432323 A    
N6    O28   1.301168 A    
C37   C46   1.492333 S    
C13   H8    1.112983 S    
N7    O29   1.301625 A    
C57   N6    1.477193 S    
O15   C47   1.298180 A    
C49   N7    1.470938 S    
O17   V3    2.148051 S    
C30   H18   1.081516 S    
C1    C40   1.495885 S    
C49   H26   1.110542 S    
N3    H36   1.045932 S    
C7    C11   1.552921 S    
