data_str_m2_o4_o5_f0_pcu.sym.213
_audit_creation_date              2012-12-10T19:08:08-0500
_audit_creation_method            fapswitch 2.2
_symmetry_space_group_name_H-M    P1
_symmetry_Int_Tables_number       1
_space_group_crystal_system       triclinic
_cell_length_a                    9.082122
_cell_length_b                    10.883723
_cell_length_c                    9.609961
_cell_angle_alpha                 90.135228
_cell_angle_beta                  90.395761
_cell_angle_gamma                 90.411311
_cell_volume                      949.86880396

loop_
_atom_site_label
_atom_site_type_symbol
_atom_type_description
_atom_site_fract_x
_atom_site_fract_y
_atom_site_fract_z
_atom_type_partial_charge
C1    C     C_R   0.492395 0.262761 0.498853 0.777517
C2    C     C_R   0.447563 0.932373 0.380836 -0.267885
C3    C     C_R   0.494617 0.870803 0.500277 -0.114632
C4    C     C_R   0.536399 0.939263 0.616983 0.055474
C5    C     C_3   0.474415 0.931258 0.759871 -0.480637
C6    C     C_3   0.450956 0.069071 0.755189 -0.014584
C7    C     C_R   0.622799 0.533279 0.072833 0.218981
C8    C     C_R   0.382902 0.456087 0.073372 -0.092538
C9    C     C_R   0.382452 0.456930 0.925034 -0.104298
C10   C     C_R   0.626124 0.525432 0.926446 0.220144
C11   C     C_3   0.720247 0.636679 0.911421 0.208499
C12   C     C_R   0.220873 0.500048 0.499705 0.826004
C13   C     C_3   0.705768 0.653941 0.068645 -0.182334
C14   C     C_R   0.497612 0.737380 0.500438 0.792889
C15   C     C_R   0.779124 0.500281 0.500333 0.846914
C16   C     C_1   0.065584 0.500279 0.499669 -0.197454
C17   C     C_1   0.934420 0.500375 0.500505 -0.171074
C18   C     C_R   0.523755 0.065922 0.615668 0.028834
C19   C     C_R   0.485105 0.129160 0.495088 -0.143071
C20   C     C_R   0.446471 0.060489 0.373772 0.149275
Cu1   Cu    Cu3+1 0.499990 0.499980 0.640670 0.935322
Cu2   Cu    Cu3+1 0.500010 0.500020 0.359330 0.927713
H1    H     H_    0.668608 0.706787 0.842790 0.114854
H2    H     H_    0.813179 0.648768 0.124693 0.162641
H3    H     H_    0.405553 0.880193 0.294224 0.174970
H4    H     H_    0.372337 0.874805 0.763495 0.207404
H5    H     H_    0.561111 0.905526 0.835620 0.174813
H6    H     H_    0.517519 0.121175 0.832927 0.164609
H7    H     H_    0.287111 0.421797 0.127372 0.146537
H8    H     H_    0.286150 0.423390 0.869848 0.160940
N1    N     N_R   0.500920 0.500930 0.147930 -0.176468
N2    N     N_R   0.500930 0.500890 0.852020 -0.219133
O1    O     O_R   0.500000 0.319640 0.618810 -0.584769
O2    O     O_R   0.500020 0.319680 0.381230 -0.572685
O3    O     O_R   0.288380 0.499980 0.618770 -0.595494
O4    O     O_R   0.288400 0.500020 0.381190 -0.590093
O5    O     O_R   0.499980 0.680320 0.618770 -0.591995
O6    O     O_R   0.500000 0.680360 0.381190 -0.585651
O7    O     O_R   0.711600 0.499980 0.618810 -0.545460
O8    O     O_R   0.711620 0.500020 0.381230 -0.586984
C21   C     C_3   0.396623 0.117073 0.237655 -0.370445
C22   C     C_3   0.528445 0.143964 0.143924 -0.778308
H9    H     H_    0.494815 0.205940 0.058337 0.228837
H10   H     H_    0.619974 0.188949 0.202223 0.265048
H11   H     H_    0.570139 0.057203 0.098566 0.228845
H12   H     H_    0.320902 0.053192 0.181450 0.177775
H13   H     H_    0.329512 0.200347 0.255040 0.203869
C23   C     C_3   0.621092 0.772867 0.101857 -0.384284
C24   C     C_3   0.457756 0.771968 0.058004 -0.834439
H14   H     H_    0.441250 0.732532 0.952828 0.248328
H15   H     H_    0.390089 0.718531 0.132111 0.276414
H16   H     H_    0.415723 0.867273 0.055696 0.226784
H17   H     H_    0.633387 0.794277 0.213555 0.239004
H18   H     H_    0.677333 0.850070 0.048105 0.166744
C25   C     C_3   0.286712 0.105403 0.747818 -0.334066
C26   C     C_3   0.211685 0.094318 0.888664 -0.889499
H19   H     H_    0.257365 0.163972 0.961694 0.253624
H20   H     H_    0.091980 0.111525 0.876105 0.242307
H21   H     H_    0.226308 0.000986 0.932645 0.253610
H22   H     H_    0.276832 0.202101 0.712874 0.210506
H23   H     H_    0.226648 0.046709 0.670931 0.203740
O9    O     O_3   0.864966 0.605062 0.873813 -0.564093
C27   C     C_3   0.947422 0.713642 0.850464 0.063971
H24   H     H_    0.916574 0.790657 0.921212 0.120693
H25   H     H_    0.931532 0.743687 0.740882 0.149640
C28   C     C_3   0.109251 0.687713 0.875722 -0.787088
H26   H     H_    0.146993 0.616311 0.802347 0.273661
H27   H     H_    0.174296 0.772862 0.859655 0.190112
H28   H     H_    0.126738 0.655475 0.984130 0.241615

loop_
_geom_bond_atom_site_label_1
_geom_bond_atom_site_label_2
_ccdc_geom_bond_type
C7    C10   A    
C28   H27   S    
C21   H12   S    
C27   H25   S    
O9    C27   S    
Cu1   O3    S    
Cu1   O1    S    
C12   O4    A    
Cu2   O4    S    
C21   C22   S    
C19   C20   A    
Cu1   O7    S    
C26   H21   S    
C6    C25   S    
C25   C26   S    
C24   H16   S    
C4    C18   A    
C11   O9    S    
C24   H14   S    
C2    C3    A    
C21   H13   S    
C27   C28   S    
Cu2   O8    S    
C5    H5    S    
Cu1   Cu2   S    
C14   O5    A    
C23   H18   S    
C4    C5    S    
C11   C13   S    
C14   O6    A    
C15   O7    A    
C23   H17   S    
C3    C14   S    
C22   H10   S    
C9    H8    S    
C6    C18   S    
C8    H7    S    
C25   H23   S    
C11   H1    S    
C23   C24   S    
C26   H20   S    
C1    O2    A    
C20   C21   S    
C2    H3    S    
C5    C6    S    
Cu2   O2    S    
Cu1   N2    S    
C12   O3    A    
C15   O8    A    
C1    C19   S    
C28   H28   S    
C7    N1    A    
Cu2   N1    S    
C27   H24   S    
C1    O1    A    
C5    H4    S    
Cu2   O6    S    
C10   N2    A    
C7    C13   S    
C28   H26   S    
C26   H19   S    
C13   H2    S    
Cu1   O5    S    
C18   C19   A    
C10   C11   S    
C15   C17   S    
C16   C17   T    
C12   C16   S    
C9    N2    A    
C25   H22   S    
C8    N1    A    
C2    C20   A    
C13   C23   S    
C6    H6    S    
C3    C4    A    
C22   H9    S    
C8    C9    A    
C24   H15   S    
C22   H11   S    
