data_str_m12_o9_o22_f0_bcu.sym.48
_audit_creation_date              2012-12-11T17:45:29-0500
_audit_creation_method            fapswitch 2.2
_symmetry_space_group_name_H-M    P1
_symmetry_Int_Tables_number       1
_space_group_crystal_system       triclinic
_cell_length_a                    14.922335
_cell_length_b                    14.906071
_cell_length_c                    15.201312
_cell_angle_alpha                 110.511777
_cell_angle_beta                  108.752183
_cell_angle_gamma                 108.9554
_cell_volume                      2608.57777131

loop_
_atom_site_label
_atom_site_type_symbol
_atom_type_description
_atom_site_fract_x
_atom_site_fract_y
_atom_site_fract_z
_atom_type_partial_charge
C1    C     C_R   0.974110 0.249298 0.061957 -0.130607
C2    C     C_R   0.704745 0.194219 0.793416 -0.147210
C3    C     C_R   0.777093 0.591812 0.022725 -0.150539
C4    C     C_R   0.314811 0.757434 0.223453 -0.078324
C5    C     C_R   0.954938 0.409783 0.686564 -0.150833
C6    C     C_R   0.675288 0.499343 0.945745 0.038427
C7    C     C_R   0.981629 0.505064 0.680436 0.059181
C8    C     C_R   0.702303 0.131023 0.699418 0.112145
C9    C     C_R   0.059760 0.868482 0.069210 0.066934
C10   C     C_R   0.583639 0.290386 0.147697 -0.123104
C11   C     C_R   0.684740 0.370846 0.237891 -0.123260
C12   C     C_R   0.323673 0.783257 0.324721 0.121845
C13   C     C_R   0.750761 0.340440 0.295597 0.111276
C14   C     C_R   0.714686 0.228342 0.261362 -0.171576
C15   C     C_R   0.613817 0.147802 0.169565 -0.106493
C16   C     C_R   0.208524 0.408621 0.902282 -0.019330
C17   C     C_R   0.548031 0.178893 0.112855 -0.109508
C18   C     C_R   0.870505 0.429135 0.490318 -0.242904
C19   C     C_R   0.966649 0.511509 0.586023 0.070733
C20   C     C_R   0.048014 0.595893 0.588908 0.012362
C21   C     C_R   0.031231 0.593671 0.494195 -0.243637
C22   C     C_R   0.937488 0.508691 0.397244 0.066159
C23   C     C_R   0.300008 0.499959 0.930732 0.016962
C24   C     C_R   0.854892 0.426434 0.394596 0.019708
C25   C     C_R   0.173933 0.788573 0.745009 -0.200424
C26   C     C_R   0.276913 0.871833 0.831831 -0.109529
C27   C     C_R   0.363309 0.850328 0.857163 -0.105304
C28   C     C_R   0.995138 0.592463 0.297528 -0.167921
C29   C     C_R   0.346534 0.745274 0.796296 -0.124414
C30   C     C_R   0.242921 0.660848 0.710887 -0.136081
C31   C     C_R   0.155801 0.682040 0.684909 0.120314
C32   C     C_R   0.226541 0.020688 0.503773 -0.132402
C33   C     C_R   0.307710 0.998012 0.494042 -0.128946
C34   C     C_R   0.940008 0.502236 0.301974 0.064781
C35   C     C_R   0.331042 0.927355 0.526845 0.149144
C36   C     C_R   0.272526 0.879736 0.569406 -0.190304
C37   C     C_R   0.188383 0.899053 0.574461 -0.121240
C38   C     C_R   0.167068 0.971236 0.544093 -0.132278
C39   C     C_R   0.519739 0.982762 0.619251 -0.224823
C40   C     C_R   0.299703 0.591359 0.995316 -0.116778
C41   C     C_R   0.617430 0.016217 0.617200 -0.014504
C42   C     C_R   0.620867 0.949624 0.526304 -0.194705
C43   C     C_R   0.522893 0.862157 0.434725 0.686417
C44   C     C_R   0.423425 0.849971 0.429448 -0.141483
C45   C     C_R   0.686991 0.407605 0.931551 -0.132995
C46   C     C_R   0.422944 0.911193 0.524507 -0.041757
C47   C     C_R   0.733194 0.012009 0.447055 -0.109842
C48   C     C_R   0.835800 0.065168 0.458174 -0.135523
C49   C     C_R   0.927354 0.081105 0.539714 -0.104977
C50   C     C_R   0.915901 0.041284 0.608303 -0.148732
C51   C     C_R   0.813672 0.988752 0.598279 -0.143311
C52   C     C_R   0.909094 0.409374 0.210101 -0.131311
C53   C     C_R   0.722228 0.977475 0.519967 0.223814
C54   C     C_3   0.470764 0.390604 0.832842 -0.395981
C55   C     C_3   0.367130 0.390481 0.830804 -0.397220
C56   C     C_R   0.038879 0.594955 0.782099 -0.115886
C57   C     C_3   0.569591 0.508292 0.036036 -0.542871
C58   C     C_3   0.567463 0.596335 0.920321 -0.412260
C59   C     C_3   0.572717 0.498667 0.932340 0.321277
C60   C     C_3   0.396898 0.499846 0.926269 0.217003
C61   C     C_3   0.470786 0.516454 0.035789 0.665111
C62   C     C_3   0.461094 0.594690 0.912650 -0.535252
C63   C     C_R   0.145882 0.034920 0.791726 -0.140090
C64   C     C_R   0.219623 0.745318 0.310789 -0.134680
C65   C     C_R   0.115610 0.041597 0.870535 -0.170153
C66   C     C_R   0.188725 0.125371 0.978632 0.059043
C67   C     C_R   0.791490 0.198418 0.699144 -0.153742
C68   C     C_R   0.292630 0.201339 0.007037 -0.067995
C69   C     C_R   0.321958 0.194276 0.927203 -0.092726
C70   C     C_R   0.248895 0.111676 0.820043 -0.164711
C71   C     C_R   0.169685 0.041938 0.085409 -0.231078
C72   C     C_R   0.095194 0.986475 0.110255 0.054311
C73   C     C_R   0.044192 0.040494 0.154491 0.032399
C74   C     C_R   0.063828 0.141161 0.161608 -0.238436
C75   C     C_R   0.100126 0.168407 0.095336 0.070693
C76   C     C_R   0.068783 0.252753 0.973617 -0.118265
C77   C     C_R   0.160280 0.121342 0.061648 0.031755
C78   C     C_R   0.000866 0.802684 0.096921 -0.139330
C79   C     C_R   0.844483 0.948704 0.085323 -0.133529
C80   C     C_R   0.753700 0.899256 0.094595 -0.203760
C81   C     C_R   0.765940 0.881220 0.180809 -0.150039
C82   C     C_R   0.870075 0.915786 0.260382 0.261522
C83   C     C_R   0.961954 0.977482 0.257194 -0.320493
C84   C     C_R   0.949267 0.986464 0.165702 0.120914
C85   C     C_R   0.052828 0.224094 0.047435 0.061881
C86   C     C_3   0.817177 0.777275 0.312600 -0.903791
C87   C     C_R   0.090755 0.805209 0.005724 -0.147711
F1    F     F_    0.525323 0.795391 0.348564 -0.728147
F2    F     F_    0.415211 0.440054 0.057527 -0.727986
H1    H     H_    0.939283 0.237096 0.111519 0.094614
H2    H     H_    0.532996 0.315654 0.106569 0.129263
H3    H     H_    0.710568 0.456885 0.264058 0.121866
H4    H     H_    0.379311 0.775813 0.203648 0.150848
H5    H     H_    0.764726 0.203562 0.305430 0.109048
H6    H     H_    0.586329 0.061534 0.143015 0.102786
H7    H     H_    0.807576 0.366868 0.490364 0.133356
H8    H     H_    0.096792 0.654636 0.495805 0.132863
H9    H     H_    0.107489 0.806085 0.725762 0.115087
H10   H     H_    0.289887 0.953092 0.879096 0.128674
H11   H     H_    0.443415 0.915186 0.923498 0.096504
H12   H     H_    0.067538 0.680346 0.807059 0.113650
H13   H     H_    0.414403 0.730064 0.814759 0.105858
H14   H     H_    0.231001 0.579899 0.663860 0.107173
H15   H     H_    0.106666 0.991240 0.555125 0.098888
H16   H     H_    0.178006 0.323574 0.845221 0.074965
H17   H     H_    0.210788 0.077596 0.481443 0.104791
H18   H     H_    0.354012 0.037152 0.463285 0.111278
H19   H     H_    0.290684 0.826282 0.596333 0.135858
H20   H     H_    0.140610 0.859556 0.603412 0.120787
H21   H     H_    0.514922 0.028285 0.689007 0.136077
H22   H     H_    0.663891 0.005163 0.386942 0.113130
H23   H     H_    0.820978 0.179545 0.643529 0.123936
H24   H     H_    0.844637 0.095729 0.404813 0.114877
H25   H     H_    0.007040 0.123649 0.549266 0.097712
H26   H     H_    0.986863 0.055523 0.672192 0.122033
H27   H     H_    0.019714 0.677208 0.350145 0.114160
H28   H     H_    0.807028 0.964083 0.655994 0.115081
H29   H     H_    0.469174 0.316617 0.835265 0.144320
H30   H     H_    0.470513 0.383114 0.757308 0.166068
H31   H     H_    0.314064 0.379562 0.752731 0.154866
H32   H     H_    0.321329 0.318862 0.835348 0.180170
H33   H     H_    0.567992 0.435725 0.042079 0.187693
H34   H     H_    0.983093 0.826733 0.161008 0.120625
H35   H     H_    0.637090 0.675434 0.990910 0.171189
H36   H     H_    0.572044 0.591657 0.847349 0.174340
H37   H     H_    0.410327 0.581678 0.832772 0.193655
H38   H     H_    0.355216 0.676622 0.026563 0.084379
H39   H     H_    0.482046 0.676133 0.975604 0.157320
H40   H     H_    0.643792 0.582196 0.109093 0.142884
H41   H     H_    0.499014 0.599676 0.102012 0.053477
H42   H     H_    0.273132 0.107621 0.759691 0.136594
H43   H     H_    0.089473 0.969631 0.709001 0.108467
H44   H     H_    0.036093 0.980350 0.847940 0.121253
H45   H     H_    0.149134 0.833455 0.980836 0.096149
H46   H     H_    0.350610 0.264435 0.090477 0.156147
H47   H     H_    0.401166 0.252413 0.947103 0.135759
H48   H     H_    0.217826 0.008724 0.061255 0.123806
H49   H     H_    0.028123 0.183257 0.199244 0.128277
H50   H     H_    0.856963 0.324636 0.183546 0.105918
H51   H     H_    0.833385 0.958556 0.015927 0.116487
H52   H     H_    0.673342 0.872055 0.033243 0.126915
H53   H     H_    0.694078 0.839742 0.184623 0.128643
H54   H     H_    0.042888 0.008714 0.320199 0.117156
H55   H     H_    0.194267 0.741766 0.368403 0.124895
H56   H     H_    0.658321 0.165768 0.829109 0.089358
H57   H     H_    0.124967 0.248968 0.944784 0.136935
H58   H     H_    0.625109 0.321995 0.882584 0.094344
H59   H     H_    0.963727 0.922270 0.398753 0.162271
H60   H     H_    0.839719 0.768313 0.384920 0.253808
H61   H     H_    0.830860 0.721211 0.254288 0.233295
H62   H     H_    0.729941 0.753903 0.277593 0.265341
H63   H     H_    0.796936 0.677025 0.058523 0.115848
H64   H     H_    0.913385 0.325528 0.621565 0.103584
H65   H     H_    0.469344 0.116880 0.042630 0.101472
N1    N     N_R   0.947080 0.293830 0.002870 -0.041740
N2    N     N_R   0.153670 0.443180 0.946090 -0.046459
N3    N     N_R   0.002360 0.556820 0.208890 -0.036834
N4    N     N_R   0.210070 0.556820 0.002870 -0.035618
N5    N     N_R   0.945960 0.443180 0.152110 -0.037975
N6    N     N_R   0.151710 0.706170 0.208890 -0.048173
N7    N     N_R   0.004320 0.293830 0.946090 -0.047551
N8    N     N_R   0.789930 0.443180 0.997130 -0.037331
N9    N     N_2   0.883877 0.890159 0.344074 -0.102282
N10   N     N_R   0.054040 0.556820 0.847890 -0.044084
N11   N     N_R   0.848290 0.293830 0.791110 -0.041374
N12   N     N_R   0.995680 0.706170 0.053910 -0.040926
N13   N     N_R   0.052920 0.706170 0.997130 -0.040622
N14   N     N_R   0.791050 0.293830 0.847890 -0.040054
N15   N     N_R   0.846330 0.556820 0.053910 -0.039325
N16   N     N_R   0.997640 0.443180 0.791110 -0.043548
N17   N     N_R   0.208950 0.706170 0.152110 -0.057792
Ni1   Ni    Ni4+2 0.869690 0.369690 0.000000 0.214816
Ni2   Ni    Ni4+2 0.130310 0.630310 0.000000 0.216021
Ni3   Ni    Ni4+2 0.000970 0.369690 0.869780 0.214924
Ni4   Ni    Ni4+2 0.999030 0.630310 0.130220 0.213985

loop_
_geom_bond_atom_site_label_1
_geom_bond_atom_site_label_2
_ccdc_geom_bond_type
C25   C31   A    
C66   C68   A    
C63   C65   A    
C58   C62   S    
C1    H1    S    
C4    N17   A    
C36   H19   S    
C18   H7    S    
C41   C42   A    
N10   N16   A    
C35   C36   A    
C33   H18   S    
C9    C72   S    
C43   C44   A    
C3    C6    A    
C55   H32   S    
C81   C82   A    
C71   H48   S    
N1    N7    A    
C2    H56   S    
N17   Ni2   S    
N2    Ni3   S    
C26   C27   A    
C29   C30   A    
C18   C24   A    
C43   F1    S    
C40   N4    A    
C36   C37   A    
C6    C45   A    
C56   H12   S    
C18   C19   A    
C86   H61   S    
C42   C53   S    
C15   H6    S    
C30   C31   A    
C12   C64   A    
C5    H64   S    
C57   C59   S    
C27   C29   A    
C82   N9    S    
C10   C17   A    
C23   C40   A    
C11   C13   A    
C52   H50   S    
C60   C62   S    
C50   H26   S    
C73   C74   A    
C1    N1    A    
C28   N3    A    
C38   H15   S    
C28   H27   S    
C13   C14   A    
C51   H28   S    
C57   H33   S    
C11   H3    S    
C75   C85   S    
C39   H21   S    
C87   N13   A    
C83   C84   A    
C61   F2    S    
C68   C69   A    
C30   H14   S    
C16   N2    A    
C5    N16   A    
C32   C38   A    
C4    C12   A    
C73   C84   S    
C37   H20   S    
C54   C59   S    
C26   H10   S    
C47   C53   A    
C67   N11   A    
C52   N5    A    
C49   H25   S    
C76   H57   S    
N3    N5    A    
C32   H17   S    
C55   C60   S    
C87   H45   S    
C76   N7    A    
C7    C56   A    
C17   H65   S    
N1    Ni1   S    
C44   C46   A    
C58   H36   S    
C55   H31   S    
C1    C85   A    
C23   C60   S    
C22   C34   S    
C27   H11   S    
C78   N12   A    
C74   C75   A    
C8    C41   S    
C72   C73   A    
C39   C41   A    
N5    Ni1   S    
C86   H60   S    
C5    C7    A    
C3    N15   A    
C64   H55   S    
N11   Ni3   S    
C40   H38   S    
C82   C83   A    
C4    H4    S    
C13   C24   S    
C60   C61   S    
C51   C53   A    
C45   N8    A    
C37   C38   A    
C21   H8    S    
C25   H9    S    
N4    Ni2   S    
C47   C48   A    
C63   C70   A    
C64   N6    A    
C50   C51   A    
N12   Ni4   S    
N10   Ni2   S    
C63   H43   S    
C78   H34   S    
C75   C77   A    
C16   H16   S    
N3    Ni4   S    
C39   C46   A    
C61   H41   S    
C48   C49   A    
C10   H2    S    
C80   H52   S    
C16   C23   A    
C7    C19   S    
C54   H29   S    
N12   N13   A    
N6    Ni4   S    
C22   C24   A    
C58   C59   S    
C42   C43   A    
C2    N14   A    
C71   C77   A    
C62   H37   S    
N16   Ni3   S    
C57   H40   S    
C15   C17   A    
C66   C77   S    
C3    H63   S    
C54   C55   S    
C81   H53   S    
C45   H58   S    
H59   N9    S    
C34   C52   A    
C6    C59   S    
C68   H46   S    
C2    C8    A    
C80   C81   A    
C57   C61   S    
N11   N14   A    
N15   Ni4   S    
C56   N10   A    
C58   H35   S    
N13   Ni2   S    
C21   C22   A    
C19   C20   A    
N2    N4    A    
C25   C26   A    
C71   C72   A    
C12   C44   S    
C86   H62   S    
C32   C33   A    
C62   H39   S    
N7    Ni3   S    
C74   H49   S    
C79   C84   A    
N8    N15   A    
C47   H22   S    
C69   H47   S    
C70   H42   S    
C33   C35   A    
N6    N17   A    
C29   H13   S    
C79   H51   S    
C9    C78   A    
C65   C66   A    
C69   C70   A    
C65   H44   S    
C10   C11   A    
C28   C34   A    
C79   C80   A    
C67   H23   S    
N14   Ni1   S    
N8    Ni1   S    
C20   C21   A    
C8    C67   A    
C49   C50   A    
C14   C15   A    
C83   H54   S    
C86   N9    S    
C54   H30   S    
C35   C46   S    
C76   C85   A    
C14   H5    S    
C9    C87   A    
C48   H24   S    
C20   C31   S    
