data_str_m3_o10_o14_f0_pcu.sym.193
_audit_creation_date              2012-12-10T16:50:06-0500
_audit_creation_method            fapswitch 2.2
_symmetry_space_group_name_H-M    P1
_symmetry_Int_Tables_number       1
_space_group_crystal_system       triclinic
_cell_length_a                    7.806062
_cell_length_b                    8.549229
_cell_length_c                    10.670739
_cell_angle_alpha                 92.075415
_cell_angle_beta                  86.835437
_cell_angle_gamma                 93.390849
_cell_volume                      709.401751884

loop_
_atom_site_label
_atom_site_type_symbol
_atom_type_description
_atom_site_fract_x
_atom_site_fract_y
_atom_site_fract_z
_atom_type_partial_charge
C1    C     C_R   0.544745 0.793548 0.487935 0.961479
C2    C     C_R   0.468058 0.659078 0.940784 0.086517
C3    C     C_R   0.517948 0.523125 0.871887 -0.077614
C4    C     C_R   0.561779 0.390071 0.930730 -0.232399
C5    C     C_R   0.550847 0.387577 0.059059 -0.200202
C6    C     C_R   0.481631 0.512283 0.128392 -0.091113
C7    C     C_2   0.568130 0.956836 0.477783 -0.394320
C8    C     C_2   0.429905 0.041624 0.491487 -0.414172
C9    C     C_R   0.505293 0.508208 0.739410 0.913232
C10   C     C_R   0.454438 0.205431 0.499000 0.969870
C11   C     C_R   0.495944 0.507724 0.260686 0.864440
C12   C     C_R   0.466431 0.808691 0.887280 0.091329
C13   C     C_R   0.402822 0.935308 0.957969 -0.230671
C14   C     C_R   0.328390 0.913026 0.076784 -0.138123
C15   C     C_R   0.329295 0.767755 0.131712 0.080287
C16   C     C_R   0.422741 0.644902 0.069612 0.014543
H1    H     H_    0.604165 0.288038 0.876967 0.144980
H2    H     H_    0.401526 0.049384 0.917246 0.146827
H3    H     H_    0.261299 0.007501 0.124248 0.153071
H4    H     H_    0.593005 0.286315 0.104735 0.153344
H5    H     H_    0.699041 0.007217 0.465996 0.182313
H6    H     H_    0.298906 0.991179 0.502447 0.179315
H7    H     H_    0.006820 0.363113 0.422802 0.174971
N1    N     N_2   0.950330 0.457950 0.466250 -0.158075
N2    N     N_2   0.049670 0.542050 0.533750 -0.039966
O1    O     O_R   0.389250 0.738570 0.508280 -0.619246
O2    O     O_R   0.678390 0.711630 0.486650 -0.648518
O3    O     O_R   0.355400 0.513470 0.694050 -0.589331
O4    O     O_R   0.644540 0.486530 0.672420 -0.630401
O5    O     O_R   0.321610 0.288370 0.513350 -0.632592
O6    O     O_R   0.610750 0.261430 0.491720 -0.614023
O7    O     O_R   0.355460 0.513470 0.327580 -0.656220
O8    O     O_R   0.644600 0.486530 0.305950 -0.609819
Zn1   Zn    Zn3+2 0.306930 0.517990 0.514440 0.947836
Zn2   Zn    Zn3+2 0.693070 0.482010 0.485560 0.933986
N3    N     N_3   0.995146 0.686951 0.576612 -0.354156
H8    H     H_    0.979555 0.755592 0.499434 0.196607
H9    H     H_    0.884768 0.671794 0.635180 0.239593
N4    N     N_3   0.538511 0.836686 0.764123 -0.465089
H10   H     H_    0.445500 0.891798 0.717926 0.203091
H11   H     H_    0.644220 0.916837 0.771762 0.174839
N5    N     N_3   0.198369 0.740250 0.228702 -0.467128
H12   H     H_    0.140060 0.627463 0.219661 0.222064
H13   H     H_    0.247412 0.766160 0.316114 0.228647

loop_
_geom_bond_atom_site_label_1
_geom_bond_atom_site_label_2
_ccdc_geom_bond_type
C8    H6    S    
H7    N1    S    
C3    C9    S    
C2    C16   A    
O4    Zn2   S    
C9    O4    A    
N2    Zn1   S    
C2    C12   A    
C12   N4    S    
N3    H9    S    
C2    C3    A    
O3    Zn1   S    
C7    C8    D    
N4    H11   S    
C5    H4    S    
C1    C7    S    
C13   C14   A    
N1    N2    D    
C5    C6    A    
N5    H13   S    
C13   H2    S    
C4    H1    S    
C10   O6    A    
N3    H8    S    
O8    Zn2   S    
C11   O7    A    
C6    C11   S    
C1    O1    A    
O6    Zn2   S    
N1    Zn2   S    
N5    H12   S    
O5    Zn1   S    
N2    N3    S    
C6    C16   A    
C3    C4    A    
C11   O8    A    
C12   C13   A    
C15   N5    S    
C8    C10   S    
N4    H10   S    
C1    O2    A    
C10   O5    A    
C14   C15   A    
O2    Zn2   S    
C7    H5    S    
C14   H3    S    
O1    Zn1   S    
C15   C16   A    
C9    O3    A    
C4    C5    A    
O7    Zn1   S    
