data_str_m3_o1_o16_f0_pcu.sym.131
_audit_creation_date              2012-12-10T18:46:13-0500
_audit_creation_method            fapswitch 2.2
_symmetry_space_group_name_H-M    P1
_symmetry_Int_Tables_number       1
_space_group_crystal_system       triclinic
_cell_length_a                    9.89475
_cell_length_b                    10.664051
_cell_length_c                    13.022412
_cell_angle_alpha                 90.576601
_cell_angle_beta                  71.491329
_cell_angle_gamma                 90.603545
_cell_volume                      1302.92091962

loop_
_atom_site_label
_atom_site_type_symbol
_atom_type_description
_atom_site_fract_x
_atom_site_fract_y
_atom_site_fract_z
_atom_type_partial_charge
C1    C     C_R   0.501527 0.739902 0.498553 0.906742
C2    C     C_R   0.441905 0.403208 0.975783 0.024845
C3    C     C_R   0.482021 0.396892 0.862243 0.041887
C4    C     C_R   0.549884 0.421892 0.023766 0.069766
C5    C     C_R   0.694747 0.412200 0.960261 0.060735
C6    C     C_R   0.729784 0.372068 0.852928 -0.305228
C7    C     C_R   0.622955 0.359105 0.804081 0.470877
C8    C     C_R   0.517246 0.459515 0.131251 -0.304859
C9    C     C_R   0.768247 0.481401 0.112950 0.475369
C10   C     C_R   0.379482 0.431726 0.812613 -0.089528
C11   C     C_R   0.630173 0.937957 0.443316 0.477071
C12   C     C_R   0.423342 0.479990 0.701452 0.910707
C13   C     C_R   0.625984 0.066868 0.441853 -0.259587
C14   C     C_R   0.499968 0.128106 0.497662 -0.066587
C15   C     C_R   0.375670 0.063311 0.552690 -0.189193
C16   C     C_R   0.377619 0.934857 0.552650 -0.258659
C17   C     C_R   0.503855 0.872653 0.497783 -0.124426
C18   C     C_R   0.959310 0.434431 0.423261 -0.164303
C19   C     C_R   0.102893 0.434737 0.423126 -0.105823
C20   C     C_R   0.041608 0.564053 0.577263 -0.094854
C21   C     C_R   0.898926 0.566082 0.577197 0.463101
C22   C     C_R   0.499718 0.260284 0.499214 0.911655
C23   C     C_R   0.578226 0.499946 0.295465 0.884158
C24   C     C_R   0.802346 0.442110 0.004999 -0.254125
C25   C     C_R   0.623854 0.483532 0.177861 -0.183530
C26   C     C_R   0.234382 0.427153 0.873311 -0.237949
C27   C     C_R   0.193509 0.399856 0.983198 -0.154860
C28   C     C_R   0.295474 0.394520 0.035665 -0.155431
H1    H     H_    0.719639 0.119177 0.395746 0.151903
H2    H     H_    0.278368 0.111892 0.596280 0.163357
H3    H     H_    0.281217 0.884104 0.596068 0.175333
H4    H     H_    0.930328 0.381917 0.361770 0.170984
H5    H     H_    0.181901 0.382346 0.361426 0.143674
H6    H     H_    0.071803 0.616044 0.638503 0.153136
H7    H     H_    0.839777 0.352353 0.806909 0.139248
H8    H     H_    0.912510 0.437681 0.955042 0.136325
H9    H     H_    0.407749 0.472619 0.179817 0.178490
H10   H     H_    0.153170 0.444966 0.835967 0.155596
H11   H     H_    0.257594 0.380368 0.122155 0.129577
H12   H     H_    0.082663 0.389393 0.029576 0.193307
N1    N     N_R   0.142790 0.500030 0.500030 -0.110977
N2    N     N_R   0.857180 0.499940 0.500010 -0.131049
O1    O     O_R   0.385370 0.683250 0.500010 -0.618934
O2    O     O_R   0.614700 0.683220 0.500010 -0.640365
O3    O     O_R   0.328400 0.499990 0.653620 -0.635727
O4    O     O_R   0.557730 0.499960 0.653620 -0.572317
O5    O     O_R   0.385300 0.316780 0.499990 -0.631137
O6    O     O_R   0.614630 0.316750 0.499990 -0.586107
O7    O     O_R   0.442270 0.500040 0.346380 -0.623209
O8    O     O_R   0.671600 0.500010 0.346380 -0.584457
Zn1   Zn    Zn3+2 0.346870 0.500020 0.500000 0.930847
Zn2   Zn    Zn3+2 0.653130 0.499980 0.500000 0.970488
O9    O     O_3   0.877262 0.508986 0.155035 -0.672598
C29   C     C_3   0.890694 0.640603 0.164902 0.133974
H13   H     H_    0.939418 0.658196 0.229783 0.181504
H14   H     H_    0.786134 0.689809 0.190783 0.144470
C30   C     C_3   0.988798 0.696523 0.059130 -0.409321
H15   H     H_    0.092611 0.647290 0.034567 0.243358
H16   H     H_    0.939572 0.684003 0.993967 0.224349
C31   C     C_3   0.015403 0.836031 0.072163 -0.903759
H17   H     H_    0.912978 0.887567 0.098884 0.274981
H18   H     H_    0.082582 0.874645 0.993417 0.264213
H19   H     H_    0.072213 0.850281 0.132474 0.259462
O10   O     O_3   0.805692 0.637088 0.656554 -0.796530
H20   H     H_    0.726714 0.660949 0.630687 0.370918
O11   O     O_3   0.651185 0.300855 0.704344 -0.744893
H21   H     H_    0.753810 0.279592 0.675972 0.327542
O12   O     O_3   0.752111 0.876340 0.381979 -0.665800
C32   C     C_3   0.850561 0.868624 0.440503 0.120337
H22   H     H_    0.896045 0.772773 0.427201 0.168922
H23   H     H_    0.801549 0.880511 0.530035 0.137286
C33   C     C_3   0.972474 0.963328 0.397581 -0.393243
H24   H     H_    0.015825 0.955618 0.308002 0.233842
H25   H     H_    0.932424 0.060014 0.419165 0.215912
C34   C     C_3   0.092254 0.940507 0.445391 -0.928906
H26   H     H_    0.051736 0.949594 0.535029 0.263239
H27   H     H_    0.178491 0.010906 0.413225 0.273830
H28   H     H_    0.137395 0.845355 0.423067 0.270951

loop_
_geom_bond_atom_site_label_1
_geom_bond_atom_site_label_2
_ccdc_geom_bond_type
C22   O6    A    
C4    C8    A    
C20   N1    A    
C9    C25   A    
O9    C29   S    
C16   H3    S    
C26   C27   A    
C24   H8    S    
C31   H19   S    
C13   H1    S    
C3    C7    A    
C18   N2    A    
C5    C6    A    
C23   O7    A    
O3    Zn1   S    
C15   C16   A    
O4    Zn2   S    
C6    H7    S    
C31   H18   S    
C18   C19   A    
C32   H23   S    
C21   O10   S    
O12   C32   S    
C1    O1    A    
C16   C17   A    
O7    Zn1   S    
O8    Zn2   S    
C33   H24   S    
C20   H6    S    
O2    Zn2   S    
C22   O5    A    
C13   C14   A    
C8    C25   A    
C33   C34   S    
C29   H14   S    
C33   H25   S    
C19   H5    S    
C26   H10   S    
C30   C31   S    
O5    Zn1   S    
C28   H11   S    
C31   H17   S    
C32   C33   S    
C2    C4    A    
C34   H26   S    
C1    O2    A    
C27   H12   S    
C10   C26   A    
C34   H27   S    
C10   C12   S    
C12   O4    A    
C9    O9    S    
C8    H9    S    
C11   O12   S    
C15   H2    S    
C29   H13   S    
C11   C17   A    
C12   O3    A    
C23   O8    A    
C9    C24   A    
C6    C7    A    
C1    C17   S    
O10   H20   S    
C14   C22   S    
C2    C3    A    
C3    C10   A    
C7    O11   S    
C11   C13   A    
O1    Zn1   S    
C30   H15   S    
C5    C24   A    
C4    C5    A    
O11   H21   S    
C23   C25   S    
C32   H22   S    
C34   H28   S    
C30   H16   S    
C21   N2    A    
O6    Zn2   S    
C18   H4    S    
C20   C21   A    
C27   C28   A    
C14   C15   A    
C2    C28   A    
N1    Zn1   S    
C19   N1    A    
N2    Zn2   S    
C29   C30   S    
