data_str_m9_o4_o18_f0_sra.sym.54
_audit_creation_date              2012-12-11T17:02:17-0500
_audit_creation_method            fapswitch 2.2
_symmetry_space_group_name_H-M    P1
_symmetry_Int_Tables_number       1
_space_group_crystal_system       triclinic
_cell_length_a                    21.625275
_cell_length_b                    7.056015
_cell_length_c                    14.85931
_cell_angle_alpha                 90.002082
_cell_angle_beta                  106.252276
_cell_angle_gamma                 90.000831
_cell_volume                      2176.74990578

loop_
_atom_site_label
_atom_site_type_symbol
_atom_type_description
_atom_site_fract_x
_atom_site_fract_y
_atom_site_fract_z
_atom_type_partial_charge
O1    O     O_R   0.585850 0.505770 0.002130 -0.558033
O2    O     O_R   0.414150 0.005770 0.997870 -0.558012
O3    O     O_R   0.467530 0.173560 0.861970 -0.544002
O4    O     O_R   0.532470 0.673560 0.138030 -0.544013
C1    C     C_R   0.456099 0.344192 0.824947 0.849441
C2    C     C_R   0.543900 0.844200 0.175053 0.849426
O5    O     O_R   0.588690 0.175900 0.993250 -0.522923
O6    O     O_R   0.411310 0.675900 0.006750 -0.522971
O7    O     O_R   0.536170 0.007950 0.130090 -0.527350
O8    O     O_R   0.463830 0.507950 0.869910 -0.527333
C3    C     C_R   0.615267 0.344472 0.998560 0.781471
C4    C     C_R   0.384733 0.844468 0.001439 0.781479
O9    O     O_3   0.482630 0.339970 0.044740 -0.384706
O10   O     O_3   0.517370 0.839970 0.955260 -0.384686
V1    V     V_3+5 0.503220 0.064200 0.991700 1.489935
V2    V     V_3+5 0.496780 0.564200 0.008300 1.489881
C5    C     C_R   0.291842 0.005191 0.038850 0.000166
C6    C     C_R   0.708161 0.505206 0.961155 0.000112
C7    C     C_R   0.315329 0.854288 0.996934 -0.264068
C8    C     C_R   0.684672 0.354301 0.003066 -0.264086
C9    C     C_R   0.269704 0.722770 0.944253 0.327076
C10   C     C_R   0.730292 0.222771 0.055734 0.327120
C11   C     C_R   0.203626 0.738103 0.941752 0.525507
C12   C     C_R   0.796368 0.238079 0.058229 0.525513
C13   C     C_R   0.182539 0.880864 0.992982 -0.267721
C14   C     C_R   0.817460 0.380856 0.007016 -0.267759
C15   C     C_R   0.227304 0.018973 0.036411 0.048463
C16   C     C_R   0.772700 0.518977 0.963591 0.048495
C17   C     C_3   0.243040 0.094311 0.133982 -0.415117
C18   C     C_3   0.756959 0.594249 0.865998 -0.415009
C19   C     C_3   0.313734 0.077058 0.137223 -0.358652
C20   C     C_3   0.686267 0.577016 0.862764 -0.358590
H1    H     H_    0.228375 0.996593 0.183044 0.167668
H2    H     H_    0.771619 0.496472 0.816942 0.167652
H3    H     H_    0.227000 0.243613 0.135705 0.167639
H4    H     H_    0.773002 0.743560 0.864248 0.167613
H5    H     H_    0.339949 0.967772 0.187498 0.204571
H6    H     H_    0.660046 0.467689 0.812498 0.204543
H7    H     H_    0.338565 0.216120 0.142500 0.177306
H8    H     H_    0.661441 0.716104 0.857472 0.177295
C21   C     C_R   0.926661 0.886783 0.723420 -0.038819
C22   C     C_R   0.073339 0.386815 0.276581 -0.038812
C23   C     C_R   0.570214 0.846568 0.277451 -0.354164
C24   C     C_R   0.429785 0.346537 0.722549 -0.354175
C25   C     C_R   0.936564 0.929373 0.566970 -0.082609
C26   C     C_R   0.063443 0.429531 0.433030 -0.082602
C27   C     C_R   0.964706 0.921214 0.663339 -0.137926
C28   C     C_R   0.035299 0.421344 0.336661 -0.137935
C29   C     C_R   0.860203 0.861423 0.687261 -0.177061
C30   C     C_R   0.139794 0.361396 0.312741 -0.177055
C31   C     C_R   0.830129 0.869956 0.589560 0.007272
C32   C     C_R   0.169871 0.369972 0.410441 0.007274
C33   C     C_R   0.869705 0.905705 0.529482 -0.016851
C34   C     C_R   0.130300 0.405807 0.470518 -0.016871
C35   C     C_R   0.762241 0.846051 0.549850 0.055137
C36   C     C_R   0.237757 0.346033 0.450152 0.055145
C37   C     C_R   0.734421 0.873261 0.451508 0.014735
C38   C     C_R   0.265580 0.373279 0.548492 0.014718
C39   C     C_R   0.776225 0.897812 0.394507 -0.225097
C40   C     C_R   0.223780 0.397902 0.605492 -0.225089
C41   C     C_R   0.842320 0.915400 0.432625 0.584159
C42   C     C_R   0.157686 0.415533 0.567376 0.584184
C43   C     C_R   0.721667 0.788171 0.604482 -0.173932
C44   C     C_R   0.278325 0.288088 0.395523 -0.173919
C45   C     C_R   0.656713 0.753019 0.564172 -0.027520
C46   C     C_R   0.343277 0.252904 0.435833 -0.027530
C47   C     C_R   0.628592 0.784084 0.468775 -0.148737
C48   C     C_R   0.371400 0.283999 0.531228 -0.148717
C49   C     C_R   0.666056 0.858793 0.412331 -0.067489
C50   C     C_R   0.333944 0.358776 0.587669 -0.067483
C51   C     C_R   0.563468 0.737793 0.428770 0.616906
C52   C     C_R   0.436521 0.237674 0.571234 0.616845
C53   C     C_R   0.535664 0.759767 0.332907 0.478912
C54   C     C_R   0.464327 0.259673 0.667097 0.478898
C55   C     C_R   0.633078 0.912618 0.318578 0.290419
C56   C     C_R   0.366928 0.412631 0.681417 0.290436
H9    H     H_    0.628413 0.699915 0.608530 0.188956
H10   H     H_    0.371571 0.199752 0.391477 0.188954
H11   H     H_    0.967240 0.956417 0.521887 0.183353
H12   H     H_    0.032770 0.456646 0.478113 0.183352
H13   H     H_    0.016116 0.943342 0.691197 0.149953
H14   H     H_    0.983892 0.443523 0.308802 0.149938
H15   H     H_    0.833294 0.843094 0.737682 0.087614
H16   H     H_    0.166700 0.342996 0.262320 0.087619
H17   H     H_    0.759479 0.893330 0.319129 0.229243
H18   H     H_    0.240526 0.393450 0.680871 0.229256
H19   H     H_    0.739180 0.758305 0.678218 0.117247
H20   H     H_    0.260809 0.258200 0.321788 0.117252
O11   O     O_R   0.036080 0.231270 0.130120 -0.536909
O12   O     O_R   0.963920 0.731270 0.869880 -0.536908
O13   O     O_R   0.911300 0.558970 0.006750 -0.543006
O14   O     O_R   0.088700 0.058970 0.993250 -0.543013
C57   C     C_R   0.885006 0.390076 0.002586 0.769776
C58   C     C_R   0.114994 0.890078 0.997414 0.769769
O15   O     O_R   0.032450 0.561140 0.138040 -0.545763
O16   O     O_R   0.967550 0.061140 0.861960 -0.545757
O17   O     O_R   0.085870 0.728910 0.002130 -0.518880
O18   O     O_R   0.914130 0.228910 0.997870 -0.518864
C59   C     C_R   0.044886 0.392740 0.175124 0.693099
C60   C     C_R   0.955114 0.892732 0.824876 0.693121
O19   O     O_3   0.017320 0.394650 0.955270 -0.363820
O20   O     O_3   0.982680 0.894650 0.044730 -0.363810
V3    V     V_3+5 0.996780 0.670490 0.008300 1.537837
V4    V     V_3+5 0.003220 0.170490 0.991700 1.537831
O21   O     O_3   0.288666 0.590591 0.888649 -0.520770
C61   C     C_3   0.291010 0.410323 0.930160 -0.040184
H21   H     H_    0.321874 0.410707 0.003908 0.093767
H22   H     H_    0.312649 0.309081 0.890504 0.137478
H23   H     H_    0.241989 0.357878 0.926691 0.168342
O22   O     O_3   0.711314 0.090558 0.111302 -0.520822
C62   C     C_3   0.708965 0.910316 0.069760 -0.039988
H24   H     H_    0.678321 0.910872 0.995883 0.093476
H25   H     H_    0.687069 0.809206 0.109168 0.137435
H26   H     H_    0.758013 0.857596 0.073581 0.168555
F1    F     F_    0.527693 0.661062 0.481573 -0.612806
F2    F     F_    0.472289 0.160880 0.518435 -0.612812
F3    F     F_    0.160190 0.615350 0.888373 -0.647466
F4    F     F_    0.839796 0.115281 0.111579 -0.647515
F5    F     F_    0.879764 0.940419 0.373801 -0.655429
F6    F     F_    0.120246 0.440627 0.626199 -0.655386
O23   O     O_3   0.660808 0.029413 0.266087 -0.535270
C63   C     C_3   0.655143 0.218739 0.293338 -0.085966
H27   H     H_    0.682958 0.243152 0.367624 0.122762
H28   H     H_    0.603796 0.259534 0.282229 0.129458
H29   H     H_    0.675406 0.313353 0.249119 0.153883
O24   O     O_3   0.339210 0.529485 0.733902 -0.535262
C64   C     C_3   0.344888 0.718788 0.706636 -0.085956
H30   H     H_    0.317084 0.743170 0.632340 0.122762
H31   H     H_    0.396241 0.759560 0.717759 0.129503
H32   H     H_    0.324619 0.813442 0.750836 0.153860
F7    F     F_    0.474401 0.698832 0.294033 -0.650537
F8    F     F_    0.525584 0.198701 0.705972 -0.650534

loop_
_geom_bond_atom_site_label_1
_geom_bond_atom_site_label_2
_ccdc_geom_bond_type
C23   C53   A    
C46   C48   A    
C43   C45   A    
O24   C64   S    
C54   F8    S    
C41   F5    S    
C56   O24   S    
C62   H24   S    
O1    C3    A    
O2    C4    A    
C2    O7    A    
C53   F7    S    
C30   H16   S    
C31   C35   A    
O5    C3    A    
O11   C59   A    
C7    C9    A    
C12   C14   A    
O15   C59   A    
C37   C39   A    
C15   C17   S    
C61   H21   S    
C38   C40   A    
C17   H1    S    
C6    C8    A    
C40   C42   A    
C29   C31   A    
O12   C60   A    
C24   C56   A    
O22   C62   S    
C33   C41   A    
O15   V3    S    
C10   O22   S    
C35   C43   A    
C30   C32   A    
C36   C44   A    
C20   H6    S    
C36   C38   A    
C42   F6    S    
O6    C4    A    
C14   C57   S    
C27   H13   S    
C25   C33   A    
C13   C58   S    
O6    V2    S    
C21   C29   A    
C32   C34   A    
C25   C27   A    
C23   C55   A    
C46   H10   S    
C26   C28   A    
C3    C8    S    
C39   C41   A    
C45   H9    S    
C18   H2    S    
C5    C15   A    
C6    C16   A    
C62   H25   S    
C51   C53   A    
C40   H18   S    
C38   C50   A    
O5    V1    S    
C34   C42   A    
C58   O17   A    
C45   C47   A    
C19   H5    S    
C31   C33   A    
C44   C46   A    
O4    V2    S    
C24   C54   A    
C64   H31   S    
O13   C57   A    
C48   C52   A    
C26   C34   A    
O14   C58   A    
C21   C27   A    
C21   C60   S    
C51   F1    S    
C25   H11   S    
O1    V2    S    
C22   C28   A    
O20   V4    S    
O2    V1    S    
O23   C63   S    
O17   V3    S    
C22   C30   A    
C57   O18   A    
C52   C54   A    
C1    C24   S    
C8    C10   A    
O19   V4    S    
C2    C23   S    
C35   C37   A    
O11   V4    S    
C50   C56   A    
C5    C19   S    
C10   C12   A    
O4    C2    A    
C6    C20   S    
C63   H28   S    
C64   H30   S    
O3    V1    S    
O16   V4    S    
C52   F2    S    
C43   H19   S    
C55   O23   S    
C14   C16   A    
O13   V3    S    
O3    C1    A    
C11   F3    S    
C13   C15   A    
O21   C61   S    
C17   H3    S    
C12   F4    S    
C18   H4    S    
C37   C49   A    
C29   H15   S    
C63   H29   S    
C9    C11   A    
O7    V1    S    
C64   H32   S    
C1    O8    A    
C17   C19   S    
O8    V2    S    
C22   C59   S    
C18   C20   S    
C61   H22   S    
O18   V4    S    
O16   C60   A    
C4    C7    S    
C16   C18   S    
C5    C7    A    
C28   H14   S    
C49   C55   A    
C62   H26   S    
C47   C51   A    
C20   H8    S    
O20   V3    S    
O12   V3    S    
O14   V4    S    
C11   C13   A    
O19   V3    S    
O9    V2    S    
C19   H7    S    
C48   C50   A    
O10   V1    S    
C26   H12   S    
C47   C49   A    
C63   H27   S    
C39   H17   S    
C44   H20   S    
C9    O21   S    
C32   C36   A    
C61   H23   S    
