data_str_m9_o4_o18_f0_sra.sym.55
_audit_creation_date              2012-12-11T17:02:17-0500
_audit_creation_method            fapswitch 2.2
_symmetry_space_group_name_H-M    P1
_symmetry_Int_Tables_number       1
_space_group_crystal_system       triclinic
_cell_length_a                    21.662712
_cell_length_b                    7.076137
_cell_length_c                    14.776854
_cell_angle_alpha                 89.996421
_cell_angle_beta                  105.873704
_cell_angle_gamma                 89.999718
_cell_volume                      2178.74317171

loop_
_atom_site_label
_atom_site_type_symbol
_atom_type_description
_atom_site_fract_x
_atom_site_fract_y
_atom_site_fract_z
_atom_type_partial_charge
O1    O     O_R   0.585850 0.505770 0.002130 -0.536746
O2    O     O_R   0.414150 0.005770 0.997870 -0.536748
O3    O     O_R   0.467530 0.173560 0.861970 -0.537557
O4    O     O_R   0.532470 0.673560 0.138030 -0.537565
C1    C     C_R   0.455664 0.344091 0.824974 0.693406
C2    C     C_R   0.544337 0.844082 0.175027 0.693399
O5    O     O_R   0.588690 0.175900 0.993250 -0.545024
O6    O     O_R   0.411310 0.675900 0.006750 -0.545021
O7    O     O_R   0.536170 0.007950 0.130090 -0.536539
O8    O     O_R   0.463830 0.507950 0.869910 -0.536544
C3    C     C_R   0.615053 0.344625 0.997672 0.688311
C4    C     C_R   0.384947 0.844626 0.002328 0.688326
O9    O     O_3   0.482630 0.339970 0.044740 -0.372561
O10   O     O_3   0.517370 0.839970 0.955260 -0.372560
V1    V     V_3+5 0.503220 0.064200 0.991700 1.407832
V2    V     V_3+5 0.496780 0.564200 0.008300 1.407835
C5    C     C_R   0.292286 0.009711 0.041719 0.104064
C6    C     C_R   0.707715 0.509728 0.958290 0.104074
C7    C     C_R   0.317035 0.852703 0.005526 -0.107933
C8    C     C_R   0.682965 0.352703 0.994475 -0.107923
C9    C     C_R   0.274961 0.699749 0.974113 -0.180650
C10   C     C_R   0.725039 0.199737 0.025882 -0.180688
H1    H     H_    0.291708 0.575209 0.945796 0.133924
H2    H     H_    0.708291 0.075187 0.054196 0.133936
C11   C     C_R   0.209623 0.711508 0.972398 -0.183053
C12   C     C_R   0.790376 0.211495 0.027595 -0.183058
H3    H     H_    0.178254 0.594470 0.943827 0.132970
H4    H     H_    0.821745 0.094445 0.056161 0.132982
C13   C     C_R   0.184194 0.877175 0.001440 -0.105868
C14   C     C_R   0.815806 0.377175 0.998560 -0.105852
C15   C     C_R   0.227693 0.021605 0.039799 0.106913
C16   C     C_R   0.772307 0.521624 0.960211 0.106877
C17   C     C_3   0.224945 0.227058 0.017131 -0.422379
C18   C     C_3   0.775058 0.727061 0.982898 -0.422392
C19   C     C_3   0.295413 0.214136 0.019446 -0.401596
C20   C     C_3   0.704591 0.714138 0.980584 -0.401597
H5    H     H_    0.216343 0.314634 0.074959 0.170797
H6    H     H_    0.783660 0.814672 0.925077 0.170815
H7    H     H_    0.192955 0.257509 0.945877 0.171107
H8    H     H_    0.807050 0.757466 0.054154 0.171131
H9    H     H_    0.327458 0.294123 0.078669 0.173966
H10   H     H_    0.672545 0.794161 0.921370 0.173974
H11   H     H_    0.304241 0.237505 0.949605 0.167580
H12   H     H_    0.695765 0.737457 0.050429 0.167593
C21   C     C_R   0.927669 0.888361 0.722847 -0.033928
C22   C     C_R   0.072350 0.388241 0.277139 -0.033784
C23   C     C_R   0.571761 0.848029 0.277380 -0.072803
C24   C     C_R   0.428245 0.348051 0.722621 -0.072792
C25   C     C_R   0.936339 0.953145 0.566464 -0.164904
C26   C     C_R   0.063602 0.451685 0.433598 -0.164909
C27   C     C_R   0.964839 0.936646 0.662699 -0.176520
C28   C     C_R   0.035123 0.435607 0.337339 -0.176632
C29   C     C_R   0.861804 0.857093 0.686791 -0.210594
C30   C     C_R   0.138244 0.357466 0.313159 -0.210525
C31   C     C_R   0.831101 0.878155 0.589452 0.083075
C32   C     C_R   0.168910 0.377933 0.410538 0.083095
C33   C     C_R   0.869947 0.926531 0.529604 0.139754
C34   C     C_R   0.130015 0.425459 0.470438 0.139768
C35   C     C_R   0.763330 0.856369 0.550039 0.061396
C36   C     C_R   0.236686 0.356297 0.449951 0.061394
C37   C     C_R   0.735470 0.883884 0.451313 0.071537
C38   C     C_R   0.264520 0.383426 0.548707 0.071544
C39   C     C_R   0.776657 0.931010 0.395099 -0.187109
C40   C     C_R   0.223287 0.429707 0.604974 -0.187072
C41   C     C_R   0.842318 0.951173 0.433610 -0.207367
C42   C     C_R   0.157612 0.449556 0.566474 -0.207374
C43   C     C_R   0.722579 0.808303 0.606253 -0.196947
C44   C     C_R   0.277460 0.308583 0.393720 -0.196949
C45   C     C_R   0.657278 0.784496 0.568036 -0.202641
C46   C     C_R   0.342761 0.284774 0.431948 -0.202658
C47   C     C_R   0.628697 0.807009 0.471525 0.127482
C48   C     C_R   0.371324 0.307078 0.528474 0.127497
C49   C     C_R   0.667556 0.860702 0.411968 0.050327
C50   C     C_R   0.332447 0.360546 0.588038 0.050338
C51   C     C_R   0.562012 0.772997 0.433184 0.171672
C52   C     C_R   0.438008 0.273061 0.566824 0.171667
C53   C     C_R   0.534606 0.791997 0.336183 -0.167016
C54   C     C_R   0.465406 0.292021 0.663827 -0.167010
C55   C     C_R   0.637100 0.884435 0.314751 -0.220275
C56   C     C_R   0.362902 0.384388 0.685245 -0.220314
H13   H     H_    0.871799 0.987978 0.387571 0.122213
H14   H     H_    0.128093 0.485658 0.612558 0.122195
H15   H     H_    0.662875 0.924154 0.264903 0.100958
H16   H     H_    0.337128 0.424244 0.735073 0.100991
H17   H     H_    0.484211 0.760315 0.305753 0.105711
H18   H     H_    0.515800 0.260335 0.694265 0.105710
H19   H     H_    0.629539 0.746001 0.615974 0.137539
H20   H     H_    0.370515 0.246463 0.384005 0.137540
H21   H     H_    0.966043 0.991021 0.520938 0.118335
H22   H     H_    0.033857 0.488864 0.479168 0.118323
H23   H     H_    0.015738 0.963914 0.690497 0.105751
H24   H     H_    0.984194 0.462453 0.309569 0.105698
H25   H     H_    0.836036 0.823772 0.737549 0.094093
H26   H     H_    0.164055 0.324939 0.262358 0.093980
H27   H     H_    0.760034 0.953321 0.320374 0.119781
H28   H     H_    0.239878 0.451393 0.679747 0.119736
H29   H     H_    0.739437 0.785656 0.680942 0.122631
H30   H     H_    0.260613 0.286058 0.319022 0.122645
O11   O     O_R   0.036080 0.231270 0.130120 -0.538489
O12   O     O_R   0.963920 0.731270 0.869880 -0.538502
O13   O     O_R   0.911300 0.558970 0.006750 -0.541117
O14   O     O_R   0.088700 0.058970 0.993250 -0.541120
C57   C     C_R   0.884866 0.389940 0.001903 0.687646
C58   C     C_R   0.115134 0.889940 0.998097 0.687659
O15   O     O_R   0.032450 0.561140 0.138040 -0.537965
O16   O     O_R   0.967550 0.061140 0.861960 -0.537967
O17   O     O_R   0.085870 0.728910 0.002130 -0.539871
O18   O     O_R   0.914130 0.228910 0.997870 -0.539864
C59   C     C_R   0.044327 0.392804 0.175262 0.692203
C60   C     C_R   0.955676 0.892820 0.824734 0.692195
O19   O     O_3   0.017320 0.394650 0.955270 -0.373667
O20   O     O_3   0.982680 0.894650 0.044730 -0.373648
V3    V     V_3+5 0.996780 0.670490 0.008300 1.409278
V4    V     V_3+5 0.003220 0.170490 0.991700 1.409274
C61   C     C_3   0.519964 0.708315 0.493633 -0.825787
H31   H     H_    0.469477 0.685269 0.451867 0.215966
H32   H     H_    0.538796 0.573713 0.528856 0.222503
H33   H     H_    0.520027 0.815029 0.548595 0.216192
C62   C     C_3   0.480059 0.208347 0.506386 -0.825785
H34   H     H_    0.530540 0.185243 0.548162 0.215958
H35   H     H_    0.461216 0.073764 0.471162 0.222516
H36   H     H_    0.480013 0.315059 0.451425 0.216181

loop_
_geom_bond_atom_site_label_1
_geom_bond_atom_site_label_2
_ccdc_geom_bond_type
C14   C16   A    
C39   C41   A    
O12   C60   A    
C31   C35   A    
C61   H32   S    
C20   H10   S    
O1    C3    A    
C23   C55   A    
C56   H16   S    
C46   H20   S    
O11   V4    S    
O20   V4    S    
O5    C3    A    
C17   H7    S    
O16   V4    S    
C18   H8    S    
O15   V3    S    
C7    C9    A    
C52   C54   A    
C17   C19   S    
C21   C27   A    
O18   V4    S    
C61   H31   S    
O11   C59   A    
C39   H27   S    
C25   C33   A    
C36   C38   A    
C24   C54   A    
C45   C47   A    
O17   V3    S    
C38   C40   A    
C35   C43   A    
C34   C42   A    
C25   C27   A    
C14   C57   S    
C26   C28   A    
C15   C17   S    
C57   O18   A    
C19   H11   S    
C18   C20   S    
C45   H19   S    
C48   C52   A    
C27   H23   S    
C54   H18   S    
C29   C31   A    
O2    C4    A    
O6    V2    S    
C50   C56   A    
C2    O7    A    
O20   V3    S    
C26   H22   S    
C22   C59   S    
C62   H35   S    
C11   C13   A    
C1    C24   S    
C30   C32   A    
C3    C8    S    
C35   C37   A    
C52   C62   S    
C2    C23   S    
C29   H25   S    
C26   C34   A    
C40   H28   S    
C48   C50   A    
C25   H21   S    
C47   C49   A    
C21   C60   S    
C37   C49   A    
C21   C29   A    
C17   H5    S    
C32   C36   A    
C13   C58   S    
C43   C45   A    
C40   C42   A    
O4    V2    S    
O14   V4    S    
C42   H14   S    
C41   H13   S    
O6    C4    A    
C61   H33   S    
C22   C30   A    
C37   C39   A    
C49   C55   A    
O19   V3    S    
O1    V2    S    
O14   C58   A    
O2    V1    S    
C51   C53   A    
O4    C2    A    
C8    C10   A    
C12   C14   A    
C31   C33   A    
C5    C15   A    
C10   H2    S    
C28   H24   S    
C6    C16   A    
C23   C53   A    
O3    V1    S    
O16   C60   A    
C62   H36   S    
C9    C11   A    
C18   H6    S    
O12   V3    S    
C33   C41   A    
O3    C1    A    
C62   H34   S    
C11   H3    S    
C12   H4    S    
C24   C56   A    
C9    H1    S    
O7    V1    S    
C1    O8    A    
C13   C15   A    
O8    V2    S    
C22   C28   A    
C47   C51   A    
O15   C59   A    
C4    C7    S    
O5    V1    S    
C5    C7    A    
C32   C34   A    
O19   V4    S    
C6    C8    A    
O13   V3    S    
C19   H9    S    
C44   H30   S    
C30   H26   S    
C20   H12   S    
C43   H29   S    
C53   H17   S    
C55   H15   S    
C51   C61   S    
C36   C44   A    
O13   C57   A    
C10   C12   A    
O9    V2    S    
C44   C46   A    
O10   V1    S    
C38   C50   A    
C46   C48   A    
C5    C19   S    
C6    C20   S    
C58   O17   A    
C16   C18   S    
