data_str_m3_o4_o18_f0_pcu.sym.218
_audit_creation_date              2012-12-10T20:31:55-0500
_audit_creation_method            fapswitch 2.2
_symmetry_space_group_name_H-M    P1
_symmetry_Int_Tables_number       1
_space_group_crystal_system       triclinic
_cell_length_a                    9.869374
_cell_length_b                    10.686453
_cell_length_c                    15.633942
_cell_angle_alpha                 90.78994
_cell_angle_beta                  67.481098
_cell_angle_gamma                 90.640659
_cell_volume                      1522.99162141

loop_
_atom_site_label
_atom_site_type_symbol
_atom_type_description
_atom_site_fract_x
_atom_site_fract_y
_atom_site_fract_z
_atom_type_partial_charge
C1    C     C_R   0.498286 0.740004 0.503761 0.875258
C2    C     C_R   0.416548 0.492513 0.911948 0.113339
C3    C     C_R   0.288960 0.421146 0.960915 0.143020
C4    C     C_R   0.521763 0.517468 0.952536 0.043493
C5    C     C_R   0.496052 0.468843 0.041198 0.067501
C6    C     C_R   0.372172 0.391350 0.084341 -0.226050
C7    C     C_R   0.267978 0.372135 0.046728 -0.234579
C8    C     C_R   0.652911 0.586147 0.907049 -0.282269
C9    C     C_R   0.759031 0.603652 0.945510 0.142098
C10   C     C_R   0.731361 0.557593 0.034841 0.137823
C11   C     C_R   0.595480 0.497107 0.084384 0.050564
C12   C     C_R   0.407315 0.497519 0.676103 0.865692
C13   C     C_R   0.832438 0.575088 0.078269 -0.207749
C14   C     C_R   0.792215 0.548633 0.171881 -0.210467
C15   C     C_R   0.556753 0.474920 0.178796 -0.249428
C16   C     C_R   0.363725 0.934356 0.524116 0.132359
C17   C     C_R   0.488592 0.871289 0.520294 -0.097280
C18   C     C_R   0.602065 0.936927 0.534499 -0.233306
C19   C     C_R   0.601796 0.066405 0.533901 -0.220113
C20   C     C_R   0.488210 0.128477 0.518891 -0.116199
C21   C     C_R   0.363590 0.062168 0.523329 0.114434
C22   C     C_3   0.281695 0.064984 0.460541 -0.416569
C23   C     C_R   0.498004 0.259759 0.502712 0.869872
C24   C     C_3   0.281041 0.923586 0.461790 -0.521656
C25   C     C_R   0.909786 0.600631 0.533703 0.215971
C26   C     C_R   0.952746 0.408135 0.456146 -0.288023
C27   C     C_R   0.100772 0.409695 0.452565 0.579441
C28   C     C_R   0.052177 0.600738 0.533491 0.123238
C29   C     C_3   0.001854 0.653676 0.628782 -0.516893
C30   C     C_3   0.847392 0.651830 0.629937 -0.508132
C31   C     C_R   0.592080 0.499703 0.324167 0.872684
C32   C     C_R   0.347691 0.485415 0.777530 -0.095219
C33   C     C_R   0.650874 0.504652 0.223169 -0.064642
C34   C     C_R   0.187540 0.391187 0.921242 -0.249001
C35   C     C_R   0.216881 0.418617 0.828735 0.150249
C36   C     C_R   0.437928 0.529505 0.822048 -0.303171
H1    H     H_    0.173888 0.313054 0.083098 0.143702
H2    H     H_    0.940542 0.614205 0.042168 0.157520
H3    H     H_    0.695543 0.889358 0.538816 0.164909
H4    H     H_    0.695104 0.116497 0.538139 0.171341
H5    H     H_    0.170484 0.105609 0.495226 0.225832
H6    H     H_    0.349378 0.103383 0.391495 0.225337
H7    H     H_    0.169621 0.883018 0.497261 0.204700
H8    H     H_    0.346644 0.880603 0.393349 0.210728
H9    H     H_    0.913256 0.333167 0.424616 0.165381
H10   H     H_    0.017413 0.587532 0.677931 0.196633
H11   H     H_    0.448014 0.443395 0.221367 0.174277
H12   H     H_    0.045226 0.749610 0.630596 0.203699
H13   H     H_    0.774856 0.583063 0.679349 0.211931
H14   H     H_    0.800494 0.746698 0.633422 0.193084
H15   H     H_    0.868110 0.569841 0.205109 0.159378
H16   H     H_    0.090239 0.337169 0.960499 0.143949
H17   H     H_    0.529781 0.586712 0.782013 0.149865
H18   H     H_    0.356090 0.339250 0.145705 0.137741
H19   H     H_    0.676238 0.628987 0.841207 0.148860
N1    N     N_R   0.856900 0.500860 0.500610 -0.120479
N2    N     N_R   0.142540 0.500820 0.500610 -0.146158
O1    O     O_R   0.385310 0.683210 0.499990 -0.614004
O2    O     O_R   0.614650 0.683240 0.500000 -0.620028
O3    O     O_R   0.319830 0.499970 0.632240 -0.621193
O4    O     O_R   0.549170 0.500000 0.632250 -0.609377
O5    O     O_R   0.385350 0.316760 0.500000 -0.560925
O6    O     O_R   0.614690 0.316790 0.500010 -0.626978
O7    O     O_R   0.450830 0.500000 0.367750 -0.582200
O8    O     O_R   0.680170 0.500030 0.367760 -0.616921
Zn1   Zn    Zn3+2 0.346870 0.499980 0.499990 0.980020
Zn2   Zn    Zn3+2 0.653130 0.500020 0.500010 0.939188
O9    O     O_3   0.203951 0.319759 0.405286 -0.578489
C37   C     C_3   0.179051 0.265929 0.329582 -0.443115
H20   H     H_    0.281585 0.220335 0.283009 0.192140
H21   H     H_    0.149891 0.337230 0.288330 0.167875
H22   H     H_    0.093692 0.191523 0.353689 0.177429
C38   C     C_3   0.895205 0.679854 0.891685 -0.435200
C39   C     C_3   0.885381 0.813099 0.930209 -0.848376
H23   H     H_    0.788726 0.861114 0.926239 0.262711
H24   H     H_    0.875637 0.813589 0.003270 0.258033
H25   H     H_    0.985781 0.866263 0.888426 0.245649
H26   H     H_    0.995623 0.632825 0.890487 0.202003
H27   H     H_    0.908462 0.687534 0.818405 0.214751
C40   C     C_3   0.112861 0.364439 0.787337 -0.415101
C41   C     C_3   0.169633 0.240622 0.737411 -0.800013
H28   H     H_    0.097106 0.207354 0.702179 0.240876
H29   H     H_    0.282371 0.251979 0.685031 0.253896
H30   H     H_    0.170817 0.168923 0.787887 0.245639
H31   H     H_    0.003046 0.346967 0.842533 0.196425
H32   H     H_    0.092517 0.431236 0.740653 0.216768

loop_
_geom_bond_atom_site_label_1
_geom_bond_atom_site_label_2
_ccdc_geom_bond_type
C16   C21   A    
C38   C39   S    
C19   C20   A    
C25   N1    A    
C15   H11   S    
N2    Zn1   S    
C4    C8    A    
C14   C33   A    
C41   H28   S    
C22   H6    S    
C28   N2    A    
C25   C28   A    
C26   C27   A    
C40   H31   S    
C39   H24   S    
C32   C36   A    
C28   C29   S    
C5    C11   A    
C3    C7    A    
C1    O2    A    
C5    C6    A    
C22   H5    S    
C35   C40   S    
C18   C19   A    
C34   C35   A    
C37   H21   S    
C40   H32   S    
C27   O9    S    
C26   H9    S    
O2    Zn2   S    
O9    C37   S    
C11   C15   A    
O1    Zn1   S    
C23   O5    A    
C8    C9    A    
O8    Zn2   S    
C39   H25   S    
C38   H26   S    
C31   C33   S    
C36   H17   S    
C9    C10   A    
C23   O6    A    
C30   H14   S    
O3    Zn1   S    
C16   C24   S    
C13   C14   A    
C12   C32   S    
C9    C38   S    
C6    H18   S    
C8    H19   S    
C41   H29   S    
C19   H4    S    
C7    H1    S    
O6    Zn2   S    
C39   H23   S    
O5    Zn1   S    
C29   H12   S    
C32   C35   A    
C27   N2    A    
C4    C5    A    
C3    C34   A    
O7    Zn1   S    
C37   H22   S    
C2    C4    A    
C18   H3    S    
C29   C30   S    
O4    Zn2   S    
C14   H15   S    
C20   C23   S    
C17   C18   A    
C38   H27   S    
C13   H2    S    
C30   H13   S    
C24   H8    S    
C22   C24   S    
C41   H30   S    
C2    C36   A    
C25   C30   S    
C31   O8    A    
C34   H16   S    
C31   O7    A    
C40   C41   S    
C10   C13   A    
C26   N1    A    
C6    C7    A    
N1    Zn2   S    
C1    C17   S    
C29   H10   S    
C2    C3    A    
C1    O1    A    
C12   O4    A    
C16   C17   A    
C37   H20   S    
C10   C11   A    
C12   O3    A    
C20   C21   A    
C24   H7    S    
C21   C22   S    
C15   C33   A    
