data_str_m3_o40_o40_f0_fof.sym.85
_audit_creation_date              2012-12-10T16:37:27-0500
_audit_creation_method            fapswitch 2.2
_symmetry_space_group_name_H-M    P1
_symmetry_Int_Tables_number       1
_space_group_crystal_system       triclinic
_cell_length_a                    16.774243
_cell_length_b                    16.967483
_cell_length_c                    16.967465
_cell_angle_alpha                 65.958041
_cell_angle_beta                  65.651341
_cell_angle_gamma                 65.651367
_cell_volume                      3840.85928496

loop_
_atom_site_label
_atom_site_type_symbol
_atom_type_description
_atom_site_fract_x
_atom_site_fract_y
_atom_site_fract_z
_atom_type_partial_charge
C1    C     C_R   0.457441 0.936467 0.689867 -0.214131
C2    C     C_R   0.457439 0.689867 0.936469 -0.214131
C3    C     C_R   0.909360 0.606701 0.345556 -0.210358
C4    C     C_R   0.925812 0.444809 0.704371 -0.223289
C5    C     C_R   0.963629 0.179123 0.437202 0.900644
C6    C     C_R   0.017655 0.824814 0.569026 0.915501
C7    C     C_R   0.179326 0.438439 0.961013 0.925062
C8    C     C_R   0.820678 0.561634 0.038816 0.887143
C9    C     C_R   0.430420 0.979983 0.176117 0.913927
C10   C     C_R   0.569604 0.019924 0.823906 0.913523
C11   C     C_R   0.569604 0.823906 0.019924 0.913522
C12   C     C_R   0.542916 0.062721 0.310325 -0.216574
C13   C     C_R   0.430420 0.176117 0.979983 0.913927
C14   C     C_R   0.017656 0.569026 0.824814 0.915501
C15   C     C_R   0.963628 0.437202 0.179123 0.900642
C16   C     C_R   0.820678 0.038816 0.561634 0.887144
C17   C     C_R   0.179326 0.961013 0.438439 0.925063
C18   C     C_R   0.501416 0.951211 0.733605 -0.188381
C19   C     C_R   0.498710 0.048334 0.266565 -0.188704
C20   C     C_R   0.943199 0.746667 0.488431 -0.182969
C21   C     C_R   0.909192 0.297300 0.557326 -0.188612
C22   C     C_R   0.696486 0.449377 0.082548 -0.187556
C23   C     C_R   0.925810 0.704372 0.444809 -0.223286
C24   C     C_R   0.303883 0.550723 0.916567 -0.181448
C25   C     C_R   0.303883 0.916567 0.550723 -0.181448
C26   C     C_R   0.696486 0.082548 0.449377 -0.187556
C27   C     C_R   0.498711 0.266565 0.048334 -0.188704
C28   C     C_R   0.501414 0.733605 0.951213 -0.188382
C29   C     C_R   0.909186 0.557326 0.297302 -0.188611
C30   C     C_R   0.943202 0.488430 0.746666 -0.182970
C31   C     C_R   0.547564 0.010564 0.545498 0.016429
C32   C     C_R   0.452993 0.988305 0.454654 0.016009
C33   C     C_R   0.941927 0.567235 0.567234 0.021880
C34   C     C_R   0.909368 0.345554 0.606700 -0.210358
C35   C     C_R   0.921345 0.473844 0.473844 0.016784
C36   C     C_R   0.547563 0.545498 0.010564 0.016429
C37   C     C_R   0.452993 0.454654 0.988305 0.016009
C38   C     C_R   0.573595 0.039092 0.450072 0.048702
C39   C     C_R   0.427033 0.959655 0.550082 0.047962
C40   C     C_R   0.929681 0.480281 0.612621 0.053141
C41   C     C_R   0.920008 0.565595 0.432923 0.049877
C42   C     C_R   0.475861 0.595530 0.969291 0.054010
C43   C     C_R   0.524709 0.404632 0.029559 0.053693
C44   C     C_R   0.524709 0.029559 0.404632 0.053693
C45   C     C_R   0.648747 0.403505 0.075197 -0.217354
C46   C     C_R   0.475862 0.969290 0.595530 0.054010
C47   C     C_R   0.427033 0.550082 0.959655 0.047962
C48   C     C_R   0.573596 0.450072 0.039092 0.048702
C49   C     C_R   0.920011 0.432923 0.565594 0.049878
C50   C     C_R   0.929679 0.612622 0.480281 0.053140
C51   C     C_R   0.566109 0.999499 0.686263 0.066233
C52   C     C_R   0.434092 0.999962 0.313862 0.067058
C53   C     C_R   0.972247 0.698481 0.567070 0.070972
C54   C     C_R   0.924937 0.331215 0.463133 0.071208
C55   C     C_R   0.671539 0.543838 0.054639 0.078791
C56   C     C_R   0.351878 0.596621 0.923534 -0.211976
C57   C     C_R   0.328718 0.456267 0.944682 0.078636
C58   C     C_R   0.328718 0.944681 0.456268 0.078637
C59   C     C_R   0.671539 0.054639 0.543838 0.078791
C60   C     C_R   0.434092 0.313861 0.999962 0.067059
C61   C     C_R   0.566108 0.686263 0.999499 0.066234
C62   C     C_R   0.924935 0.463133 0.331215 0.071208
C63   C     C_R   0.972248 0.567070 0.698481 0.070974
C64   C     C_R   0.605946 0.023786 0.729761 -0.120393
C65   C     C_R   0.394118 0.975945 0.270295 -0.120592
C66   C     C_R   0.004814 0.735517 0.607211 -0.108434
C67   C     C_R   0.351878 0.923535 0.596622 -0.211976
C68   C     C_R   0.940027 0.278055 0.407901 -0.128487
C69   C     C_R   0.721928 0.593283 0.056101 -0.131413
C70   C     C_R   0.278140 0.406785 0.943569 -0.142794
C71   C     C_R   0.278140 0.943568 0.406785 -0.142795
C72   C     C_R   0.721928 0.056101 0.593283 -0.131413
C73   C     C_R   0.394118 0.270295 0.975945 -0.120592
C74   C     C_R   0.605946 0.729761 0.023786 -0.120393
C75   C     C_R   0.940026 0.407901 0.278055 -0.128488
C76   C     C_R   0.004815 0.607211 0.735516 -0.108434
C77   C     C_R   0.682191 0.052892 0.682423 -0.298140
C78   C     C_R   0.648747 0.075197 0.403505 -0.217355
C79   C     C_R   0.317820 0.946917 0.317596 -0.294731
C80   C     C_R   0.024201 0.687377 0.687377 -0.327811
C81   C     C_R   0.943974 0.318187 0.318187 -0.301741
C82   C     C_R   0.682191 0.682423 0.052892 -0.298141
C83   C     C_R   0.317819 0.317596 0.946918 -0.294730
C84   C     C_R   0.594294 0.022594 0.591609 0.076513
C85   C     C_R   0.406075 0.976569 0.408523 0.078188
C86   C     C_R   0.963922 0.610161 0.610161 0.070410
C87   C     C_R   0.923566 0.422783 0.422783 0.079567
C88   C     C_R   0.594294 0.591609 0.022594 0.076513
C89   C     C_R   0.542917 0.310325 0.062720 -0.216573
C90   C     C_R   0.406075 0.408523 0.976569 0.078188
H1    H     H_    0.410039 0.897661 0.732625 0.131311
H2    H     H_    0.410036 0.732625 0.897665 0.131310
H3    H     H_    0.901260 0.677471 0.311630 0.137850
H4    H     H_    0.907580 0.383668 0.746747 0.138347
H5    H     H_    0.716020 0.064703 0.717251 0.194743
H6    H     H_    0.283897 0.935326 0.282699 0.196827
H7    H     H_    0.051389 0.715017 0.715017 0.189502
H8    H     H_    0.956413 0.277035 0.277035 0.198400
H9    H     H_    0.716020 0.717252 0.064702 0.194743
H10   H     H_    0.283896 0.282698 0.935327 0.196827
H11   H     H_    0.485239 0.921013 0.805013 0.158834
H12   H     H_    0.590203 0.101665 0.267626 0.131320
H13   H     H_    0.514564 0.078956 0.195203 0.158971
H14   H     H_    0.929820 0.818381 0.458752 0.190473
H15   H     H_    0.894398 0.233827 0.595754 0.173672
H16   H     H_    0.751449 0.409772 0.113153 0.161929
H17   H     H_    0.248783 0.590273 0.886141 0.161018
H18   H     H_    0.248782 0.886140 0.590274 0.161018
H19   H     H_    0.751450 0.113153 0.409772 0.161929
H20   H     H_    0.514565 0.195203 0.078955 0.158972
H21   H     H_    0.485237 0.805013 0.921015 0.158836
H22   H     H_    0.894391 0.595753 0.233829 0.173669
H23   H     H_    0.907579 0.746748 0.383668 0.138347
H24   H     H_    0.929824 0.458749 0.818379 0.190475
H25   H     H_    0.901277 0.311624 0.677468 0.137848
H26   H     H_    0.674163 0.331033 0.097090 0.134146
H27   H     H_    0.326621 0.669091 0.901391 0.134564
H28   H     H_    0.326620 0.901392 0.669092 0.134564
H29   H     H_    0.674162 0.097090 0.331033 0.134146
H30   H     H_    0.590204 0.267625 0.101663 0.131319
O1    O     O_R   0.982940 0.138950 0.510160 -0.633417
O2    O     O_R   0.982940 0.510160 0.138950 -0.633414
O3    O     O_R   0.861050 0.017060 0.489840 -0.644770
O4    O     O_R   0.138950 0.982940 0.510160 -0.625514
O5    O     O_R   0.867700 0.025880 0.612340 -0.631548
O6    O     O_R   0.132300 0.974120 0.387660 -0.616352
O7    O     O_R   0.025880 0.612340 0.867700 -0.632982
O8    O     O_R   0.974120 0.387660 0.132300 -0.630423
O9    O     O_R   0.612340 0.867700 0.025880 -0.626698
O10   O     O_R   0.387660 0.132300 0.974120 -0.624897
O11   O     O_R   0.387660 0.974120 0.132300 -0.624896
O12   O     O_R   0.017060 0.861050 0.489840 -0.651038
O13   O     O_R   0.612340 0.025880 0.867700 -0.626698
O14   O     O_R   0.132300 0.387660 0.974120 -0.616352
O15   O     O_R   0.867700 0.612340 0.025880 -0.631549
O16   O     O_R   0.974120 0.132300 0.387660 -0.630424
O17   O     O_R   0.025880 0.867700 0.612340 -0.632982
O18   O     O_R   0.138950 0.510160 0.982940 -0.625514
O19   O     O_R   0.861050 0.489840 0.017060 -0.644770
O20   O     O_R   0.510160 0.982940 0.138950 -0.645887
O21   O     O_R   0.489840 0.017060 0.861050 -0.644452
O22   O     O_R   0.489840 0.861050 0.017060 -0.644453
O23   O     O_R   0.510160 0.138950 0.982940 -0.645887
O24   O     O_R   0.017060 0.489840 0.861050 -0.651039
Zn1   Zn    Zn3+2 0.004880 0.004880 0.583590 0.937774
Zn2   Zn    Zn3+2 0.995120 0.995120 0.416410 0.928809
Zn3   Zn    Zn3+2 0.004880 0.583590 0.004880 0.937776
Zn4   Zn    Zn3+2 0.995120 0.416410 0.995120 0.928809
Zn5   Zn    Zn3+2 0.583590 0.004880 0.004880 0.933613
Zn6   Zn    Zn3+2 0.416410 0.995120 0.995120 0.940397

loop_
_geom_bond_atom_site_label_1
_geom_bond_atom_site_label_2
_ccdc_geom_bond_type
C5    O16   A    
C15   C75   S    
C65   C79   A    
C15   O2    A    
C80   H7    S    
C82   H9    S    
C29   H22   S    
C36   C42   A    
C16   C72   S    
C10   O13   A    
O24   Zn4   S    
C7    C70   S    
C71   C79   A    
O6    Zn2   S    
C21   H15   S    
C36   C88   A    
C12   H12   S    
C1    C18   A    
C26   C78   A    
C37   C90   A    
C8    O19   A    
C68   C81   A    
O17   Zn1   S    
C52   C85   A    
C16   O3    A    
C27   C60   A    
C30   H24   S    
C54   C87   A    
C9    O20   A    
C17   O6    A    
C54   C68   A    
C81   H8    S    
C40   C49   A    
C5    O1    A    
C60   C73   A    
O4    Zn1   S    
C64   C77   A    
C32   C39   A    
C55   C88   A    
C3    C29   A    
C69   C82   A    
C35   C87   A    
C19   C52   A    
O10   Zn6   S    
C4    C40   A    
C27   H20   S    
C24   C57   A    
C31   C46   A    
C25   C67   A    
C35   C49   A    
C13   O10   A    
C20   C23   A    
C36   C48   A    
C53   C86   A    
C57   C70   A    
C37   C47   A    
C43   C48   A    
C59   C72   A    
C28   C61   A    
C1    H1    S    
C30   C63   A    
C8    O15   A    
C56   H27   S    
C19   H13   S    
C74   C82   A    
C5    C68   S    
C35   C41   A    
C11   O9    A    
C11   O22   A    
O21   Zn6   S    
C18   H11   S    
C9    O11   A    
C28   H21   S    
C32   C44   A    
C14   O24   A    
O19   Zn4   S    
C33   C40   A    
C57   C90   A    
O13   Zn5   S    
C59   C84   A    
C7    O14   A    
C6    O12   A    
C89   H30   S    
O8    Zn4   S    
C23   C50   A    
C21   C34   A    
C38   C78   A    
C33   C50   A    
C22   H16   S    
C77   H5    S    
C4    C30   A    
C14   O7    A    
C10   O21   A    
C14   C76   S    
C37   C43   A    
C33   C86   A    
C38   C44   A    
C72   C77   A    
C70   C83   A    
C61   C88   A    
C23   H23   S    
C17   O4    A    
O3    Zn2   S    
O23   Zn5   S    
O18   Zn3   S    
C8    C69   S    
C3    H3    S    
C24   H17   S    
C43   C89   A    
O2    Zn3   S    
C2    H2    S    
C53   C66   A    
C26   H19   S    
C55   C69   A    
C39   C46   A    
C4    H4    S    
C16   O5    A    
C13   C73   S    
C17   C71   S    
O15   Zn3   S    
C83   H10   S    
C63   C86   A    
C61   C74   A    
O1    Zn1   S    
C62   C75   A    
C25   C58   A    
C58   C85   A    
C41   C50   A    
C66   C80   A    
C26   C59   A    
C45   C48   A    
C29   C62   A    
C3    C41   A    
C34   C49   A    
C39   C67   A    
C75   C81   A    
C51   C64   A    
C76   C80   A    
C20   C53   A    
C11   C74   S    
C7    O18   A    
C22   C55   A    
C20   H14   S    
C60   C90   A    
C18   C51   A    
C24   C56   A    
O14   Zn4   S    
C62   C87   A    
C10   C64   S    
C31   C38   A    
C15   O8    A    
O12   Zn2   S    
O22   Zn6   S    
C6    O17   A    
C78   H29   S    
C34   H25   S    
C79   H6    S    
C12   C44   A    
O5    Zn1   S    
C45   H26   S    
C21   C54   A    
C2    C42   A    
C32   C85   A    
O20   Zn5   S    
C12   C19   A    
C27   C89   A    
C42   C47   A    
C13   O23   A    
C1    C46   A    
C67   H28   S    
C9    C65   S    
C58   C71   A    
C31   C84   A    
C6    C66   S    
C22   C45   A    
C63   C76   A    
O11   Zn6   S    
C2    C28   A    
O9    Zn5   S    
C51   C84   A    
C73   C83   A    
O16   Zn2   S    
C52   C65   A    
C25   H18   S    
O7    Zn3   S    
C47   C56   A    
