data_str_m4_o1_o11_f0_acs.sym.78
_audit_creation_date              2012-12-11T14:42:22-0500
_audit_creation_method            fapswitch 2.2
_symmetry_space_group_name_H-M    P1
_symmetry_Int_Tables_number       1
_space_group_crystal_system       triclinic
_cell_length_a                    18.915309
_cell_length_b                    10.951939
_cell_length_c                    18.904115
_cell_angle_alpha                 90.198276
_cell_angle_beta                  90.198001
_cell_angle_gamma                 89.822592
_cell_volume                      3916.0979645

loop_
_atom_site_label
_atom_site_type_symbol
_atom_type_description
_atom_site_fract_x
_atom_site_fract_y
_atom_site_fract_z
_atom_type_partial_charge
C1    C     C_R   0.728531 0.953643 0.852549 0.530055
C2    C     C_R   0.250319 0.409416 0.922002 -0.051701
C3    C     C_2   0.872498 0.014193 0.427776 0.232141
C4    C     C_2   0.615481 0.470297 0.935121 0.345306
C5    C     C_2   0.363856 0.524657 0.073611 0.332238
C6    C     C_2   0.115302 0.968547 0.935292 0.356948
C7    C     C_2   0.841700 0.065762 0.075696 0.302629
C8    C     C_2   0.628959 0.437257 0.089734 0.185470
C9    C     C_2   0.369228 0.510381 0.918681 0.245079
C10   C     C_2   0.128954 0.938052 0.089789 0.188612
C11   C     C_2   0.874547 0.987775 0.923167 0.305323
C12   C     C_2   0.879586 0.406005 0.913111 0.267747
C13   C     C_R   0.259625 0.926876 0.071543 -0.025953
C14   C     C_2   0.136509 0.270033 0.058522 0.293566
C15   C     C_2   0.379396 0.909474 0.912660 0.280315
C16   C     C_2   0.636564 0.766922 0.058926 0.293992
C17   C     C_R   0.749307 0.911013 0.922923 -0.072974
C18   C     C_R   0.819268 0.416852 0.028261 -0.069341
C19   C     C_R   0.199817 0.341927 0.957350 -0.126519
C20   C     C_R   0.319279 0.915844 0.028229 -0.075879
C21   C     C_R   0.698226 0.844375 0.958081 -0.124453
C22   C     C_R   0.813761 0.414190 0.955500 -0.011723
C23   C     C_R   0.198331 0.336930 0.029693 -0.039452
C24   C     C_R   0.313710 0.914676 0.955404 -0.013885
C25   C     C_R   0.273614 0.956827 0.145581 0.530805
C26   C     C_R   0.697374 0.836816 0.030363 -0.026935
C27   C     C_R   0.746283 0.419436 0.924085 -0.033453
C28   C     C_R   0.253794 0.392991 0.069932 -0.013111
C29   C     C_R   0.246212 0.919460 0.924100 -0.033950
C30   C     C_R   0.751391 0.896421 0.070966 -0.063112
C31   C     C_R   0.541667 0.267617 0.526092 -0.085109
C32   C     C_R   0.534167 0.262266 0.454102 -0.097067
C33   C     C_R   0.041650 0.767638 0.526095 -0.085207
C34   C     C_R   0.034154 0.762287 0.454104 -0.096125
C35   C     C_R   0.501713 0.161448 0.423623 0.017799
C36   C     C_R   0.228627 0.453342 0.852272 0.538407
C37   C     C_R   0.518685 0.170236 0.568219 0.039686
C38   C     C_R   0.001722 0.661451 0.423620 0.019047
C39   C     C_R   0.018687 0.670236 0.568218 0.039712
C40   C     C_R   0.484196 0.058942 0.464685 -0.136952
C41   C     C_R   0.492879 0.063420 0.537344 -0.144849
C42   C     C_R   0.984227 0.558927 0.464677 -0.136725
C43   C     C_R   0.992907 0.563404 0.537337 -0.144776
C44   C     C_R   0.794056 0.327815 0.530833 -0.146168
C45   C     C_R   0.187773 0.391674 0.457994 -0.163972
C46   C     C_R   0.294055 0.827813 0.530834 -0.146677
C47   C     C_R   0.773587 0.456852 0.145591 0.516365
C48   C     C_R   0.687772 0.891669 0.457994 -0.164296
C49   C     C_R   0.794597 0.336945 0.458563 -0.167560
C50   C     C_R   0.183450 0.395055 0.530375 -0.157711
C51   C     C_R   0.294596 0.836944 0.458563 -0.166755
C52   C     C_R   0.683450 0.895050 0.530375 -0.157737
C53   C     C_R   0.531295 0.177853 0.851675 0.535189
C54   C     C_R   0.470572 0.177852 0.149531 0.538228
C55   C     C_R   0.031150 0.677808 0.851594 0.536407
C56   C     C_R   0.970514 0.677823 0.149474 0.550440
C57   C     C_R   0.749695 0.418729 0.424142 0.012264
C58   C     C_R   0.691618 0.437138 0.041682 -0.054570
C59   C     C_R   0.242101 0.427699 0.572065 0.012979
C60   C     C_R   0.249696 0.918731 0.424143 0.012637
C61   C     C_R   0.742100 0.927698 0.572065 0.012608
C62   C     C_R   0.698287 0.485954 0.463772 -0.006050
C63   C     C_R   0.306659 0.459645 0.539282 -0.004171
C64   C     C_R   0.198289 0.985958 0.463774 -0.006499
C65   C     C_R   0.806657 0.959648 0.539281 -0.003964
C66   C     C_R   0.700598 0.481461 0.538676 -0.045466
C67   C     C_R   0.309838 0.462278 0.464461 -0.029480
C68   C     C_R   0.200600 0.981464 0.538677 -0.045366
C69   C     C_R   0.308480 0.459721 0.959106 -0.044516
C70   C     C_R   0.809835 0.962284 0.464459 -0.027506
C71   C     C_R   0.747790 0.398816 0.571756 -0.013283
C72   C     C_R   0.251324 0.417129 0.424448 -0.021081
C73   C     C_R   0.247791 0.898816 0.571757 -0.013246
C74   C     C_R   0.751322 0.917130 0.424447 -0.021941
C75   C     C_R   0.737903 0.365896 0.852829 0.527704
C76   C     C_R   0.262349 0.359598 0.145114 0.552571
C77   C     C_R   0.237887 0.865891 0.852835 0.526612
C78   C     C_R   0.761686 0.861193 0.145687 0.508589
C79   C     C_R   0.727283 0.956794 0.646316 0.568479
C80   C     C_R   0.191636 0.937153 0.041740 -0.057162
C81   C     C_R   0.271152 0.955310 0.352663 0.558060
C82   C     C_R   0.227283 0.456794 0.646316 0.566727
C83   C     C_R   0.771152 0.455310 0.352662 0.553592
C84   C     C_R   0.533516 0.176742 0.642583 0.557179
C85   C     C_R   0.470821 0.175170 0.354637 0.549661
C86   C     C_R   0.033518 0.676742 0.642582 0.557508
C87   C     C_R   0.970822 0.675170 0.354636 0.553006
C88   C     C_R   0.739187 0.361285 0.645541 0.521451
C89   C     C_R   0.260619 0.364870 0.353365 0.536516
C90   C     C_R   0.239187 0.861285 0.645541 0.520013
C91   C     C_R   0.807047 0.961048 0.960860 0.010348
C92   C     C_R   0.760619 0.864870 0.353365 0.530594
C93   C     C_2   0.502290 0.168094 0.923103 -0.147121
C94   C     C_2   0.505309 0.171814 0.080680 -0.143891
C95   C     C_2   0.001766 0.667925 0.922870 -0.153580
C96   C     C_2   0.004953 0.671572 0.080446 -0.129098
C97   C     C_2   0.504042 0.070956 0.040752 -0.140321
C98   C     C_2   0.522352 0.075158 0.965300 -0.111514
C99   C     C_2   0.003041 0.570703 0.040495 -0.138850
C100  C     C_2   0.021021 0.574347 0.964935 -0.118096
C101  C     C_R   0.685365 0.442311 0.967111 -0.017042
C102  C     C_R   0.759614 0.427297 0.071517 -0.042470
C103  C     C_R   0.308078 0.457883 0.033956 -0.021075
C104  C     C_R   0.185329 0.941903 0.967188 -0.026627
C105  C     C_R   0.802260 0.969239 0.035668 0.003778
C106  C     C_2   0.643690 0.562910 0.428525 0.305679
C107  C     C_2   0.370084 0.490008 0.582560 0.299038
C108  C     C_2   0.143694 0.062918 0.428528 0.305177
C109  C     C_2   0.870083 0.990013 0.582558 0.298805
C110  C     C_2   0.656087 0.563701 0.583292 0.213550
C111  C     C_2   0.372504 0.514176 0.427779 0.231931
C112  C     C_2   0.156092 0.063706 0.583295 0.213409
Cr1   Cr    Cr6+3 0.769270 0.163730 0.750710 1.062149
Cr2   Cr    Cr6+3 0.385840 0.322500 0.252290 1.095099
Cr3   Cr    Cr6+3 0.114160 0.822500 0.747710 1.101608
Cr4   Cr    Cr6+3 0.885840 0.822500 0.252290 1.072747
Cr5   Cr    Cr6+3 0.230730 0.163730 0.249290 1.070752
Cr6   Cr    Cr6+3 0.269270 0.663730 0.750710 1.076336
Cr7   Cr    Cr6+3 0.730730 0.663730 0.249290 1.073953
Cr8   Cr    Cr6+3 0.612620 0.009790 0.748780 1.061476
Cr9   Cr    Cr6+3 0.387380 0.009790 0.251220 1.055378
Cr10  Cr    Cr6+3 0.112620 0.509790 0.748780 1.058540
Cr11  Cr    Cr6+3 0.887380 0.509790 0.251220 1.042627
Cr12  Cr    Cr6+3 0.614160 0.322500 0.747710 1.099935
H1    H     H_    0.488791 0.984039 0.063241 0.213894
H2    H     H_    0.471793 0.244186 0.944083 0.093530
H3    H     H_    0.023586 0.756493 0.057800 0.150940
H4    H     H_    0.971755 0.744418 0.943962 0.133882
H5    H     H_    0.871652 0.414957 0.051360 0.194587
H6    H     H_    0.157310 0.297950 0.928213 0.215671
H7    H     H_    0.371688 0.913580 0.051306 0.186951
H8    H     H_    0.655868 0.800318 0.928775 0.217419
H9    H     H_    0.565575 0.348463 0.548646 0.195260
H10   H     H_    0.548902 0.340324 0.422787 0.213481
H11   H     H_    0.065539 0.848500 0.548650 0.195266
H12   H     H_    0.552345 0.998679 0.944135 0.217006
H13   H     H_    0.048874 0.840361 0.422793 0.213732
H14   H     H_    0.829636 0.261802 0.554468 0.138302
H15   H     H_    0.141601 0.363353 0.428177 0.144107
H16   H     H_    0.329634 0.761798 0.554468 0.138324
H17   H     H_    0.641601 0.863343 0.428178 0.144005
H18   H     H_    0.630501 0.652057 0.449470 0.144010
H19   H     H_    0.403483 0.566488 0.568662 0.149731
H20   H     H_    0.130508 0.152066 0.449472 0.143689
H21   H     H_    0.903479 0.066498 0.568662 0.149490
H22   H     H_    0.677774 0.600856 0.632025 0.133610
H23   H     H_    0.987628 0.484020 0.063134 0.214670
H24   H     H_    0.364866 0.568176 0.380314 0.124878
H25   H     H_    0.177780 0.100857 0.632028 0.133027
H26   H     H_    0.864855 0.068189 0.380311 0.115180
H27   H     H_    0.569043 0.418868 0.950147 0.140371
H28   H     H_    0.419178 0.510998 0.060763 0.179254
H29   H     H_    0.069433 0.915602 0.950168 0.168422
H30   H     H_    0.838420 0.072527 0.132673 0.113771
H31   H     H_    0.632952 0.393700 0.141087 0.133363
H32   H     H_    0.383657 0.469387 0.868377 0.128421
H33   H     H_    0.132815 0.894793 0.141235 0.134484
H34   H     H_    0.050385 0.497228 0.943671 0.220671
H35   H     H_    0.876659 0.992327 0.866067 0.135267
H36   H     H_    0.881438 0.445102 0.860467 0.108180
H37   H     H_    0.143467 0.190886 0.091770 0.186037
H38   H     H_    0.380180 0.947529 0.859728 0.106751
H39   H     H_    0.644723 0.687772 0.091876 0.188992
H40   H     H_    0.459211 0.979281 0.441580 0.149107
H41   H     H_    0.477918 0.985769 0.569280 0.134119
H42   H     H_    0.959261 0.479249 0.441568 0.149117
H43   H     H_    0.977962 0.485737 0.569270 0.134047
H44   H     H_    0.833233 0.283356 0.429727 0.132916
H45   H     H_    0.132506 0.374528 0.553423 0.169672
H46   H     H_    0.333231 0.783353 0.429727 0.134796
H47   H     H_    0.632507 0.874518 0.553424 0.169650
H48   H     H_    0.523705 0.256916 0.058076 0.137469
O1    O     O_R   0.784320 0.290430 0.830510 -0.510791
O2    O     O_R   0.456080 0.282180 0.333210 -0.473812
O3    O     O_R   0.043920 0.782180 0.666790 -0.477811
O4    O     O_R   0.956080 0.782180 0.333210 -0.474538
O5    O     O_R   0.679040 0.374160 0.674430 -0.503076
O6    O     O_R   0.320960 0.374160 0.325570 -0.498102
O7    O     O_R   0.179040 0.874160 0.674430 -0.503953
O8    O     O_R   0.820960 0.874160 0.325570 -0.505113
O9    O     O_3   0.665350 0.165340 0.749070 -0.272947
O10   O     O_3   0.334650 0.165340 0.250930 -0.272838
O11   O     O_3   0.165350 0.665340 0.749070 -0.275531
O12   O     O_R   0.215680 0.290430 0.169490 -0.546315
O13   O     O_3   0.834650 0.665340 0.250930 -0.261268
O14   O     O_R   0.762640 0.040960 0.825200 -0.510535
O15   O     O_R   0.237360 0.040960 0.174800 -0.519792
O16   O     O_R   0.262640 0.540960 0.825200 -0.492672
O17   O     O_R   0.737360 0.540960 0.174800 -0.510267
O18   O     O_R   0.667400 0.923970 0.829950 -0.500615
O19   O     O_R   0.332600 0.923970 0.170050 -0.487122
O20   O     O_R   0.167400 0.423970 0.829950 -0.505938
O21   O     O_R   0.832600 0.423970 0.170050 -0.509676
O22   O     O_R   0.553960 0.081340 0.821780 -0.487908
O23   O     O_R   0.284320 0.790430 0.830510 -0.497222
O24   O     O_R   0.446040 0.081340 0.178220 -0.500068
O25   O     O_R   0.053960 0.581340 0.821780 -0.489856
O26   O     O_R   0.946040 0.581340 0.178220 -0.500210
O27   O     O_R   0.543180 0.283240 0.826740 -0.502754
O28   O     O_R   0.456820 0.283240 0.173260 -0.499490
O29   O     O_R   0.043180 0.783240 0.826740 -0.494774
O30   O     O_R   0.956820 0.783240 0.173260 -0.482461
O31   O     O_R   0.678360 0.375140 0.822710 -0.470936
O32   O     O_R   0.321640 0.375140 0.177290 -0.471115
O33   O     O_R   0.178360 0.875140 0.822710 -0.475004
O34   O     O_R   0.715680 0.790430 0.169490 -0.531990
O35   O     O_R   0.821640 0.875140 0.177290 -0.513477
O36   O     O_R   0.785050 0.289380 0.670560 -0.524409
O37   O     O_R   0.214950 0.289380 0.329440 -0.509189
O38   O     O_R   0.285050 0.789380 0.670560 -0.524783
O39   O     O_R   0.714950 0.789380 0.329440 -0.508282
O40   O     O_R   0.763320 0.039990 0.676930 -0.477146
O41   O     O_R   0.236680 0.039990 0.323070 -0.458680
O42   O     O_R   0.263320 0.539990 0.676930 -0.478156
O43   O     O_R   0.736680 0.539990 0.323070 -0.457699
O44   O     O_R   0.668130 0.922920 0.670000 -0.523344
O45   O     O_R   0.554640 0.080370 0.673500 -0.514724
O46   O     O_R   0.331870 0.922920 0.330000 -0.524562
O47   O     O_R   0.168130 0.422920 0.670000 -0.524439
O48   O     O_R   0.831870 0.422920 0.330000 -0.531285
O49   O     O_2   0.611181 0.525474 0.376976 -0.492890
O50   O     O_2   0.386232 0.427756 0.633633 -0.484579
O51   O     O_2   0.111183 0.025483 0.376979 -0.493182
O52   O     O_2   0.886234 0.927757 0.633628 -0.484294
O53   O     O_2   0.594658 0.586486 0.568179 -0.519080
O54   O     O_2   0.432683 0.494325 0.448262 -0.492442
O55   O     O_2   0.094663 0.086499 0.568181 -0.519379
O56   O     O_R   0.445360 0.080370 0.326500 -0.514643
O57   O     O_2   0.932678 0.994354 0.448259 -0.492368
O58   O     O_2   0.609254 0.553527 0.892718 -0.464690
O59   O     O_2   0.347972 0.597824 0.119834 -0.471974
O60   O     O_2   0.108352 0.052110 0.893219 -0.458763
O61   O     O_2   0.873893 0.146347 0.045313 -0.407480
O62   O     O_2   0.573386 0.487449 0.074151 -0.522776
O63   O     O_2   0.402066 0.599400 0.939322 -0.426440
O64   O     O_2   0.073488 0.988489 0.074053 -0.474527
O65   O     O_2   0.930574 0.994580 0.955149 -0.426737
O66   O     O_2   0.931651 0.352730 0.935894 -0.431046
O67   O     O_R   0.054640 0.580370 0.673500 -0.514951
O68   O     O_2   0.076513 0.299111 0.041420 -0.452128
O69   O     O_2   0.432717 0.860302 0.935557 -0.432445
O70   O     O_2   0.576128 0.793919 0.042197 -0.463093
O71   O     O_R   0.945360 0.580370 0.326500 -0.513583
O72   O     O_R   0.543920 0.282180 0.666790 -0.477809

loop_
_geom_bond_atom_site_label_1
_geom_bond_atom_site_label_2
_ccdc_geom_bond_type
C44   C49   A    
C32   H10   S    
Cr11  O48   S    
C15   O69   D    
C11   C91   S    
Cr7   O43   S    
C72   C89   S    
C6    O60   D    
C83   O43   A    
C75   O1    A    
Cr9   O46   S    
C91   C105  A    
Cr11  O26   S    
C17   C91   A    
C59   C82   S    
C31   H9    S    
C3    O57   D    
C7    O61   D    
C97   C98   S    
Cr5   O12   S    
C11   H35   S    
C57   C62   A    
Cr6   O11   S    
C66   C110  S    
C87   O4    A    
C5    C103  S    
Cr12  O27   S    
C33   C39   A    
Cr9   O56   S    
C80   C104  A    
C50   C59   A    
C64   C68   A    
Cr1   O1    S    
C9    C69   S    
C73   C90   S    
C40   H40   S    
C77   O33   A    
C52   C61   A    
C18   C102  A    
Cr5   O10   S    
C106  O49   D    
C56   O30   A    
Cr1   O14   S    
C65   C70   A    
C55   O29   A    
C96   C99   D    
C98   H12   S    
C45   H15   S    
C49   C57   A    
C44   C71   A    
C86   O3    A    
C68   C112  S    
C54   O28   A    
C74   C92   S    
C48   H17   S    
C8    H31   S    
C24   C29   A    
Cr3   O3    S    
C92   O8    A    
C94   H48   S    
C82   O42   A    
C95   H4    S    
C81   O41   A    
C82   O47   A    
C20   C24   A    
C9    H32   S    
Cr8   O45   S    
Cr2   O6    S    
C41   H41   S    
C70   C74   A    
C76   O12   A    
C5    O59   D    
C37   C84   S    
C106  H18   S    
C58   C102  A    
C6    C104  S    
Cr12  O72   S    
C2    C69   A    
C25   O15   A    
Cr8   O9    S    
C15   H38   S    
C107  O50   D    
C8    C58   S    
C1    O18   A    
C19   H6    S    
C12   O66   D    
C13   C80   A    
Cr10  O25   S    
C112  O55   D    
C34   C38   A    
C45   C72   A    
C53   O22   A    
C13   C25   S    
C88   O36   A    
C27   C75   S    
C52   H47   S    
Cr11  O71   S    
C21   C26   A    
C78   O35   A    
C64   C108  S    
C56   O26   A    
C78   O34   A    
C69   C103  A    
C16   H39   S    
C16   C26   S    
C79   O40   A    
C63   C67   A    
C54   O24   A    
Cr10  O47   S    
Cr4   O4    S    
Cr12  O31   S    
C53   C93   S    
C53   O27   A    
C32   C35   A    
C48   C74   A    
C88   O5    A    
C3    C70   S    
C49   H44   S    
C55   C95   S    
Cr5   O15   S    
C90   O38   A    
C108  O51   D    
Cr6   O16   S    
C95   C100  D    
C39   C43   A    
C94   C97   D    
C75   O31   A    
C68   C73   A    
C1    O14   A    
C46   C51   A    
C27   C101  A    
C17   C21   A    
C31   C37   A    
C96   H3    S    
C36   O16   A    
C4    O58   D    
C14   C23   S    
Cr11  O13   S    
C19   C23   A    
Cr7   O13   S    
Cr1   O36   S    
C21   H8    S    
C54   C94   S    
Cr8   O18   S    
C60   C81   S    
C33   H11   S    
C87   O71   A    
C31   C32   A    
Cr2   O2    S    
C4    C101  S    
C57   C83   S    
C85   O2    A    
Cr7   O34   S    
C84   O72   A    
C58   C101  A    
C15   C24   S    
C23   C28   A    
C12   H36   S    
Cr5   O41   S    
Cr6   O23   S    
C5    H28   S    
C10   H33   S    
C65   C109  S    
Cr12  O5    S    
C109  O52   D    
C66   C71   A    
C67   C111  S    
C40   C41   A    
C26   C30   A    
Cr10  O67   S    
C22   C27   A    
Cr3   O33   S    
C30   C105  A    
C25   O19   A    
Cr4   O8    S    
C12   C22   S    
Cr2   O32   S    
Cr1   O9    S    
C11   O65   D    
C42   C43   A    
C20   H7    S    
C63   C107  S    
C28   C76   S    
C108  H20   S    
C67   C72   A    
C9    O63   D    
C46   H16   S    
C2    C36   S    
C56   C96   S    
C4    H27   S    
C99   H23   S    
C90   O7    A    
Cr10  O11   S    
C3    H26   S    
C44   H14   S    
Cr9   O24   S    
C13   C20   A    
C2    C19   A    
C36   O20   A    
C111  O54   D    
C59   C63   A    
C47   O21   A    
C51   H46   S    
C109  H21   S    
Cr7   O17   S    
Cr1   O40   S    
C92   O39   A    
C110  O53   D    
Cr9   O19   S    
Cr3   O11   S    
C76   O32   A    
Cr10  O20   S    
C62   C106  S    
C18   C22   A    
C43   H43   S    
Cr8   O44   S    
Cr4   O13   S    
C34   H13   S    
Cr7   O39   S    
C86   O67   A    
C99   C100  S    
C60   C64   A    
C38   C87   S    
Cr6   O38   S    
C14   H37   S    
C10   C80   S    
C47   O17   A    
C77   O23   A    
Cr12  O9    S    
Cr2   O10   S    
C111  H24   S    
C14   O68   D    
C83   O48   A    
C35   C85   S    
C28   C103  A    
C55   O25   A    
C7    H30   S    
C45   C50   A    
C61   C79   S    
Cr6   O42   S    
C81   O46   A    
Cr3   O29   S    
Cr5   O37   S    
C33   C34   A    
C7    C105  S    
C35   C40   A    
C50   H45   S    
C61   C65   A    
C37   C41   A    
C93   H2    S    
Cr4   O35   S    
Cr8   O22   S    
C10   O64   D    
C6    H29   S    
C62   C66   A    
C84   O45   A    
C71   C88   S    
C30   C78   S    
C38   C42   A    
C100  H34   S    
C97   H1    S    
C48   C52   A    
C29   C77   S    
C1    C17   S    
C29   C104  A    
C79   O44   A    
C85   O56   A    
C89   O6    A    
C47   C102  S    
Cr4   O30   S    
C89   O37   A    
C112  H25   S    
Cr11  O21   S    
C18   H5    S    
Cr2   O28   S    
C51   C60   A    
C39   C86   S    
C110  H22   S    
C107  H19   S    
C93   C98   D    
C46   C73   A    
Cr3   O7    S    
C42   H42   S    
C8    O62   D    
Cr9   O10   S    
C16   O70   D    
