data_str_m9_o22_o22_f0_sra.sym.135
_audit_creation_date              2013-03-05T15:58:24-0500
_audit_creation_method            fapswitch 2.2
_symmetry_space_group_name_H-M    P1
_symmetry_Int_Tables_number       1
_space_group_crystal_system       triclinic
_cell_length_a                    7.204054
_cell_length_b                    14.610925
_cell_length_c                    15.674334
_cell_angle_alpha                 90.013146
_cell_angle_beta                  90.083323
_cell_angle_gamma                 89.795622
_cell_volume                      1649.83508377

loop_
_atom_site_label
_atom_site_type_symbol
_atom_site_description
_atom_site_fract_x
_atom_site_fract_y
_atom_site_fract_z
_atom_type_partial_charge
O1    O     O_R   0.388780 0.834790 0.412340 -0.584990
O2    O     O_R   0.111220 0.165210 0.912340 -0.586219
O3    O     O_R   0.888780 0.665210 0.587660 -0.586321
O4    O     O_R   0.611220 0.334790 0.087660 -0.582987
O5    O     O_R   0.059040 0.845930 0.587040 -0.586310
O6    O     O_R   0.440960 0.154070 0.087040 -0.562711
O7    O     O_R   0.559040 0.654070 0.412960 -0.590215
O8    O     O_R   0.940960 0.345930 0.912960 -0.586917
C1    C     C_R   0.227599 0.868291 0.615042 0.902585
C2    C     C_R   0.272347 0.131726 0.115202 0.878948
C3    C     C_R   0.727591 0.632209 0.384521 0.896421
C4    C     C_R   0.772133 0.368261 0.884953 0.897981
O9    O     O_R   0.059070 0.845930 0.412970 -0.587827
O10   O     O_R   0.440930 0.154070 0.912970 -0.589144
O11   O     O_R   0.559070 0.654070 0.587030 -0.587501
O12   O     O_R   0.940930 0.345930 0.087030 -0.597124
O13   O     O_R   0.888760 0.665210 0.412340 -0.594005
O14   O     O_R   0.611240 0.334790 0.912340 -0.595495
O15   O     O_R   0.388760 0.834790 0.587660 -0.593771
O16   O     O_R   0.111240 0.165210 0.087660 -0.591884
C5    C     C_R   0.227450 0.866878 0.383842 0.885779
C6    C     C_R   0.271985 0.132471 0.884274 0.883763
C7    C     C_R   0.728279 0.632485 0.615696 0.884407
C8    C     C_R   0.771780 0.367969 0.115318 0.895995
O17   O     O_3   0.222280 0.690700 0.500000 -0.285415
O18   O     O_3   0.277720 0.309300 0.000000 -0.289252
O19   O     O_3   0.722280 0.809300 0.500000 -0.280678
O20   O     O_3   0.777720 0.190700 0.000000 -0.275461
V1    V     V_3+5 0.947430 0.761000 0.500000 1.176993
V2    V     V_3+5 0.552570 0.239000 0.000000 1.192177
V3    V     V_3+5 0.447430 0.739000 0.500000 1.172063
V4    V     V_3+5 0.052570 0.261000 0.000000 1.170473
C9    C     C_3   0.942174 0.553578 0.722566 -0.298483
C10   C     C_3   0.554695 0.455348 0.214912 -0.306821
C11   C     C_3   0.382760 0.907502 0.243565 -0.256355
C12   C     C_3   0.057874 0.053916 0.777721 -0.295272
H1    H     H_    0.037788 0.530678 0.670993 0.176866
H2    H     H_    0.474152 0.485593 0.161154 0.179995
H3    H     H_    0.523077 0.901629 0.272875 0.205515
H4    H     H_    0.962963 0.031022 0.829423 0.178228
H5    H     H_    0.991045 0.621674 0.744834 0.210405
H6    H     H_    0.486556 0.389795 0.231283 0.203428
H7    H     H_    0.346101 0.838827 0.218034 0.183595
H8    H     H_    0.008183 0.122125 0.755735 0.210308
C13   C     C_3   0.953438 0.484932 0.797329 -0.309131
C14   C     C_3   0.543833 0.519824 0.292804 -0.315298
C15   C     C_3   0.391178 0.977474 0.169125 -0.305200
C16   C     C_3   0.046275 0.985498 0.702792 -0.311891
H9    H     H_    0.997637 0.521894 0.856033 0.167635
H10   H     H_    0.495311 0.480407 0.349276 0.164554
H11   H     H_    0.347318 0.943277 0.108952 0.151534
H12   H     H_    0.001942 0.022735 0.644193 0.167403
H13   H     H_    0.063647 0.433533 0.784312 0.198191
H14   H     H_    0.437200 0.573482 0.281137 0.193267
H15   H     H_    0.536831 0.999314 0.158853 0.209075
H16   H     H_    0.936150 0.934425 0.715732 0.197910
H17   H     H_    0.771531 0.445581 0.600504 0.185730
H18   H     H_    0.767595 0.554412 0.097370 0.182498
H19   H     H_    0.434334 0.023926 0.381392 0.196733
H20   H     H_    0.231039 0.945821 0.899716 0.187638
C17   C     C_3   0.681203 0.466131 0.654816 -0.472581
C18   C     C_3   0.838664 0.532312 0.157015 -0.475878
C19   C     C_3   0.298370 0.031174 0.348236 -0.453858
C20   C     C_3   0.320137 0.966034 0.844989 -0.469942
C21   C     C_3   0.611918 0.588690 0.762968 -0.280077
C22   C     C_3   0.872507 0.407326 0.266033 -0.322049
C23   C     C_3   0.048445 0.949900 0.266641 -0.313573
C24   C     C_3   0.387555 0.088425 0.736774 -0.282620
C25   C     C_3   0.740421 0.561947 0.687326 0.003569
C26   C     C_3   0.759794 0.438897 0.186614 0.046918
C27   C     C_3   0.238373 0.937156 0.312207 -0.020907
C28   C     C_3   0.259985 0.061933 0.812629 0.003164
H21   H     H_    0.465692 0.592912 0.740397 0.196347
H22   H     H_    0.019469 0.393772 0.248081 0.157542
H23   H     H_    0.940600 0.972227 0.313047 0.200775
H24   H     H_    0.533922 0.092564 0.759069 0.196327
H25   H     H_    0.651007 0.657429 0.787597 0.188963
H26   H     H_    0.814681 0.342039 0.290720 0.208338
H27   H     H_    0.004081 0.883440 0.239508 0.213024
H28   H     H_    0.347507 0.157153 0.712150 0.187932
C29   C     C_3   0.761965 0.438684 0.813113 -0.081162
C30   C     C_3   0.737360 0.562147 0.312341 -0.066128
C31   C     C_3   0.261835 0.060796 0.186808 -0.109908
C32   C     C_3   0.237657 0.938710 0.686861 -0.081335
C33   C     C_3   0.690142 0.394126 0.728333 0.301928
C34   C     C_3   0.817605 0.605864 0.228864 0.300137
C35   C     C_3   0.308731 0.104208 0.275824 0.311759
C36   C     C_3   0.309907 0.893936 0.771578 0.299852
C37   C     C_3   0.624496 0.517224 0.836323 -0.423626
C38   C     C_3   0.867047 0.481094 0.337555 -0.426248
C39   C     C_3   0.061691 0.021331 0.194031 -0.383303
C40   C     C_3   0.374968 0.016834 0.663535 -0.424450
H29   H     H_    0.670234 0.551641 0.896083 0.181114
H30   H     H_    0.818372 0.449440 0.398069 0.174445
H31   H     H_    0.019799 0.989114 0.132603 0.184918
H32   H     H_    0.329142 0.051265 0.603731 0.176444
H33   H     H_    0.483725 0.489047 0.848642 0.176842
H34   H     H_    0.010299 0.506515 0.349269 0.171285
H35   H     H_    0.961426 0.077547 0.206850 0.223248
H36   H     H_    0.515798 0.988219 0.651238 0.177175
H37   H     H_    0.536969 0.469479 0.629384 0.151793
H38   H     H_    0.988240 0.524342 0.140780 0.155855
H39   H     H_    0.196958 0.054116 0.397391 0.138016
H40   H     H_    0.464858 0.969057 0.869791 0.153322
H41   H     H_    0.545418 0.370450 0.740123 0.066353
H42   H     H_    0.959270 0.631869 0.243860 0.062138
H43   H     H_    0.199891 0.156731 0.289242 0.056822
H44   H     H_    0.454311 0.869418 0.759556 0.067352
N1    N     N_R   0.801166 0.314099 0.703121 0.226264
O21   O     O_R   0.970490 0.322995 0.675568 -0.439176
O22   O     O_R   0.724713 0.233653 0.701393 -0.464596
N2    N     N_R   0.704283 0.683544 0.199420 0.228528
O23   O     O_R   0.544055 0.670983 0.162850 -0.435335
O24   O     O_R   0.770376 0.766016 0.203799 -0.463313
N3    N     N_R   0.489183 0.150239 0.277158 0.235972
O25   O     O_R   0.642739 0.103651 0.271345 -0.458201
O26   O     O_R   0.497415 0.236223 0.297979 -0.464433
N4    N     N_R   0.198361 0.814599 0.797099 0.227284
O27   O     O_R   0.029696 0.824565 0.825341 -0.432815
O28   O     O_R   0.273823 0.733659 0.798433 -0.461646

loop_
_geom_bond_atom_site_label_1
_geom_bond_atom_site_label_2
_geom_bond_distance
_ccdc_geom_bond_type
C24   H28   1.112822 S    
C31   C35   1.569388 S    
H18   C18   1.112656 S    
O19   V1    1.766555 S    
C9    C13   1.544506 S    
C7    C25   1.526437 S    
O3    C7    1.328222 A    
C10   H6    1.108162 S    
C40   H32   1.113055 S    
O4    V2    2.006715 S    
C11   C15   1.552891 S    
N2    O24   1.298989 A    
C8    C26   1.526239 S    
C22   C38   1.555412 S    
O1    C5    1.328457 A    
C18   C34   1.563645 S    
C5    C27   1.524048 S    
O9    V1    2.014607 S    
C33   N1    1.468696 S    
N1    O22   1.300074 A    
O4    C8    1.327895 A    
N3    O25   1.300101 A    
C22   H22   1.112941 S    
C2    C31   1.529978 S    
O1    V3    2.005053 S    
O13   V1    2.006747 S    
C18   C26   1.551634 S    
O2    V4    2.005456 S    
O3    V1    2.007997 S    
N4    O27   1.301473 A    
C14   C30   1.557158 S    
C1    O15   1.330055 A    
C2    O16   1.329415 A    
N3    O26   1.299461 A    
O2    C6    1.327073 A    
C10   C14   1.543827 S    
C15   C31   1.555524 S    
C11   H7    1.112711 S    
C10   C26   1.561084 S    
C35   N3    1.465912 S    
C9    C25   1.558523 S    
C29   C37   1.556508 S    
O11   C7    1.335299 A    
O15   V3    2.005483 S    
O12   C8    1.335626 A    
C34   H42   1.114982 S    
O10   V2    2.012638 S    
C33   H41   1.115347 S    
C6    C28   1.526613 S    
N2    O23   1.301610 A    
C38   H30   1.113047 S    
O5    V1    2.012655 S    
C3    C30   1.527107 S    
C22   H26   1.112055 S    
C21   H25   1.112904 S    
O8    V4    2.009503 S    
C12   H4    1.113335 S    
O7    V3    2.010705 S    
C19   H39   1.113327 S    
C21   H21   1.112258 S    
O18   V4    1.771171 S    
C15   H11   1.113157 S    
C20   H40   1.113193 S    
C30   C34   1.568258 S    
C39   H31   1.113401 S    
C9    H1    1.113426 S    
C17   H37   1.113285 S    
C16   C32   1.557169 S    
C37   H33   1.113018 S    
C24   C28   1.553708 S    
C11   H3    1.112791 S    
O5    C1    1.332349 A    
O7    C3    1.331867 A    
C13   H9    1.113502 S    
O8    C4    1.331945 A    
C14   H14   1.110657 S    
C23   C39   1.547663 S    
O9    C5    1.333365 A    
C24   H24   1.112201 S    
H17   C17   1.112844 S    
C17   C33   1.561643 S    
O14   V2    2.008027 S    
O6    V2    2.014626 S    
C19   C27   1.547877 S    
C12   H8    1.112372 S    
C23   H23   1.113026 S    
C36   N4    1.468756 S    
C40   H36   1.112997 S    
C15   H15   1.109804 S    
O16   V4    2.005082 S    
C17   C25   1.550747 S    
C16   H16   1.110013 S    
C3    O13   1.331585 A    
C19   C35   1.560071 S    
C10   H2    1.113054 S    
O17   V3    1.771172 S    
C13   C29   1.558276 S    
C32   C36   1.567837 S    
O6    C2    1.334684 A    
O11   V3    2.009483 S    
C21   C37   1.555667 S    
O12   V4    2.010683 S    
C31   C39   1.559068 S    
C14   H10   1.113535 S    
H19   C19   1.112888 S    
C30   C38   1.556528 S    
H20   C20   1.112702 S    
C9    H5    1.112508 S    
O10   C6    1.335774 A    
O20   V2    1.766555 S    
C11   C27   1.557919 S    
N1    O21   1.301564 A    
C22   C26   1.554463 S    
C21   C25   1.554292 S    
C24   C40   1.555642 S    
C20   C36   1.561701 S    
C4    C29   1.527033 S    
C12   C16   1.544478 S    
C23   C27   1.553152 S    
C20   C28   1.550390 S    
C37   H29   1.113070 S    
N4    O28   1.299982 A    
C1    C32   1.526712 S    
C13   H13   1.110005 S    
C36   H44   1.115316 S    
C34   N2    1.469750 S    
C16   H12   1.113459 S    
C35   H43   1.115381 S    
C4    O14   1.331354 A    
C32   C40   1.557053 S    
C39   H35   1.110353 S    
C38   H34   1.113026 S    
C23   H27   1.107951 S    
C29   C33   1.567638 S    
C12   C28   1.559477 S    
C18   H38   1.113247 S    
