data_str_m9_o16_o26_f0_sra.sym.21
_audit_creation_date              2012-12-11T15:15:38-0500
_audit_creation_method            fapswitch 2.2
_symmetry_space_group_name_H-M    P1
_symmetry_Int_Tables_number       1
_space_group_crystal_system       triclinic
_cell_length_a                    20.696466
_cell_length_b                    22.752754
_cell_length_c                    6.933334
_cell_angle_alpha                 89.998753
_cell_angle_beta                  87.16357
_cell_angle_gamma                 90.000089
_cell_volume                      3260.91813942

loop_
_atom_site_label
_atom_site_type_symbol
_atom_type_description
_atom_site_fract_x
_atom_site_fract_y
_atom_site_fract_z
_atom_type_partial_charge
O1    O     O_R   0.387100 0.552640 0.378490 -0.544908
O2    O     O_R   0.612900 0.052640 0.621510 -0.544893
O3    O     O_R   0.249610 0.559600 0.072250 -0.549263
O4    O     O_R   0.750390 0.059600 0.927750 -0.549254
O5    O     O_R   0.249120 0.447360 0.902040 -0.538152
O6    O     O_R   0.750880 0.947360 0.097960 -0.538160
C1    C     C_R   0.228332 0.574968 0.243692 0.700825
C2    C     C_R   0.771667 0.074968 0.756303 0.700836
O7    O     O_R   0.386610 0.559560 0.048860 -0.543734
O8    O     O_R   0.613390 0.059560 0.951140 -0.543738
O9    O     O_R   0.387100 0.447320 0.878470 -0.528060
O10   O     O_R   0.612900 0.947320 0.121530 -0.528073
C3    C     C_R   0.407848 0.574776 0.214616 0.692793
C4    C     C_R   0.592156 0.074779 0.785381 0.692789
O11   O     O_R   0.249120 0.552680 0.402050 -0.550095
O12   O     O_R   0.750880 0.052680 0.597950 -0.550100
O13   O     O_3   0.318110 0.463180 0.223790 -0.356362
O14   O     O_3   0.681890 0.963180 0.776210 -0.356369
V1    V     V_3+5 0.318110 0.506830 0.948930 1.444090
V2    V     V_3+5 0.681890 0.006830 0.051070 1.444072
O15   O     O_R   0.386610 0.440400 0.548840 -0.540433
O16   O     O_R   0.613390 0.940400 0.451160 -0.540415
C5    C     C_R   0.407801 0.425180 0.714635 0.798754
C6    C     C_R   0.592198 0.925180 0.285368 0.798765
O17   O     O_R   0.249610 0.440440 0.572240 -0.546052
O18   O     O_R   0.750390 0.940440 0.427760 -0.546045
C7    C     C_R   0.227432 0.426238 0.744030 0.730249
C8    C     C_R   0.772565 0.926236 0.255972 0.730257
V3    V     V_3+5 0.318110 0.493170 0.448930 1.446370
V4    V     V_3+5 0.681890 0.993170 0.551070 1.446394
O19   O     O_3   0.318110 0.536820 0.723940 -0.385210
O20   O     O_3   0.681890 0.036820 0.276060 -0.385218
C9    C     C_R   0.174821 0.382395 0.759061 -0.039133
C10   C     C_R   0.825167 0.882382 0.240951 -0.039128
C11   C     C_R   0.154082 0.354435 0.592214 -0.146176
C12   C     C_R   0.845946 0.854463 0.407832 -0.146190
C13   C     C_R   0.104155 0.313336 0.604530 -0.104768
C14   C     C_R   0.895860 0.813352 0.395525 -0.104746
C15   C     C_R   0.073326 0.299712 0.784265 0.154595
C16   C     C_R   0.926639 0.799673 0.215760 0.154598
C17   C     C_R   0.094819 0.326788 0.951312 -0.124261
C18   C     C_R   0.905104 0.826706 0.048682 -0.124247
C19   C     C_R   0.144963 0.367839 0.939093 -0.140438
C20   C     C_R   0.854972 0.867770 0.060894 -0.140368
C21   C     C_R   0.889757 0.199368 0.860206 -0.202043
C22   C     C_R   0.110227 0.699362 0.139768 -0.202087
C23   C     C_R   0.838058 0.159910 0.890030 0.082524
C24   C     C_R   0.161926 0.659903 0.109937 0.082528
C25   C     C_R   0.861478 0.122202 0.564195 -0.285594
C26   C     C_R   0.138524 0.622203 0.435799 -0.285599
C27   C     C_R   0.912246 0.162003 0.537674 0.623527
C28   C     C_R   0.087759 0.662007 0.462326 0.623530
C29   C     C_R   0.927658 0.199983 0.687012 0.016913
C30   C     C_R   0.072341 0.699984 0.312983 0.016888
C31   C     C_2   0.019283 0.257192 0.804750 -0.200862
C32   C     C_2   0.980679 0.757148 0.195288 -0.200846
C33   C     C_2   0.982593 0.241143 0.658621 -0.122131
C34   C     C_2   0.017411 0.741147 0.341382 -0.122096
C35   C     C_R   0.823955 0.119750 0.739157 -0.152270
C36   C     C_R   0.176041 0.619749 0.260828 -0.152269
H1    H     H_    0.176636 0.363995 0.451427 0.132245
H2    H     H_    0.823434 0.864066 0.548645 0.132178
H3    H     H_    0.852362 0.092265 0.447257 0.154307
H4    H     H_    0.147642 0.592266 0.552738 0.154294
H5    H     H_    0.992811 0.257697 0.513790 0.158065
H6    H     H_    0.007231 0.757740 0.486189 0.158012
H7    H     H_    0.072224 0.316637 0.091686 0.104845
H8    H     H_    0.927659 0.816512 0.908287 0.104849
H9    H     H_    0.899674 0.230869 0.972022 0.147920
H10   H     H_    0.100297 0.730858 0.027946 0.147961
H11   H     H_    0.159974 0.388379 0.070484 0.122532
H12   H     H_    0.839928 0.888274 0.929476 0.122534
H13   H     H_    0.008579 0.239313 0.948047 0.165165
H14   H     H_    0.991352 0.739229 0.052028 0.165193
H15   H     H_    0.090885 0.292032 0.472969 0.112132
H16   H     H_    0.909160 0.792081 0.527120 0.112080
C37   C     C_R   0.575829 0.360139 0.653347 -0.174956
C38   C     C_R   0.424160 0.860141 0.346412 -0.174996
H17   H     H_    0.664439 0.276884 0.638247 0.111699
H18   H     H_    0.335546 0.776891 0.361344 0.111711
H19   H     H_    0.625109 0.373755 0.618595 0.125090
H20   H     H_    0.374876 0.873759 0.381047 0.125114
C39   C     C_R   0.462341 0.382702 0.713279 -0.223980
C40   C     C_R   0.537658 0.882702 0.286718 -0.223964
C41   C     C_R   0.475259 0.094195 0.819068 -0.304970
C42   C     C_R   0.524749 0.594187 0.181097 -0.304909
C43   C     C_R   0.421349 0.129855 0.802922 -0.235097
C44   C     C_R   0.578653 0.629846 0.197322 -0.235026
C45   C     C_R   0.427980 0.189462 0.759144 0.721611
C46   C     C_R   0.572017 0.689458 0.241011 0.721548
C47   C     C_R   0.489937 0.216559 0.747544 -0.038557
C48   C     C_R   0.510062 0.716558 0.252451 -0.038553
C49   C     C_R   0.545200 0.178218 0.747316 0.000629
C50   C     C_R   0.454800 0.678218 0.252599 0.000622
C51   C     C_R   0.499687 0.279267 0.726099 -0.033163
C52   C     C_R   0.500310 0.779268 0.273834 -0.033136
C53   C     C_R   0.563477 0.300023 0.681851 0.037291
C54   C     C_R   0.436514 0.800026 0.317933 0.037275
C55   C     C_R   0.615731 0.260995 0.670676 -0.153010
C56   C     C_R   0.384259 0.761000 0.329021 -0.153024
C57   C     C_R   0.606964 0.201470 0.705371 -0.160319
C58   C     C_R   0.393030 0.701473 0.294399 -0.160294
C59   C     C_R   0.450048 0.322737 0.753301 0.614293
C60   C     C_R   0.549954 0.822737 0.246717 0.614316
C61   C     C_R   0.526069 0.402125 0.669142 -0.004022
C62   C     C_R   0.473925 0.902125 0.330769 -0.004064
C63   C     C_R   0.537350 0.116911 0.784550 -0.070263
C64   C     C_R   0.462655 0.616907 0.215453 -0.070317
H21   H     H_    0.468339 0.047773 0.848602 0.143833
H22   H     H_    0.531671 0.547761 0.151648 0.143817
H23   H     H_    0.373607 0.110321 0.815088 0.166884
H24   H     H_    0.626394 0.610309 0.185301 0.166883
H25   H     H_    0.649194 0.173455 0.695007 0.088174
H26   H     H_    0.350800 0.673459 0.304719 0.088157
F1    F     F_    0.947519 0.162266 0.367216 -0.706563
F2    F     F_    0.052489 0.662272 0.632790 -0.706583
C65   C     C_3   0.539334 0.467911 0.648731 -0.319257
C66   C     C_3   0.610896 0.486216 0.645376 -0.347507
C67   C     C_3   0.617767 0.552823 0.660615 -0.703112
H27   H     H_    0.591331 0.574869 0.545911 0.240969
H28   H     H_    0.598029 0.568349 0.803426 0.231938
H29   H     H_    0.669655 0.565173 0.644720 0.232962
H30   H     H_    0.634812 0.466098 0.769420 0.202287
H31   H     H_    0.635790 0.471307 0.508263 0.197965
H32   H     H_    0.517642 0.484004 0.515004 0.171533
H33   H     H_    0.514335 0.490526 0.773651 0.169188
C68   C     C_3   0.460653 0.967905 0.351378 -0.319196
C69   C     C_3   0.389101 0.986216 0.353966 -0.347550
C70   C     C_3   0.382243 0.052833 0.339119 -0.703241
H34   H     H_    0.408320 0.074781 0.454742 0.240981
H35   H     H_    0.402367 0.068489 0.196917 0.232030
H36   H     H_    0.330333 0.065158 0.353819 0.232949
H37   H     H_    0.365372 0.966172 0.229464 0.202333
H38   H     H_    0.364015 0.971228 0.490690 0.197971
H39   H     H_    0.482173 0.983924 0.485455 0.171577
H40   H     H_    0.485803 0.990582 0.226844 0.169123
F3    F     F_    0.391305 0.309677 0.837304 -0.629296
F4    F     F_    0.608711 0.809674 0.162821 -0.629300
F5    F     F_    0.373932 0.217171 0.704863 -0.617848
F6    F     F_    0.626052 0.717172 0.295361 -0.617858
C71   C     C_3   0.800071 0.163693 0.083129 -0.302175
C72   C     C_3   0.732557 0.190013 0.062218 -0.324434
C73   C     C_3   0.697489 0.198682 0.258809 -0.735694
H41   H     H_    0.692249 0.156052 0.335914 0.237290
H42   H     H_    0.724793 0.229716 0.347821 0.212083
H43   H     H_    0.648547 0.217067 0.239113 0.228115
H44   H     H_    0.736809 0.233211 0.987662 0.190498
H45   H     H_    0.702957 0.160583 0.975368 0.197106
H46   H     H_    0.797464 0.120245 0.155140 0.190789
H47   H     H_    0.825977 0.192170 0.184424 0.184063
C74   C     C_3   0.199894 0.663673 0.916803 -0.302157
C75   C     C_3   0.267410 0.690001 0.937610 -0.324447
C76   C     C_3   0.302446 0.698673 0.740969 -0.735709
H48   H     H_    0.307681 0.656043 0.663862 0.237291
H49   H     H_    0.275124 0.729704 0.651991 0.212095
H50   H     H_    0.351390 0.717065 0.760596 0.228109
H51   H     H_    0.263164 0.733200 0.012161 0.190491
H52   H     H_    0.297028 0.660574 0.024419 0.197142
H53   H     H_    0.202497 0.620219 0.844838 0.190773
H54   H     H_    0.173974 0.692140 0.815510 0.184126

loop_
_geom_bond_atom_site_label_1
_geom_bond_atom_site_label_2
_ccdc_geom_bond_type
C73   H43   S    
V4    O20   S    
C25   H3    S    
O6    C8    A    
C65   C66   S    
C26   H4    S    
O4    C2    A    
V1    O19   S    
C69   C70   S    
C71   H46   S    
C17   H7    S    
C14   H16   S    
C7    C9    S    
O9    V1    S    
C5    C39   S    
O10   V2    S    
H17   C55   S    
C11   C13   A    
C68   H39   S    
O3    C1    A    
C41   H21   S    
C59   F3    S    
C2    C35   S    
V2    O20   S    
O13   V3    S    
C42   C44   A    
C43   H23   S    
O12   V4    S    
C73   H41   S    
C48   C52   A    
C57   H25   S    
O7    V1    S    
C21   C23   A    
O7    C3    A    
C66   C67   S    
C9    C11   A    
O5    C7    A    
C46   C48   A    
C34   H6    S    
C15   C31   S    
C51   C59   A    
C45   F5    S    
C52   C54   A    
C38   C54   A    
C26   C28   A    
C74   C75   S    
C24   C36   A    
O14   V4    S    
C45   C47   A    
C65   H33   S    
C10   C12   A    
C70   H36   S    
C67   H28   S    
C13   H15   S    
C8    C10   S    
C2    O12   A    
C16   C32   S    
H18   C56   S    
C18   H8    S    
C17   C19   A    
C61   C65   S    
C18   C20   A    
C3    C64   S    
C12   H2    S    
C56   C58   A    
C53   C55   A    
C28   C30   A    
C71   H47   S    
O11   V3    S    
C22   C24   A    
C28   F2    S    
O15   C5    A    
O17   V3    S    
C75   H52   S    
C23   C35   A    
C32   H14   S    
C41   C43   A    
C21   H9    S    
C9    C19   A    
C72   H45   S    
C10   C20   A    
C68   H40   S    
C15   C17   A    
O8    C4    A    
C49   C57   A    
C60   F4    S    
C29   C33   S    
C1    O11   A    
C25   C27   A    
O15   V3    S    
C62   C68   S    
C27   F1    S    
C39   C61   A    
C27   C29   A    
C31   H13   S    
C58   H26   S    
C69   H38   S    
C47   C49   A    
C38   H20   S    
C40   C62   A    
C37   H19   S    
C50   C64   A    
C22   C30   A    
C48   C50   A    
C11   H1    S    
C66   H31   S    
C76   H50   S    
O3    V1    S    
C39   C59   A    
C4    C63   S    
C55   C57   A    
C44   C46   A    
O18   V4    S    
C54   C56   A    
C31   C33   D    
C40   C60   A    
O16   C6    A    
C76   H49   S    
C12   C14   A    
C1    C36   S    
C70   H34   S    
C30   C34   S    
C67   H29   S    
C73   H42   S    
O10   C6    A    
C75   H51   S    
C19   H11   S    
O16   V4    S    
C42   H22   S    
C72   H44   S    
C42   C64   A    
C33   H5    S    
C16   C18   A    
C46   F6    S    
C67   H27   S    
C51   C53   A    
O5    V1    S    
O4    V2    S    
O17   C7    A    
O6    V2    S    
C23   C71   S    
O18   C8    A    
C37   C61   A    
C25   C35   A    
C38   C62   A    
O2    V4    S    
C26   C36   A    
C74   H54   S    
C52   C60   A    
C6    C40   S    
C13   C15   A    
C41   C63   A    
C71   C72   S    
C49   C63   A    
C14   C16   A    
O1    V3    S    
O8    V2    S    
O9    C5    A    
O13   V1    S    
C32   C34   D    
C20   H12   S    
O14   V2    S    
C66   H30   S    
O2    C4    A    
C22   H10   S    
C21   C29   A    
C44   H24   S    
O1    C3    A    
C75   C76   S    
C50   C58   A    
C47   C51   A    
V3    O19   S    
C24   C74   S    
C43   C45   A    
C72   C73   S    
C37   C53   A    
C76   H48   S    
C69   H37   S    
C65   H32   S    
C68   C69   S    
C74   H53   S    
C70   H35   S    
