data_str_m2_o9_o20_f0_pcu.sym.143
_audit_creation_date              2012-12-10T19:46:52-0500
_audit_creation_method            fapswitch 2.2
_symmetry_space_group_name_H-M    P1
_symmetry_Int_Tables_number       1
_space_group_crystal_system       triclinic
_cell_length_a                    10.876514
_cell_length_b                    10.880914
_cell_length_c                    13.120876
_cell_angle_alpha                 90.354636
_cell_angle_beta                  89.968
_cell_angle_gamma                 89.706123
_cell_volume                      1552.75817583

loop_
_atom_site_label
_atom_site_type_symbol
_atom_type_description
_atom_site_fract_x
_atom_site_fract_y
_atom_site_fract_z
_atom_type_partial_charge
C1    C     C_R   0.493511 0.259767 0.499639 0.811612
C2    C     C_R   0.507706 0.740364 0.500507 0.828846
C3    C     C_R   0.872756 0.487612 0.500048 -0.097191
C4    C     C_R   0.126836 0.505989 0.498963 -0.104487
C5    C     C_R   0.939938 0.449828 0.586224 0.007004
C6    C     C_R   0.059524 0.542741 0.412209 0.007148
C7    C     C_R   0.240906 0.225376 0.227270 -0.153932
C8    C     C_R   0.779646 0.812012 0.773083 -0.162292
C9    C     C_R   0.282541 0.170778 0.317871 0.201463
C10   C     C_R   0.729983 0.866873 0.685395 0.196397
C11   C     C_R   0.402437 0.118397 0.320186 0.099887
C12   C     C_R   0.600831 0.884057 0.678818 0.081623
C13   C     C_R   0.476262 0.121731 0.232363 -0.181290
C14   C     C_R   0.525794 0.850738 0.761149 -0.149558
C15   C     C_R   0.433441 0.177451 0.143647 -0.146764
C16   C     C_R   0.577145 0.798087 0.848118 -0.141116
C17   C     C_R   0.316029 0.229216 0.141096 -0.154515
C18   C     C_R   0.703607 0.777518 0.853638 -0.159514
C19   C     C_R   0.464883 0.933144 0.414223 -0.265603
C20   C     C_R   0.532331 0.067444 0.586839 -0.264113
C21   C     C_R   0.506640 0.873096 0.501582 -0.079347
C22   C     C_R   0.491223 0.127326 0.499337 -0.088618
C23   C     C_R   0.259535 0.506945 0.499790 0.820270
C24   C     C_R   0.740057 0.489339 0.500029 0.827982
C25   C     C_R   0.542811 0.940788 0.588421 0.002697
C26   C     C_R   0.453628 0.059978 0.412865 0.021399
C27   C     C_1   0.499949 0.499918 0.173571 0.160809
C28   C     C_1   0.499886 0.499589 0.826426 0.144495
C29   C     C_1   0.499902 0.499623 0.050688 -0.109775
C30   C     C_1   0.499859 0.499440 0.949320 -0.126883
C31   C     C_R   0.221533 0.770582 0.242243 -0.132555
C32   C     C_R   0.778938 0.220797 0.754717 -0.157483
C33   C     C_R   0.176011 0.712831 0.329286 -0.180475
C34   C     C_R   0.833608 0.274402 0.669623 -0.192519
C35   C     C_R   0.116195 0.599420 0.321249 0.140072
C36   C     C_R   0.881387 0.393632 0.676167 0.135240
C37   C     C_R   0.102497 0.544476 0.225041 -0.178883
C38   C     C_R   0.873973 0.458688 0.768583 -0.163947
C39   C     C_R   0.150596 0.600550 0.138349 -0.207898
C40   C     C_R   0.817673 0.405627 0.853341 -0.177819
C41   C     C_R   0.210339 0.714371 0.145552 0.243550
C42   C     C_R   0.769842 0.286086 0.847062 0.251490
C43   C     C_R   0.932819 0.531343 0.413537 -0.251351
C44   C     C_R   0.066743 0.460627 0.585089 -0.254814
Cu1   Cu    Cu3+1 0.499990 0.499990 0.592680 0.977712
Cu2   Cu    Cu3+1 0.500010 0.500010 0.407320 0.976036
H1    H     H_    0.567762 0.081918 0.233001 0.133559
H2    H     H_    0.427282 0.865319 0.757707 0.129910
H3    H     H_    0.491146 0.179962 0.076591 0.143036
H4    H     H_    0.518715 0.772524 0.911172 0.144711
H5    H     H_    0.438545 0.880907 0.347357 0.154674
H6    H     H_    0.560535 0.119750 0.653222 0.157245
H7    H     H_    0.263329 0.859702 0.251237 0.143362
H8    H     H_    0.743396 0.128420 0.748741 0.131873
H9    H     H_    0.185022 0.757575 0.402813 0.117032
H10   H     H_    0.839169 0.222934 0.598805 0.119127
H11   H     H_    0.053517 0.458659 0.217086 0.123132
H12   H     H_    0.910526 0.550853 0.774536 0.126739
H13   H     H_    0.139642 0.555838 0.064928 0.126461
H14   H     H_    0.811334 0.457899 0.923675 0.123893
H15   H     H_    0.880383 0.562151 0.348085 0.161379
H16   H     H_    0.118925 0.429917 0.650702 0.159656
H17   H     H_    0.282827 0.271859 0.071992 0.137989
H18   H     H_    0.742990 0.735872 0.920924 0.134208
H19   H     H_    0.149327 0.264079 0.222917 0.118988
H20   H     H_    0.877925 0.797619 0.779671 0.126552
N1    N     N_1   0.500030 0.500030 0.268070 -0.132078
N2    N     N_1   0.499970 0.499970 0.731930 -0.130151
O1    O     O_R   0.499980 0.319630 0.578260 -0.584049
O2    O     O_R   0.500020 0.680370 0.421740 -0.585651
O3    O     O_R   0.500000 0.319650 0.421740 -0.572502
O4    O     O_R   0.500000 0.680350 0.578260 -0.568948
O5    O     O_R   0.319630 0.500000 0.578260 -0.589027
O6    O     O_R   0.680370 0.500000 0.421740 -0.591310
O7    O     O_R   0.319650 0.500020 0.421740 -0.565517
O8    O     O_R   0.680350 0.499980 0.578260 -0.558944
C45   C     C_3   0.257715 0.771430 0.048030 -0.438549
C46   C     C_3   0.323773 0.894192 0.061035 -0.854746
H21   H     H_    0.260182 0.964324 0.093563 0.264668
H22   H     H_    0.405527 0.883337 0.110957 0.253644
H23   H     H_    0.355345 0.927088 0.985519 0.241457
H24   H     H_    0.322327 0.705664 0.010889 0.207961
H25   H     H_    0.178896 0.785338 0.995385 0.199697
C47   C     C_3   0.706452 0.229290 0.937315 -0.437648
C48   C     C_3   0.778927 0.119839 0.978496 -0.842445
H26   H     H_    0.785908 0.045745 0.920170 0.257283
H27   H     H_    0.872783 0.148926 0.001297 0.252919
H28   H     H_    0.731190 0.082514 0.046355 0.239217
H29   H     H_    0.694963 0.297808 0.999845 0.205318
H30   H     H_    0.613168 0.198754 0.914082 0.198426
C49   C     C_3   0.197391 0.170034 0.409336 -0.407803
C50   C     C_3   0.140790 0.043655 0.425569 -0.864964
H31   H     H_    0.093534 0.012023 0.355170 0.253006
H32   H     H_    0.212385 0.975782 0.446962 0.255822
H33   H     H_    0.072335 0.048979 0.488297 0.247029
H34   H     H_    0.246731 0.199517 0.479156 0.193022
H35   H     H_    0.121169 0.237285 0.398704 0.203194
C51   C     C_3   0.817232 0.909792 0.603087 -0.473989
C52   C     C_3   0.866637 0.801809 0.540696 -0.796244
H36   H     H_    0.916376 0.736011 0.590434 0.254555
H37   H     H_    0.789653 0.754113 0.501839 0.246102
H38   H     H_    0.931489 0.835584 0.481907 0.241002
H39   H     H_    0.772613 0.975781 0.550496 0.214082
H40   H     H_    0.895345 0.959454 0.638856 0.199645

loop_
_geom_bond_atom_site_label_1
_geom_bond_atom_site_label_2
_ccdc_geom_bond_type
C33   H9    S    
C34   H10   S    
C40   H14   S    
C27   C29   S    
C24   O6    A    
C9    C49   S    
C39   C41   A    
C45   C46   S    
C8    H20   S    
C3    C43   A    
C1    O3    A    
Cu1   O8    S    
Cu1   O5    S    
C35   C37   A    
C23   O5    A    
C41   C45   S    
C46   H22   S    
C20   C25   A    
C45   H25   S    
C51   H39   S    
C5    C36   S    
C6    C35   S    
C7    C9    A    
C10   C51   S    
C19   C26   A    
C49   H34   S    
C38   H12   S    
C7    C17   A    
C31   C33   A    
C40   C42   A    
C1    C22   S    
C1    O1    A    
Cu1   O4    S    
C3    C24   S    
C47   H30   S    
C2    C21   S    
C2    O4    A    
C32   H8    S    
Cu2   O7    S    
C48   H27   S    
Cu1   O1    S    
C42   C47   S    
C47   C48   S    
C4    C6    A    
C23   O7    A    
C49   C50   S    
C13   H1    S    
C4    C23   S    
C46   H21   S    
C24   O8    A    
C14   H2    S    
C4    C44   A    
C11   C26   S    
C44   H16   S    
Cu1   Cu2   S    
C50   H33   S    
C31   H7    S    
C32   C34   A    
C29   C30   T    
C7    H19   S    
C52   H36   S    
C39   H13   S    
Cu1   N2    S    
C50   H32   S    
C49   H35   S    
C9    C11   A    
Cu2   O3    S    
C10   C12   A    
C8    C10   A    
C52   H37   S    
C5    C44   A    
C20   C22   A    
C6    C43   A    
C13   C15   A    
C14   C16   A    
C47   H29   S    
Cu2   O6    S    
C43   H15   S    
C48   H28   S    
C15   C17   A    
C21   C25   A    
C31   C41   A    
C28   N2    T    
C16   H4    S    
C3    C5    A    
C48   H26   S    
C12   C25   S    
C20   H6    S    
C36   C38   A    
C12   C14   A    
Cu2   N1    S    
C37   C39   A    
C17   H17   S    
C38   C40   A    
C11   C13   A    
C46   H23   S    
C18   H18   S    
C45   H24   S    
C51   H40   S    
C28   C30   S    
C50   H31   S    
C33   C35   A    
C34   C36   A    
C15   H3    S    
C8    C18   A    
Cu2   O2    S    
C27   N1    T    
C19   H5    S    
C52   H38   S    
C16   C18   A    
C51   C52   S    
C22   C26   A    
C32   C42   A    
C2    O2    A    
C37   H11   S    
C19   C21   A    
