data_str_m3_o10_o23_f0_pcu.sym.147
_audit_creation_date              2012-12-10T16:54:53-0500
_audit_creation_method            fapswitch 2.2
_symmetry_space_group_name_H-M    P1
_symmetry_Int_Tables_number       1
_space_group_crystal_system       triclinic
_cell_length_a                    7.837606
_cell_length_b                    8.57971
_cell_length_c                    15.699992
_cell_angle_alpha                 91.374331
_cell_angle_beta                  85.041379
_cell_angle_gamma                 93.580511
_cell_volume                      1049.54864856

loop_
_atom_site_label
_atom_site_type_symbol
_atom_type_description
_atom_site_fract_x
_atom_site_fract_y
_atom_site_fract_z
_atom_type_partial_charge
C1    C     C_R   0.544875 0.794412 0.500730 0.967309
C2    C     C_2   0.430259 0.045154 0.521854 0.313398
C3    C     C_R   0.500643 0.499856 0.661474 0.873312
C4    C     C_R   0.454669 0.206407 0.506373 0.838234
C5    C     C_R   0.499396 0.499947 0.338512 0.914819
C6    C     C_3   0.429997 0.648941 0.955542 -0.520230
C7    C     C_3   0.697015 0.494428 0.941038 0.301792
C8    C     C_3   0.699354 0.503626 0.040676 0.284234
C9    C     C_1   0.499887 0.501263 0.249526 -0.217020
C10   C     C_3   0.509207 0.499404 0.917006 0.252522
C11   C     C_3   0.227602 0.019839 0.636985 0.098969
C12   C     C_3   0.427484 0.648599 0.053582 -0.374366
C13   C     C_3   0.257402 0.879519 0.690994 -0.308326
C14   C     C_3   0.204156 0.908629 0.785449 -1.026169
C15   C     C_3   0.943850 0.358125 0.900886 0.072069
C16   C     C_3   0.009719 0.300185 0.811824 -0.357838
C17   C     C_3   0.993473 0.421241 0.743934 -0.785084
C18   C     C_3   0.943029 0.623328 0.099606 0.027377
C19   C     C_3   0.911167 0.595137 0.195831 -0.339128
C20   C     C_3   0.077462 0.597521 0.239252 -0.910380
C21   C     C_3   0.511369 0.502204 0.082086 0.266140
C22   C     C_3   0.409543 0.353659 0.051777 -0.511206
C23   C     C_3   0.403033 0.355050 0.954236 -0.386343
C24   C     C_1   0.505598 0.502211 0.173871 -0.086124
C25   C     C_1   0.504757 0.499061 0.825615 -0.057406
C26   C     C_1   0.502175 0.499322 0.750340 -0.198512
C27   C     C_2   0.566119 0.958270 0.502735 -0.513621
H1    H     H_    0.494961 0.757500 0.076605 0.214336
H2    H     H_    0.757752 0.397812 0.062941 0.072075
H3    H     H_    0.268529 0.359845 0.939563 0.151825
H4    H     H_    0.450809 0.244762 0.925081 0.210580
H5    H     H_    0.276364 0.347523 0.083134 0.184648
H6    H     H_    0.089590 0.044260 0.646107 0.161910
H7    H     H_    0.300235 0.126186 0.660504 0.109381
H8    H     H_    0.181482 0.775441 0.668284 0.239742
H9    H     H_    0.395490 0.855018 0.683517 0.209135
H10   H     H_    0.281290 0.009855 0.810506 0.265740
H11   H     H_    0.226126 0.803743 0.821898 0.267889
H12   H     H_    0.296331 0.654345 0.937478 0.182894
H13   H     H_    0.065716 0.930853 0.794888 0.264024
H14   H     H_    0.982173 0.276721 0.948760 0.118283
H15   H     H_    0.007431 0.475148 0.913997 0.109910
H16   H     H_    0.146904 0.274620 0.811608 0.173705
H17   H     H_    0.936259 0.190230 0.795268 0.229584
H18   H     H_    0.858108 0.450799 0.742971 0.280796
H19   H     H_    0.037596 0.373029 0.680133 0.251600
H20   H     H_    0.073536 0.529101 0.757124 0.244623
H21   H     H_    0.024380 0.733133 0.090090 0.175469
H22   H     H_    0.014628 0.527755 0.066771 0.107226
H23   H     H_    0.293871 0.648721 0.082099 0.165393
H24   H     H_    0.830426 0.686812 0.225977 0.246009
H25   H     H_    0.843594 0.478832 0.206295 0.220618
H26   H     H_    0.152301 0.498004 0.214852 0.259600
H27   H     H_    0.047606 0.585011 0.309226 0.284618
H28   H     H_    0.154377 0.709289 0.227627 0.257985
H29   H     H_    0.471549 0.247346 0.069797 0.184427
H30   H     H_    0.694197 0.008130 0.483361 0.167231
H31   H     H_    0.012802 0.380700 0.436339 0.195662
H32   H     H_    0.987131 0.619085 0.563769 0.196664
H33   H     H_    0.505320 0.754743 0.930281 0.191096
H34   H     H_    0.770665 0.598080 0.911358 0.099743
N1    N     N_2   0.950340 0.457950 0.477370 -0.177537
N2    N     N_2   0.049660 0.542050 0.522630 -0.179593
O1    O     O_R   0.389240 0.738570 0.505550 -0.545992
O2    O     O_3   0.762707 0.353097 0.907382 -0.644162
O3    O     O_3   0.787612 0.646274 0.063732 -0.668054
O4    O     O_R   0.678400 0.711630 0.491050 -0.625439
O5    O     O_R   0.355360 0.513470 0.630110 -0.638526
O6    O     O_R   0.644510 0.486530 0.615610 -0.623584
O7    O     O_R   0.321600 0.288370 0.508950 -0.608046
O8    O     O_R   0.610760 0.261430 0.494450 -0.639278
O9    O     O_R   0.355490 0.513470 0.384390 -0.615839
O10   O     O_R   0.644640 0.486530 0.369890 -0.615996
O11   O     O_3   0.266605 0.983684 0.549132 -0.607979
Zn1   Zn    Zn3+2 0.306930 0.517990 0.509680 0.944523
Zn2   Zn    Zn3+2 0.693070 0.482010 0.490320 0.932660

loop_
_geom_bond_atom_site_label_1
_geom_bond_atom_site_label_2
_ccdc_geom_bond_type
H31   N1    S    
C7    C10   S    
C2    C4    S    
C23   H3    S    
C9    C24   T    
C8    O3    S    
N1    N2    D    
C6    H33   S    
C10   C23   S    
C18   O3    S    
C16   H17   S    
H32   N2    S    
C3    O5    A    
C2    O11   S    
C15   C16   S    
C19   C20   S    
C4    O7    A    
C8    C21   S    
C18   H22   S    
C7    C8    S    
C13   C14   S    
C4    O8    A    
C14   H10   S    
C5    C9    S    
C11   C13   S    
C16   H16   S    
N1    Zn2   S    
C2    C27   D    
N2    Zn1   S    
C12   H1    S    
O9    Zn1   S    
C8    H2    S    
C12   C21   S    
C10   C25   S    
C22   C23   S    
C6    C12   S    
C1    O4    A    
O1    Zn1   S    
C17   H18   S    
C13   H8    S    
C5    O9    A    
C20   H28   S    
C5    O10   A    
O8    Zn2   S    
O10   Zn2   S    
C7    O2    S    
C6    C10   S    
C14   H13   S    
C14   H11   S    
C15   O2    S    
C1    O1    A    
C19   H24   S    
C11   H6    S    
C22   H5    S    
C16   C17   S    
C17   H19   S    
C15   H14   S    
C13   H9    S    
C20   H27   S    
C18   C19   S    
C27   H30   S    
C21   C24   S    
O7    Zn1   S    
C1    C27   S    
C6    H12   S    
C7    H34   S    
C11   H7    S    
C22   H29   S    
O4    Zn2   S    
C3    O6    A    
C25   C26   T    
C21   C22   S    
O6    Zn2   S    
C19   H25   S    
C12   H23   S    
C3    C26   S    
C17   H20   S    
C15   H15   S    
C23   H4    S    
C20   H26   S    
O5    Zn1   S    
C11   O11   S    
C18   H21   S    
