data_str_m2_o10_o17_f0_pcu.sym.166
_audit_creation_date              2012-12-10T16:44:41-0500
_audit_creation_method            fapswitch 2.2
_symmetry_space_group_name_H-M    P1
_symmetry_Int_Tables_number       1
_space_group_crystal_system       triclinic
_cell_length_a                    14.945831
_cell_length_b                    8.663389
_cell_length_c                    7.445144
_cell_angle_alpha                 103.004223
_cell_angle_beta                  93.853906
_cell_angle_gamma                 92.253816
_cell_volume                      935.6900888

loop_
_atom_site_label
_atom_site_type_symbol
_atom_type_description
_atom_site_fract_x
_atom_site_fract_y
_atom_site_fract_z
_atom_type_partial_charge
C1    C     C_R   0.497303 0.199711 0.453215 0.877992
C2    C     C_R   0.502697 0.800289 0.546785 0.877995
C3    C     C_R   0.037730 0.212002 0.397737 -0.295279
C4    C     C_R   0.962270 0.787996 0.602255 -0.295217
C5    C     C_2   0.496030 0.031712 0.426895 -0.369419
C6    C     C_2   0.503970 0.968288 0.573105 -0.369423
C7    C     C_R   0.329139 0.500164 0.503027 0.798724
C8    C     C_R   0.670861 0.499836 0.496973 0.798732
C9    C     C_R   0.817677 0.643144 0.545503 -0.231092
C10   C     C_R   0.182323 0.356855 0.454495 -0.231061
C11   C     C_R   0.766899 0.499786 0.490691 -0.060692
C12   C     C_R   0.233100 0.500213 0.509309 -0.060662
C13   C     C_R   0.807597 0.356109 0.437237 -0.208347
C14   C     C_R   0.192403 0.643890 0.562762 -0.208418
C15   C     C_R   0.901183 0.353917 0.440744 0.035168
C16   C     C_R   0.098817 0.646081 0.559254 0.035119
C17   C     C_R   0.953067 0.499501 0.497357 -0.008278
C18   C     C_R   0.046933 0.500496 0.502641 -0.008265
C19   C     C_R   0.910920 0.644302 0.548601 0.067684
C20   C     C_R   0.089080 0.355697 0.451395 0.067681
C21   C     C_R   0.943619 0.209798 0.388696 0.418671
C22   C     C_R   0.056380 0.790197 0.611297 0.418582
Cu1   Cu    Cu3+1 0.510010 0.517380 0.684380 0.952975
Cu2   Cu    Cu3+1 0.489990 0.482620 0.315620 0.952973
H1    H     H_    0.784343 0.753247 0.586442 0.137952
H2    H     H_    0.215657 0.246753 0.413557 0.137942
H3    H     H_    0.765942 0.246788 0.395637 0.170345
H4    H     H_    0.234056 0.753212 0.604360 0.170328
H5    H     H_    0.070889 0.101286 0.364629 0.180245
H6    H     H_    0.929115 0.898717 0.635366 0.180295
H7    H     H_    0.488564 0.959935 0.286102 0.179350
H8    H     H_    0.511436 0.040065 0.713898 0.179349
H9    H     H_    0.429949 0.377960 0.948741 0.226712
H10   H     H_    0.570051 0.622040 0.051259 0.226721
N1    N     N_2   0.474890 0.456420 0.038520 -0.214896
N2    N     N_2   0.525110 0.543580 0.961480 -0.214894
O1    O     O_R   0.506510 0.286130 0.619770 -0.583491
O2    O     O_R   0.493490 0.713870 0.380230 -0.583490
O3    O     O_R   0.489600 0.256770 0.308360 -0.588517
O4    O     O_R   0.510400 0.743230 0.691640 -0.588517
O5    O     O_R   0.378710 0.514640 0.655720 -0.585604
O6    O     O_R   0.621290 0.485360 0.344280 -0.585602
O7    O     O_R   0.361800 0.485290 0.344300 -0.574669
O8    O     O_R   0.638200 0.514710 0.655700 -0.574660
O9    O     O_3   0.892838 0.067026 0.345365 -0.587520
C23   C     C_3   0.902566 0.988266 0.160309 0.048063
H11   H     H_    0.970598 0.941729 0.145300 0.138130
H12   H     H_    0.890405 0.068452 0.064162 0.134254
C24   C     C_3   0.834238 0.847822 0.104416 -0.763542
H13   H     H_    0.765083 0.889539 0.116152 0.241067
H14   H     H_    0.841263 0.784865 0.959143 0.205206
H15   H     H_    0.845542 0.763813 0.195403 0.258833
O10   O     O_3   0.107151 0.932975 0.654616 -0.587517
C25   C     C_3   0.097523 0.011612 0.839752 0.048032
H16   H     H_    0.109878 0.931395 0.935785 0.134329
H17   H     H_    0.029457 0.057947 0.855043 0.138018
C26   C     C_3   0.165739 0.152234 0.895501 -0.763482
H18   H     H_    0.154263 0.236240 0.804572 0.258852
H19   H     H_    0.158768 0.215127 0.040821 0.205191
H20   H     H_    0.234929 0.110712 0.883560 0.241043

loop_
_geom_bond_atom_site_label_1
_geom_bond_atom_site_label_2
_ccdc_geom_bond_type
C5    H7    S    
C6    H8    S    
Cu1   Cu2   S    
C25   H17   S    
C15   C17   A    
C7    O7    A    
C4    C22   A    
C2    O2    A    
Cu2   O2    S    
N1    N2    D    
Cu1   O5    S    
C1    O1    A    
C9    C11   A    
C24   H15   S    
C14   H4    S    
C10   H2    S    
C7    O5    A    
C17   C18   A    
C9    H1    S    
C3    C20   A    
Cu1   O1    S    
O9    C23   S    
C11   C13   A    
C23   C24   S    
C26   H18   S    
C2    C6    S    
C10   C12   A    
C8    C11   S    
C1    C5    S    
C17   C19   A    
C12   C14   A    
C24   H13   S    
C22   O10   S    
H10   N2    S    
C13   C15   A    
C5    C6    D    
C14   C16   A    
C7    C12   S    
C26   H19   S    
Cu2   N1    S    
C3    C21   A    
C1    O3    A    
C8    O6    A    
Cu1   O4    S    
C23   H12   S    
C2    O4    A    
C15   C21   A    
Cu2   O3    S    
Cu2   O6    S    
C18   C20   A    
C16   C18   A    
Cu1   N2    S    
C25   H16   S    
C3    H5    S    
Cu2   O7    S    
C23   H11   S    
C13   H3    S    
C26   H20   S    
C16   C22   A    
H9    N1    S    
O10   C25   S    
C4    C19   A    
C9    C19   A    
C4    H6    S    
Cu1   O8    S    
C8    O8    A    
C10   C20   A    
C21   O9    S    
C24   H14   S    
C25   C26   S    
