data_str_m3_o10_o25_f0_pcu.sym.12
_audit_creation_date              2012-12-10T16:56:29-0500
_audit_creation_method            fapswitch 2.2
_symmetry_space_group_name_H-M    P1
_symmetry_Int_Tables_number       1
_space_group_crystal_system       triclinic
_cell_length_a                    7.952545
_cell_length_b                    8.532542
_cell_length_c                    15.69218
_cell_angle_alpha                 93.760778
_cell_angle_beta                  84.013901
_cell_angle_gamma                 93.192744
_cell_volume                      1055.43175939

loop_
_atom_site_label
_atom_site_type_symbol
_atom_type_description
_atom_site_fract_x
_atom_site_fract_y
_atom_site_fract_z
_atom_type_partial_charge
C1    C     C_R   0.544628 0.793879 0.498281 0.944926
C2    C     C_3   0.421574 0.369447 0.027508 0.461989
C3    C     C_1   0.497315 0.500249 0.750700 -0.066551
C4    C     C_1   0.502702 0.499816 0.249300 -0.060091
C5    C     C_3   0.337821 0.492935 0.980818 -0.306378
C6    C     C_3   0.662280 0.507282 0.019181 -0.272799
C7    C     C_3   0.497939 0.499775 0.916969 -0.020244
C8    C     C_3   0.502149 0.500425 0.083029 -0.019857
C9    C     C_1   0.496853 0.499959 0.826091 0.085987
C10   C     C_1   0.503196 0.500174 0.173909 0.095220
C11   C     C_R   0.455372 0.206121 0.501721 0.942911
C12   C     C_R   0.499201 0.500410 0.661622 0.875814
C13   C     C_R   0.500800 0.499593 0.338377 0.877157
C14   C     C_2   0.567919 0.957599 0.498910 -0.321485
C15   C     C_2   0.432080 0.042402 0.501098 -0.321588
C16   C     C_3   0.419744 0.626120 0.037615 -0.199927
C17   C     C_3   0.580343 0.374072 0.962385 -0.258314
C18   C     C_3   0.578515 0.630765 0.972487 0.534597
H1    H     H_    0.356264 0.730029 0.069720 0.233016
H2    H     H_    0.121410 0.908523 0.643720 0.376578
H3    H     H_    0.643793 0.270165 0.930263 0.208427
H4    H     H_    0.794530 0.514976 0.036414 0.200953
H5    H     H_    0.205573 0.485240 0.963581 0.192220
H6    H     H_    0.696520 0.007858 0.498376 0.245707
H7    H     H_    0.303479 0.992143 0.501632 0.246143
H8    H     H_    0.801371 0.015134 0.992476 0.386677
H9    H     H_    0.166811 0.148493 0.958871 0.346022
H10   H     H_    0.878572 0.091463 0.356299 0.380333
N1    N     N_2   0.950320 0.457950 0.477300 0.107669
N2    N     N_2   0.049680 0.542050 0.522700 0.107542
O1    O     O_R   0.389250 0.738570 0.505570 -0.578952
O2    O     O_2   0.561486 0.896435 0.891794 -0.254552
O3    O     O_3   0.753095 0.916649 0.017328 -0.497153
O4    O     O_2   0.438352 0.103575 0.108034 -0.222548
O5    O     O_2   0.169617 0.234935 0.130288 -0.264167
O6    O     O_3   0.245939 0.082381 0.983420 -0.476811
O7    O     O_2   0.163008 0.275126 0.375146 -0.261441
O8    O     O_2   0.011649 0.166101 0.505041 -0.304626
O9    O     O_3   0.849360 0.201251 0.373363 -0.508135
O10   O     O_2   0.988351 0.833902 0.494963 -0.301614
O11   O     O_2   0.836992 0.724871 0.624856 -0.264817
O12   O     O_R   0.610750 0.261430 0.494430 -0.579594
O13   O     O_3   0.150640 0.798745 0.626641 -0.510471
O14   O     O_R   0.678390 0.711630 0.491020 -0.563104
O15   O     O_R   0.321610 0.288370 0.508980 -0.564300
O16   O     O_R   0.355460 0.513480 0.630490 -0.590987
O17   O     O_R   0.644540 0.486520 0.369510 -0.589301
O18   O     O_R   0.644600 0.486540 0.615950 -0.584690
O19   O     O_R   0.355400 0.513460 0.384050 -0.583917
O20   O     O_2   0.830801 0.764640 0.870384 -0.268284
S1    S     S_3+6 0.683410 0.806358 0.934199 0.066192
S2    S     S_3+6 0.316378 0.193960 0.065899 0.071732
S3    S     S_3+6 0.001867 0.273256 0.433684 0.161867
S4    S     S_3+6 0.998133 0.726742 0.566318 0.159988
Zn1   Zn    Zn3+2 0.306940 0.517990 0.509710 1.153115
Zn2   Zn    Zn3+2 0.693060 0.482010 0.490290 1.153915

loop_
_geom_bond_atom_site_label_1
_geom_bond_atom_site_label_2
_ccdc_geom_bond_type
O16   Zn1   S    
O2    S1    D    
N1    N2    D    
C3    C9    T    
N1    Zn2   S    
H9    O6    S    
O3    S1    S    
N2    Zn1   S    
O14   Zn2   S    
C1    O14   A    
O4    S2    D    
C5    H5    S    
O6    S2    S    
O18   Zn2   S    
C12   O18   A    
C7    C18   S    
O7    S3    D    
O1    Zn1   S    
C11   C15   S    
O20   S1    D    
C8    C16   S    
C2    C17   S    
N2    S4    S    
C1    C14   S    
O9    S3    S    
O8    S3    D    
C2    S2    S    
C16   H1    S    
C13   O19   A    
C16   C18   S    
C18   S1    S    
O10   S4    D    
C6    C18   S    
C17   H3    S    
O11   S4    D    
C15   H7    S    
C2    C5    S    
C11   O15   A    
C4    C10   T    
C6    H4    S    
C7    C9    S    
C1    O1    A    
H2    O13   S    
O15   Zn1   S    
C11   O12   A    
C8    C10   S    
C14   H6    S    
C4    C13   S    
C5    C7    S    
C6    C17   S    
C14   C15   D    
O5    S2    D    
C5    C16   S    
C6    C8    S    
C3    C12   S    
O13   S4    S    
H10   O9    S    
O12   Zn2   S    
O19   Zn1   S    
C13   O17   A    
C2    C8    S    
H8    O3    S    
O17   Zn2   S    
N1    S3    S    
C12   O16   A    
C7    C17   S    
