data_str_m12_o9_o22_f0_bcu.sym.216
_audit_creation_date              2013-03-05T15:58:06-0500
_audit_creation_method            fapswitch 2.2
_symmetry_space_group_name_H-M    P1
_symmetry_Int_Tables_number       1
_space_group_crystal_system       triclinic
_cell_length_a                    14.970378
_cell_length_b                    14.88003
_cell_length_c                    15.083124
_cell_angle_alpha                 110.187992
_cell_angle_beta                  108.875613
_cell_angle_gamma                 108.764175
_cell_volume                      2604.61959089

loop_
_atom_site_label
_atom_site_type_symbol
_atom_site_description
_atom_site_fract_x
_atom_site_fract_y
_atom_site_fract_z
_atom_type_partial_charge
C1    C     C_R   0.977206 0.252271 0.065247 -0.118051
H1    H     H_    0.943252 0.240133 0.115723 0.098321
N1    N     N_R   0.947080 0.293830 0.002870 -0.042406
C2    C     C_R   0.313911 0.757560 0.223498 -0.122458
H2    H     H_    0.379349 0.778078 0.205247 0.120434
N2    N     N_R   0.208950 0.706170 0.152110 -0.044269
C3    C     C_R   0.208660 0.409012 0.902000 -0.148810
H3    H     H_    0.179054 0.324320 0.845412 0.108331
N3    N     N_R   0.153670 0.443180 0.946090 -0.038610
C4    C     C_R   0.994953 0.592418 0.297851 -0.161913
H4    H     H_    0.016174 0.676514 0.347608 0.103596
N4    N     N_R   0.002360 0.556820 0.208890 -0.039140
C5    C     C_R   0.298684 0.591108 0.994476 -0.142088
H5    H     H_    0.353382 0.676144 0.025632 0.090890
N5    N     N_R   0.210070 0.556820 0.002870 -0.034323
C6    C     C_R   0.910673 0.409944 0.211731 -0.136136
H6    H     H_    0.859576 0.325451 0.185403 0.118257
N6    N     N_R   0.945960 0.443180 0.152110 -0.041481
C7    C     C_R   0.218575 0.746742 0.311783 -0.112263
H7    H     H_    0.195428 0.752617 0.373334 0.115164
N7    N     N_R   0.151710 0.706170 0.208890 -0.042135
C8    C     C_R   0.072370 0.257646 0.977689 -0.134000
H8    H     H_    0.130939 0.258054 0.951707 0.130109
N8    N     N_R   0.004320 0.293830 0.946090 -0.044020
C9    C     C_R   0.057873 0.229768 0.052721 0.051661
C10   C     C_R   0.320958 0.785191 0.324343 0.038573
C11   C     C_R   0.299215 0.500095 0.929683 -0.011527
C12   C     C_R   0.939059 0.502626 0.302864 0.063823
C13   C     C_R   0.686714 0.408403 0.935345 -0.134772
H9    H     H_    0.624884 0.323432 0.887805 0.087867
N9    N     N_R   0.789930 0.443180 0.997130 -0.035167
C14   C     C_R   0.022851 0.593435 0.782208 -0.109337
H10   H     H_    0.046959 0.678108 0.806533 0.118481
N10   N     N_R   0.054040 0.556820 0.847890 -0.040733
C15   C     C_R   0.791822 0.197691 0.699507 -0.103852
H11   H     H_    0.819860 0.172866 0.642981 0.131825
N11   N     N_R   0.848290 0.293830 0.791110 -0.046901
C16   C     C_R   0.998755 0.802631 0.094193 -0.130867
H12   H     H_    0.978655 0.830465 0.157409 0.108093
N12   N     N_R   0.995680 0.706170 0.053910 -0.039666
C17   C     C_R   0.089254 0.803646 0.002867 -0.151628
H13   H     H_    0.147892 0.831394 0.978166 0.105998
N13   N     N_R   0.052920 0.706170 0.997130 -0.041089
C18   C     C_R   0.703536 0.196788 0.793290 -0.155856
H14   H     H_    0.650362 0.168841 0.823690 0.096112
N14   N     N_R   0.791050 0.293830 0.847890 -0.037286
C19   C     C_R   0.776687 0.592498 0.026916 -0.144289
H15   H     H_    0.796795 0.677640 0.063802 0.108384
N15   N     N_R   0.846330 0.556820 0.053910 -0.037207
C20   C     C_R   0.941958 0.410255 0.686154 -0.132275
H16   H     H_    0.896788 0.326364 0.620460 0.150915
N16   N     N_R   0.997640 0.443180 0.791110 -0.043445
Ni1   Ni    Ni4+2 0.869690 0.369690 0.000000 0.213839
Ni2   Ni    Ni4+2 0.130310 0.630310 0.000000 0.217917
Ni3   Ni    Ni4+2 0.000970 0.369690 0.869780 0.222391
Ni4   Ni    Ni4+2 0.999030 0.630310 0.130220 0.214466
C21   C     C_R   0.675172 0.500536 0.951826 -0.007005
C22   C     C_R   0.959434 0.504811 0.679350 0.034603
C23   C     C_R   0.700994 0.135595 0.699474 0.060863
C24   C     C_R   0.056102 0.866161 0.063143 0.058501
H17   H     H_    0.526085 0.083754 0.996565 0.104142
C25   C     C_R   0.613779 0.259105 0.097335 -0.113773
H18   H     H_    0.579379 0.272792 0.031765 0.092704
C26   C     C_R   0.690333 0.348408 0.200945 -0.146268
H19   H     H_    0.712085 0.430678 0.214574 0.113629
C27   C     C_R   0.744629 0.331649 0.284031 0.084324
C28   C     C_R   0.714147 0.223512 0.263386 -0.130319
H20   H     H_    0.755082 0.208057 0.325411 0.175381
C29   C     C_R   0.634035 0.134361 0.160582 -0.086400
H21   H     H_    0.612223 0.051477 0.144765 0.126581
C30   C     C_R   0.585051 0.152294 0.077220 -0.118186
C31   C     C_R   0.849825 0.430029 0.485232 -0.228486
H22   H     H_    0.788098 0.365527 0.483695 0.143962
C32   C     C_R   0.942295 0.513908 0.583759 0.070768
C33   C     C_R   0.022071 0.601230 0.588190 0.017126
C34   C     C_R   0.008318 0.600217 0.493820 -0.246178
H23   H     H_    0.073573 0.664466 0.498778 0.131359
C35   C     C_R   0.923308 0.510336 0.394255 0.066566
C36   C     C_R   0.839343 0.426062 0.388501 0.026596
C37   C     C_R   0.150893 0.797221 0.734419 -0.186138
H24   H     H_    0.092230 0.819969 0.699971 0.113211
C38   C     C_R   0.247643 0.877000 0.830595 -0.130490
H25   H     H_    0.264110 0.960783 0.870197 0.146564
C39   C     C_R   0.322752 0.848282 0.877265 -0.112204
H26   H     H_    0.396570 0.909453 0.952689 0.101518
C40   C     C_R   0.302432 0.740295 0.827013 -0.116056
H27   H     H_    0.361102 0.719135 0.863658 0.096916
C41   C     C_R   0.205982 0.659930 0.730969 -0.122088
H28   H     H_    0.190328 0.575967 0.693832 0.112229
C42   C     C_R   0.128226 0.687440 0.685564 0.111796
H29   H     H_    0.055349 0.986930 0.433493 0.097499
C43   C     C_R   0.182139 0.004029 0.391521 -0.128629
H30   H     H_    0.150549 0.026581 0.332473 0.116000
C44   C     C_R   0.275994 0.995753 0.409750 -0.109676
H31   H     H_    0.315582 0.011000 0.363711 0.123204
C45   C     C_R   0.317396 0.966020 0.486004 0.118351
C46   C     C_R   0.265509 0.947260 0.545525 -0.201397
H32   H     H_    0.296628 0.924249 0.604634 0.125263
C47   C     C_R   0.170508 0.953566 0.525405 -0.121662
H33   H     H_    0.128610 0.935072 0.568408 0.099420
C48   C     C_R   0.128891 0.982113 0.448663 -0.096235
C49   C     C_R   0.508814 0.034455 0.594003 -0.244400
H34   H     H_    0.506544 0.102435 0.649350 0.132394
C50   C     C_R   0.606522 0.035929 0.609817 0.069596
C51   C     C_R   0.609337 0.949639 0.535282 0.102011
C52   C     C_R   0.512622 0.863982 0.444107 -0.163437
H35   H     H_    0.512771 0.796839 0.385179 0.122914
C53   C     C_R   0.416353 0.866687 0.426218 0.055457
C54   C     C_R   0.414024 0.952393 0.502429 0.019256
C55   C     C_R   0.765863 0.974275 0.497439 0.351477
C56   C     C_R   0.852320 0.953449 0.504474 -0.234226
H36   H     H_    0.897174 0.976885 0.465311 0.133030
C57   C     C_R   0.879485 0.899214 0.559062 -0.148096
H37   H     H_    0.942473 0.878630 0.559098 0.107866
C58   C     C_R   0.824975 0.870648 0.612719 -0.094809
H38   H     H_    0.847144 0.829703 0.655999 0.108702
C59   C     C_R   0.740236 0.892547 0.608511 -0.183281
H39   H     H_    0.696711 0.867258 0.648175 0.124770
C60   C     C_R   0.708812 0.942714 0.549929 -0.062493
C61   C     C_3   0.472830 0.393857 0.835531 -0.394890
H40   H     H_    0.469097 0.319411 0.838717 0.141884
H41   H     H_    0.476893 0.387226 0.761320 0.161964
C62   C     C_3   0.368551 0.395146 0.828322 -0.407094
H42   H     H_    0.322066 0.391431 0.751525 0.159000
H43   H     H_    0.317537 0.320828 0.825711 0.163424
H44   H     H_    0.570239 0.437401 0.049903 0.147073
H45   H     H_    0.416177 0.437326 0.040212 0.163549
C63   C     C_3   0.567207 0.507274 0.040364 -0.403645
C64   C     C_3   0.570042 0.599484 0.928347 -0.402465
C65   C     C_3   0.573119 0.500030 0.937689 0.394272
H46   H     H_    0.638920 0.676290 0.001201 0.165695
H47   H     H_    0.576665 0.597752 0.856459 0.156829
C66   C     C_3   0.396438 0.500293 0.926869 0.402410
C67   C     C_3   0.463832 0.507268 0.033883 -0.384375
C68   C     C_3   0.464850 0.599284 0.920752 -0.418092
H48   H     H_    0.418013 0.593010 0.842689 0.153712
H49   H     H_    0.486385 0.678365 0.987606 0.144545
H50   H     H_    0.637826 0.583631 0.114238 0.159781
H51   H     H_    0.485338 0.583727 0.104678 0.157922
H52   H     H_    0.291130 0.136390 0.772766 0.119329
C69   C     C_R   0.157996 0.066711 0.797772 -0.122162
H53   H     H_    0.101639 0.012152 0.712774 0.109031
C70   C     C_R   0.124715 0.064959 0.873733 -0.164594
H54   H     H_    0.042266 0.007351 0.846335 0.121302
C71   C     C_R   0.197930 0.137020 0.984910 0.099519
C72   C     C_R   0.304948 0.209033 0.019053 -0.157660
H55   H     H_    0.362812 0.263583 0.104467 0.122139
C73   C     C_R   0.337825 0.208795 0.942203 -0.136529
H56   H     H_    0.419569 0.264420 0.967750 0.110832
C74   C     C_R   0.264918 0.137046 0.831869 -0.137964
C75   C     C_R   0.167076 0.039666 0.079180 -0.221755
H57   H     H_    0.213619 0.005428 0.053004 0.127579
C76   C     C_R   0.090132 0.982812 0.100802 0.045921
C77   C     C_R   0.039021 0.035994 0.144731 -0.001708
C78   C     C_R   0.066829 0.141614 0.162990 -0.214155
H58   H     H_    0.031366 0.183139 0.201702 0.129964
C79   C     C_R   0.105815 0.173500 0.099967 0.056284
C80   C     C_R   0.164253 0.125521 0.063456 0.026093
C81   C     C_R   0.840160 0.914959 0.036255 -0.117925
H59   H     H_    0.845692 0.900455 0.963206 0.109645
C82   C     C_R   0.738424 0.875926 0.029076 -0.160058
H60   H     H_    0.666104 0.829885 0.950874 0.118000
C83   C     C_R   0.729972 0.896321 0.122809 -0.116891
H61   H     H_    0.651197 0.865495 0.117351 0.113627
C84   C     C_R   0.823269 0.956518 0.223660 -0.064942
H62   H     H_    0.816340 0.971309 0.295561 0.163615
C85   C     C_R   0.925204 0.999836 0.231754 -0.207121
H63   H     H_    0.996410 0.052530 0.310864 0.118459
C86   C     C_R   0.934333 0.977650 0.137825 0.115676
N17   N     N_R   0.740291 0.030661 0.440730 0.205010
O1    O     O_R   0.817823 0.110587 0.448965 -0.489216
O2    O     O_R   0.640542 0.003561 0.381188 -0.442916

loop_
_geom_bond_atom_site_label_1
_geom_bond_atom_site_label_2
_geom_bond_distance
_ccdc_geom_bond_type
C6    C12   1.381510 A    
C84   H62   1.076132 S    
C78   C79   1.400536 A    
C17   H13   1.079116 S    
C83   H61   1.082144 S    
H45   C67   1.111827 S    
C14   C22   1.369940 A    
C82   H60   1.082399 S    
C68   H48   1.111104 S    
C19   N15   1.328614 A    
C61   H40   1.109610 S    
N8    Ni3   1.870107 S    
C27   C36   1.487279 S    
C79   C80   1.421438 A    
N17   O2    1.301529 A    
C62   C66   1.550715 S    
C61   C65   1.556048 S    
C23   C50   1.434320 S    
C34   C35   1.394885 A    
C83   C84   1.395356 A    
C73   C74   1.396204 A    
C64   C65   1.547775 S    
C31   C36   1.394014 A    
C69   C70   1.393977 A    
C71   C72   1.400352 A    
C16   H12   1.079108 S    
C37   H24   1.083130 S    
C40   C41   1.397681 A    
C62   H43   1.102202 S    
C52   H35   1.085358 S    
C18   C23   1.373484 A    
C70   H54   1.083438 S    
C70   C71   1.405960 A    
C3    C11   1.382067 A    
C53   C54   1.411276 A    
C15   C23   1.376060 A    
C1    H1    1.075575 S    
C29   C30   1.396714 A    
C7    C10   1.373176 A    
C63   H50   1.114175 S    
C55   C56   1.405121 A    
C25   C26   1.396265 A    
N6    Ni1   1.879735 S    
C46   C47   1.396350 A    
C64   C68   1.540472 S    
N12   N13   1.393762 A    
C76   C77   1.416464 A    
C56   H36   1.081467 S    
C18   N14   1.320515 A    
C6    H6    1.078731 S    
N12   Ni4   1.870109 S    
C8    C9    1.387434 A    
C19   H15   1.079354 S    
C20   N16   1.337576 A    
C75   H57   1.080945 S    
C81   C82   1.396233 A    
N3    Ni3   1.888626 S    
C12   C35   1.444828 S    
H29   C48   1.081052 S    
C33   C42   1.485279 S    
C61   C62   1.536256 S    
C64   H47   1.112707 S    
H17   C30   1.081187 S    
C27   C28   1.408615 A    
C84   C85   1.396923 A    
C5    H5    1.080027 S    
C1    C9    1.403659 A    
C17   N13   1.335104 A    
N1    N8    1.393763 A    
C49   H34   1.085774 S    
N9    N15   1.385562 A    
C50   C51   1.408353 A    
C82   C83   1.396852 A    
C61   H41   1.112668 S    
C69   C74   1.392868 A    
C46   H32   1.083372 S    
C72   C73   1.397600 A    
C32   C33   1.417456 A    
C72   H55   1.082947 S    
C28   H20   1.082520 S    
C11   C66   1.468854 S    
C75   C80   1.388348 A    
C21   C65   1.469798 S    
C62   H42   1.112913 S    
C34   H23   1.084635 S    
C85   C86   1.402257 A    
C10   C53   1.432147 S    
C85   H63   1.080939 S    
C40   H27   1.077037 S    
C2    H2    1.081090 S    
C58   C59   1.395571 A    
N2    N7    1.393763 A    
N9    Ni1   1.860828 S    
C77   C86   1.475587 S    
C57   C58   1.393970 A    
C1    N1    1.333215 A    
C15   H11   1.073997 S    
C26   C27   1.407263 A    
C49   C50   1.395331 A    
C33   C34   1.364644 A    
N5    Ni2   1.860826 S    
C13   H9    1.077705 S    
C63   C67   1.518739 S    
C19   C21   1.394114 A    
N13   Ni2   1.860363 S    
C81   H59   1.083426 S    
C45   C46   1.404273 A    
C25   H18   1.077850 S    
C43   C44   1.396300 A    
C20   H16   1.080289 S    
C20   C22   1.392419 A    
C44   H31   1.083253 S    
C56   C57   1.395611 A    
C39   H26   1.081049 S    
C44   C45   1.403244 A    
C77   C78   1.387550 A    
N4    Ni4   1.870475 S    
C45   C54   1.478686 S    
C4    N4    1.317889 A    
C43   C48   1.398546 A    
C16   C24   1.376089 A    
C24   C76   1.469169 S    
C31   C32   1.399905 A    
C47   C48   1.396948 A    
C41   C42   1.405634 A    
N2    Ni2   1.879860 S    
C38   C39   1.395358 A    
C5    N5    1.324386 A    
C9    C79   1.480341 S    
C66   C67   1.548331 S    
C8    N8    1.330684 A    
C2    N2    1.333083 A    
H52   C74   1.082391 S    
C67   H51   1.114303 S    
C18   H14   1.082437 S    
C22   C32   1.442448 S    
C57   H37   1.081003 S    
C13   C21   1.384238 A    
C4    C12   1.372023 A    
C68   H49   1.109969 S    
H44   C63   1.110468 S    
C81   C86   1.405292 A    
C7    N7    1.316964 A    
C35   C36   1.414307 A    
C5    C11   1.373918 A    
C17   C24   1.394069 A    
C39   C40   1.394528 A    
C31   H22   1.084363 S    
C63   C65   1.548347 S    
C55   C60   1.418764 A    
N7    Ni4   1.888731 S    
C2    C10   1.389381 A    
N16   Ni3   1.870477 S    
N10   Ni2   1.879738 S    
N15   Ni4   1.888624 S    
C51   C52   1.388056 A    
N10   N16   1.385564 A    
C47   H33   1.079459 S    
C14   H10   1.074726 S    
C7    H7    1.077596 S    
C59   C60   1.404113 A    
N3    N5    1.385561 A    
C15   N11   1.331218 A    
C13   N9    1.320930 A    
C59   H39   1.083493 S    
C26   H19   1.083257 S    
C16   N12   1.330026 A    
C71   C80   1.468977 S    
N1    Ni1   1.860364 S    
C52   C53   1.394507 A    
N14   Ni1   1.879862 S    
C43   H30   1.079499 S    
C37   C38   1.399004 A    
C25   C30   1.395006 A    
C73   H56   1.074345 S    
C75   C76   1.398378 A    
C37   C42   1.406197 A    
C29   H21   1.082601 S    
C3    H3    1.080094 S    
C4    H4    1.082516 S    
N11   Ni3   1.888730 S    
C3    N3    1.329868 A    
C41   H28   1.083195 S    
C55   N17   1.439531 S    
C6    N6    1.333638 A    
C38   H25   1.079284 S    
N17   O1    1.301436 A    
N4    N6    1.385561 A    
C78   H58   1.080361 S    
C66   C68   1.552906 S    
C8    H8    1.069088 S    
C51   C60   1.476021 S    
C49   C54   1.365813 A    
C28   C29   1.398561 A    
N11   N14   1.393763 A    
C69   H53   1.075005 S    
C58   H38   1.082547 S    
C14   N10   1.316518 A    
C64   H46   1.103994 S    
