data_str_m2_o10_o18_f0_pcu.sym.72
_audit_creation_date              2012-10-26T19:59:15-0400
_audit_creation_method            fapswitch 2.2
_symmetry_space_group_name_H-M    P1
_symmetry_Int_Tables_number       1
_space_group_crystal_system       triclinic
_cell_length_a                    7.4447
_cell_length_b                    8.690806
_cell_length_c                    15.650383
_cell_angle_alpha                 94.182394
_cell_angle_beta                  75.324729
_cell_angle_gamma                 103.157375
_cell_volume                      953.713314941

loop_
_atom_site_label
_atom_site_type_symbol
_atom_type_description
_atom_site_fract_x
_atom_site_fract_y
_atom_site_fract_z
_atom_type_partial_charge
C1    C     C_R   0.545053 0.800153 0.502649 0.551752
C2    C     C_R   0.615664 0.511058 0.333193 0.550563
C3    C     C_R   0.314307 0.444449 0.760379 0.002333
C4    C     C_R   0.686920 0.517023 0.236469 -0.009181
C5    C     C_R   0.100170 0.272585 0.874772 -0.096901
C6    C     C_R   0.940709 0.592018 0.106128 -0.079973
C7    C     C_R   0.144023 0.335144 0.790581 -0.092380
C8    C     C_R   0.879129 0.576152 0.197402 -0.139671
C9    C     C_R   0.437370 0.492739 0.815920 -0.096513
C10   C     C_R   0.559641 0.465466 0.182721 -0.070182
C11   C     C_R   0.409679 0.414838 0.895513 -0.005875
C12   C     C_R   0.454883 0.199847 0.497435 0.551447
C13   C     C_R   0.622114 0.464982 0.089878 0.006462
C14   C     C_R   0.233953 0.307563 0.927267 0.027922
C15   C     C_R   0.812759 0.541481 0.051824 0.049694
C16   C     C_R   0.551071 0.444551 0.944746 -0.066038
C17   C     C_R   0.496555 0.400399 0.034659 -0.015983
C18   C     C_R   0.324712 0.285726 0.064824 0.282244
C19   C     C_R   0.746532 0.512988 0.906528 0.216744
C20   C     C_R   0.196753 0.236524 0.010039 0.238271
C21   C     C_R   0.874069 0.566601 0.960650 0.291855
C22   C     C_2   0.570404 0.968057 0.503960 -0.150988
C23   C     C_2   0.429444 0.031950 0.496242 -0.148524
C24   C     C_R   0.384155 0.484920 0.666539 0.535421
Cu1   Cu    Cu3+1 0.322120 0.483240 0.490330 0.970521
Cu2   Cu    Cu3+1 0.677880 0.516760 0.509670 0.967491
H1    H     H_    0.410066 0.432500 0.214456 0.186296
H2    H     H_    0.996027 0.384150 0.430859 0.243497
H3    H     H_    0.016956 0.047265 0.988811 0.330618
H4    H     H_    0.078750 0.670089 0.863614 0.369871
H5    H     H_    0.169232 0.138395 0.158653 0.376605
H6    H     H_    0.758000 0.413295 0.791500 0.324545
H7    H     H_    0.558256 0.588953 0.794383 0.176267
H8    H     H_    0.980379 0.616461 0.237548 0.137780
H9    H     H_    0.046984 0.295155 0.748396 0.138081
H10   H     H_    0.962455 0.194554 0.896984 0.126217
H11   H     H_    0.088973 0.644974 0.078435 0.177746
H12   H     H_    0.706247 0.039437 0.511247 0.134449
H13   H     H_    0.293591 0.960574 0.488969 0.136387
H14   H     H_    0.003938 0.615796 0.569171 0.249988
N1    N     N_2   0.945180 0.542040 0.524240 -0.254034
N2    N     N_2   0.054820 0.457960 0.475760 -0.258562
O1    O     O_R   0.384450 0.714270 0.493720 -0.503304
O2    O     O_3   0.060928 0.642715 0.925943 -0.712846
O3    O     O_3   0.297869 0.207394 0.142539 -0.709919
O4    O     O_3   0.822879 0.512264 0.816474 -0.740602
O5    O     O_R   0.615550 0.285730 0.506280 -0.505110
O6    O     O_R   0.684880 0.742590 0.510050 -0.495469
O7    O     O_R   0.315120 0.257410 0.489950 -0.495115
O8    O     O_R   0.265540 0.477900 0.617090 -0.494378
O9    O     O_R   0.734460 0.522100 0.382910 -0.501638
O10   O     O_R   0.565970 0.506210 0.633420 -0.498016
O11   O     O_R   0.434030 0.493790 0.366580 -0.500803
O12   O     O_3   0.037163 0.118742 0.039367 -0.709061

loop_
_geom_bond_atom_site_label_1
_geom_bond_atom_site_label_2
_ccdc_geom_bond_type
Cu1   N2    S    
C24   O10   A    
C2    C4    S    
C18   O3    S    
C1    O6    A    
H5    O3    S    
Cu2   O10   S    
C3    C9    A    
C13   C17   A    
C2    O11   A    
C21   O2    S    
N1    N2    D    
C18   C20   A    
C2    O9    A    
C10   H1    S    
Cu2   O6    S    
C4    C8    A    
Cu1   O1    S    
C12   O7    A    
C5    C14   A    
C6    H11   S    
C1    C22   S    
Cu1   Cu2   S    
C8    H8    S    
Cu2   O9    S    
C9    H7    S    
C9    C11   A    
C12   C23   S    
H4    O2    S    
C3    C24   S    
H6    O4    S    
Cu2   O5    S    
C12   O5    A    
C23   H13   S    
H2    N2    S    
H14   N1    S    
C19   C21   A    
Cu1   O11   S    
C17   C18   A    
C3    C7    A    
C13   C15   A    
C24   O8    A    
C11   C14   A    
Cu1   O7    S    
C19   O4    S    
H3    O12   S    
C4    C10   A    
C22   H12   S    
C5    H10   S    
C14   C20   A    
C15   C21   A    
C20   O12   S    
C11   C16   A    
C5    C7    A    
C22   C23   D    
C6    C8    A    
C6    C15   A    
Cu1   O8    S    
C7    H9    S    
C1    O1    A    
Cu2   N1    S    
C16   C17   A    
C10   C13   A    
C16   C19   A    
