data_str_m9_o2_o25_f0_sra.sym.271
_audit_creation_date              2013-03-05T16:03:27-0500
_audit_creation_method            fapswitch 2.2
_symmetry_space_group_name_H-M    P1
_symmetry_Int_Tables_number       1
_space_group_crystal_system       triclinic
_cell_length_a                    6.952439
_cell_length_b                    18.286828
_cell_length_c                    20.129968
_cell_angle_alpha                 68.361934
_cell_angle_beta                  90.860579
_cell_angle_gamma                 90.982261
_cell_volume                      2378.48280363

loop_
_atom_site_label
_atom_site_type_symbol
_atom_site_description
_atom_site_fract_x
_atom_site_fract_y
_atom_site_fract_z
_atom_type_partial_charge
O1    O     O_R   0.488960 0.443750 0.941980 -0.580438
O2    O     O_R   0.823890 0.406510 0.087590 -0.590553
O3    O     O_R   0.999680 0.556250 0.058020 -0.589740
C1    C     C_R   0.655213 0.383502 0.115005 0.943211
O4    O     O_R   0.818360 0.434410 0.944340 -0.597749
O5    O     O_R   0.994110 0.584350 0.913750 -0.592583
C2    C     C_R   0.648398 0.420421 0.923820 0.970878
O6    O     O_R   0.494530 0.415650 0.086250 -0.589487
O7    O     O_3   0.662590 0.549160 0.990130 -0.274800
V1    V     V_3+5 0.935320 0.490880 0.001830 1.169521
O8    O     O_R   0.324180 0.593490 0.912410 -0.589288
C3    C     C_R   0.155150 0.616347 0.884885 0.943822
O9    O     O_R   0.329720 0.565590 0.055660 -0.597254
C4    C     C_R   0.162697 0.579794 0.076092 0.976702
V2    V     V_3+5 0.435990 0.509120 0.998170 1.172960
O10   O     O_3   0.158850 0.450840 0.009870 -0.270883
C5    C     C_3   0.057929 0.707484 0.309443 0.393514
C6    C     C_3   0.246459 0.687707 0.280763 -0.270825
H1    H     H_    0.336715 0.635418 0.307698 0.177456
C7    C     C_1   0.158472 0.625886 0.121341 -0.305271
C8    C     C_1   0.107717 0.875318 0.377562 -0.271988
C9    C     C_3   0.956970 0.727898 0.236317 -0.233760
C10   C     C_3   0.147040 0.710211 0.206550 0.146507
C11   C     C_3   0.024369 0.815092 0.216281 -0.188591
C12   C     C_3   0.121719 0.793129 0.290598 0.024356
C13   C     C_3   0.214017 0.796951 0.185618 -0.183228
C14   C     C_3   0.308584 0.774914 0.260378 0.019984
C15   C     C_1   0.154733 0.664047 0.159587 0.019935
C16   C     C_1   0.112326 0.838204 0.338497 0.070226
H2    H     H_    0.281035 0.833825 0.134188 0.119179
H3    H     H_    0.935001 0.867719 0.189338 0.137540
H4    H     H_    0.810845 0.708125 0.226848 0.144070
H5    H     H_    0.918768 0.528632 0.695419 0.154808
C17   C     C_R   0.266197 0.773864 0.874063 -0.157381
C18   C     C_R   0.320063 0.848885 0.870674 -0.111991
C19   C     C_R   0.308509 0.912578 0.806282 -0.121053
C20   C     C_R   0.242728 0.901753 0.744801 -0.167566
C21   C     C_R   0.188725 0.826112 0.746322 0.119011
C22   C     C_R   0.200967 0.760796 0.812341 0.117603
C23   C     C_R   0.119886 0.815232 0.683816 -0.306456
C24   C     C_R   0.064038 0.738926 0.687329 0.113117
C25   C     C_R   0.076348 0.673600 0.753350 0.107459
C26   C     C_R   0.144667 0.684532 0.815898 -0.307320
C27   C     C_R   0.999595 0.725800 0.625543 -0.167765
C28   C     C_R   0.946968 0.650681 0.628834 -0.067414
C29   C     C_R   0.958677 0.586974 0.693225 -0.046937
C30   C     C_R   0.023301 0.597889 0.754807 -0.159137
H6    H     H_    0.275129 0.726578 0.925714 0.104752
H7    H     H_    0.369895 0.857696 0.918420 0.111643
H8    H     H_    0.349447 0.970844 0.804011 0.115853
H9    H     H_    0.233460 0.953521 0.696399 0.118734
H10   H     H_    0.990596 0.773111 0.573905 0.120352
H11   H     H_    0.898020 0.641807 0.581013 0.172569
H12   H     H_    0.032680 0.546139 0.803226 0.130283
H13   H     H_    0.643776 0.361755 0.429857 0.144085
C31   C     C_R   0.611014 0.095264 0.249600 -0.165572
C32   C     C_R   0.612237 0.083035 0.185245 -0.113842
C33   C     C_R   0.624035 0.146746 0.120766 -0.113887
C34   C     C_R   0.634794 0.223191 0.120119 -0.147069
C35   C     C_R   0.634100 0.237454 0.184572 0.113961
C36   C     C_R   0.621856 0.172172 0.250665 0.110352
C37   C     C_R   0.645032 0.315184 0.183941 -0.295478
C38   C     C_R   0.644161 0.327579 0.249469 0.107796
C39   C     C_R   0.631637 0.262300 0.315519 0.118497
C40   C     C_R   0.620309 0.184619 0.316134 -0.301075
C41   C     C_R   0.656440 0.404434 0.250585 -0.235961
C42   C     C_R   0.656472 0.416642 0.315119 0.089425
C43   C     C_R   0.643828 0.352698 0.379596 -0.124486
C44   C     C_R   0.631518 0.276418 0.380012 -0.175810
H14   H     H_    0.601309 0.043839 0.298366 0.111304
H15   H     H_    0.603854 0.023777 0.185436 0.114835
H16   H     H_    0.624810 0.136915 0.070929 0.109943
H17   H     H_    0.643691 0.270840 0.068639 0.087248
H18   H     H_    0.666720 0.455541 0.201493 0.116836
H19   H     H_    0.622262 0.228720 0.431450 0.104079
O11   O     O_R   0.770540 0.084530 0.414050 -0.589457
O12   O     O_R   0.445710 0.065660 0.555720 -0.595259
O13   O     O_R   0.270420 0.915650 0.586190 -0.589419
C45   C     C_R   0.615476 0.079861 0.576246 0.975703
O14   O     O_R   0.441140 0.093540 0.412470 -0.590648
O15   O     O_R   0.265820 0.943740 0.441930 -0.589241
C46   C     C_R   0.609860 0.116366 0.385041 0.941808
O16   O     O_R   0.775150 0.056440 0.558310 -0.589645
O17   O     O_3   0.602370 0.950960 0.510050 -0.269504
V3    V     V_3+5 0.329450 0.009140 0.498150 1.173826
O18   O     O_R   0.935790 0.934280 0.444060 -0.591827
C47   C     C_R   0.102993 0.920400 0.423575 0.971306
O19   O     O_R   0.940370 0.906390 0.587310 -0.592445
C48   C     C_R   0.109359 0.883475 0.614865 0.940042
V4    V     V_3+5 0.828810 0.990710 0.501460 1.176314
O20   O     O_3   0.105780 0.049100 0.489960 -0.271731
C49   C     C_3   0.804384 0.284198 0.748385 -0.175197
C50   C     C_3   0.672357 0.299455 0.681594 -0.208294
H20   H     H_    0.705030 0.339530 0.626167 0.169539
H21   H     H_    0.948583 0.311196 0.748380 0.187505
C51   C     C_1   0.625699 0.125888 0.621423 -0.296050
C52   C     C_1   0.637475 0.375010 0.878144 -0.273983
C53   C     C_3   0.762487 0.194462 0.772418 -0.122009
C54   C     C_3   0.630042 0.210260 0.706536 0.173993
C55   C     C_3   0.587495 0.202993 0.816035 -0.208321
C56   C     C_3   0.629682 0.292196 0.791669 0.061558
C57   C     C_3   0.454524 0.217908 0.749542 -0.266598
C58   C     C_3   0.500513 0.306343 0.726067 0.391840
C59   C     C_1   0.629431 0.164066 0.659624 0.016437
C60   C     C_1   0.632476 0.337528 0.839361 0.077036
H22   H     H_    0.309377 0.191660 0.749402 0.139063
H23   H     H_    0.553244 0.163314 0.871438 0.132126
H24   H     H_    0.872120 0.147644 0.791425 0.116131
N1    N     N_R   0.971800 0.659011 0.377252 0.235391
O21   O     O_R   0.052351 0.593658 0.417406 -0.374141
O22   O     O_R   0.813806 0.680869 0.397933 -0.400453
C61   C     C_1   0.670233 0.495246 0.315123 0.091111
N2    N     N_1   0.681383 0.558401 0.315170 -0.051433
N3    N     N_R   0.355178 0.367016 0.699206 0.226529
O23   O     O_R   0.255060 0.372709 0.642468 -0.395242
O24   O     O_R   0.323743 0.415323 0.731647 -0.424171
C62   C     C_1   0.495633 0.804249 0.274839 0.107976
N4    N     N_1   0.641112 0.828491 0.286942 -0.071934

loop_
_geom_bond_atom_site_label_1
_geom_bond_atom_site_label_2
_geom_bond_distance
_ccdc_geom_bond_type
C45   O16   1.299447 A    
C8    C47   1.450390 S    
C50   H20   1.110146 S    
C24   C25   1.424743 A    
C18   C19   1.389204 A    
C1    O6    1.296455 A    
C50   C58   1.537912 S    
H13   C43   1.083829 S    
C32   C33   1.390498 A    
C49   C53   1.553736 S    
C28   C29   1.389387 A    
C13   C14   1.546470 S    
O14   V3    1.998945 S    
C9    H4    1.109777 S    
C19   C20   1.393042 A    
C20   C21   1.416517 A    
C11   C13   1.555633 S    
C6    H1    1.109081 S    
C3    C26   1.487146 S    
N1    O22   1.300451 A    
O5    C3    1.296109 A    
C21   C22   1.424587 A    
C20   H9    1.081497 S    
V2    O10   2.159161 S    
C41   H18   1.083447 S    
C1    C37   1.487560 S    
C53   H24   1.110136 S    
C31   C32   1.393690 A    
C35   C37   1.417549 A    
C17   C18   1.393235 A    
C10   C13   1.548560 S    
C55   C56   1.544471 S    
O8    V2    2.000369 S    
C17   C22   1.415924 A    
C43   C44   1.393016 A    
C18   H7    1.082604 S    
C44   H19   1.082174 S    
O1    V2    1.966926 S    
C23   C48   1.487234 S    
O7    V1    2.158102 S    
C50   C54   1.543746 S    
C52   C60   1.213878 T    
C27   H10   1.081477 S    
O12   C45   1.298166 A    
C41   C42   1.396887 A    
C38   C41   1.414968 A    
O12   V3    1.972610 S    
C34   C35   1.414634 A    
C56   C58   1.528938 S    
O9    C4    1.299436 A    
C12   C16   1.484329 S    
H5    C29   1.082894 S    
O17   V4    1.706747 S    
C61   N2    1.156519 T    
N3    O23   1.300285 A    
C14   C62   1.464081 S    
O13   C48   1.296000 A    
C56   C60   1.481597 S    
C42   C43   1.392948 A    
C4    C7    1.452184 S    
C58   N3    1.457380 S    
C11   C12   1.547014 S    
O14   C46   1.299139 A    
O18   V4    1.970945 S    
O11   C46   1.296096 A    
O4    C2    1.298179 A    
O18   C47   1.299043 A    
C22   C26   1.418371 A    
C7    C15   1.215658 T    
C33   C34   1.393929 A    
C10   C15   1.483545 S    
C8    C16   1.214556 T    
C49   H21   1.109877 S    
C32   H15   1.082797 S    
C6    C10   1.550537 S    
C35   C36   1.425152 A    
O2    C1    1.299281 A    
C37   C38   1.418488 A    
C55   C57   1.556559 S    
C5    C6    1.541136 S    
C31   C36   1.415160 A    
C39   C44   1.413979 A    
O17   V3    2.158074 S    
O15   C47   1.298994 A    
O3    C4    1.299473 A    
C49   C56   1.545213 S    
C30   H12   1.081578 S    
O13   V3    1.998856 S    
C23   C24   1.418589 A    
O19   V4    2.000314 S    
C13   H2    1.110170 S    
O6    V2    1.999522 S    
C31   H14   1.082376 S    
C51   C59   1.214139 T    
C24   C27   1.415973 A    
C9    C11   1.558988 S    
C17   H6    1.081428 S    
C25   C26   1.419626 A    
V4    O20   2.159240 S    
V3    O20   1.709317 S    
C19   H8    1.082823 S    
C27   C28   1.393445 A    
O16   V4    1.983995 S    
C34   H17   1.082186 S    
C29   C30   1.393222 A    
C55   H23   1.110070 S    
C54   C59   1.481026 S    
C2    C52   1.448993 S    
O1    C2    1.299143 A    
C6    C14   1.548298 S    
C5    N1    1.456548 S    
O5    V1    1.998787 S    
N3    O24   1.300357 A    
O8    C3    1.299700 A    
C12   C14   1.535210 S    
C53   C55   1.554033 S    
C5    C9    1.539993 S    
C5    C12   1.528592 S    
C39   C40   1.416867 A    
O9    V2    1.970970 S    
O7    V2    1.710260 S    
C11   H3    1.109874 S    
C45   C51   1.449488 S    
O3    V1    1.967802 S    
V1    O10   1.709253 S    
C62   N4    1.155754 T    
C21   C23   1.419544 A    
C33   H16   1.082606 S    
C40   C46   1.486694 S    
C49   C50   1.556639 S    
C57   H22   1.110427 S    
C25   C30   1.416543 A    
C57   C58   1.537555 S    
C28   H11   1.082727 S    
C38   C39   1.424713 A    
C36   C40   1.417922 A    
C42   C61   1.438992 S    
O4    V1    1.972605 S    
C54   C57   1.544337 S    
O19   C48   1.299819 A    
C53   C54   1.542751 S    
C9    C10   1.546367 S    
N1    O21   1.300846 A    
O15   V3    1.967680 S    
O11   V4    1.994937 S    
O2    V1    1.998941 S    
