data_str_m3_o10_o29_f0_pcu.sym.123
_audit_creation_date              2012-12-10T16:59:13-0500
_audit_creation_method            fapswitch 2.2
_symmetry_space_group_name_H-M    P1
_symmetry_Int_Tables_number       1
_space_group_crystal_system       triclinic
_cell_length_a                    7.737963
_cell_length_b                    8.563273
_cell_length_c                    27.610103
_cell_angle_alpha                 90.946939
_cell_angle_beta                  86.137265
_cell_angle_gamma                 93.68939
_cell_volume                      1821.43304389

loop_
_atom_site_label
_atom_site_type_symbol
_atom_type_description
_atom_site_fract_x
_atom_site_fract_y
_atom_site_fract_z
_atom_type_partial_charge
C1    C     C_R   0.545906 0.794855 0.498732 0.975276
C2    C     C_R   0.546458 0.661167 0.126356 0.000558
C3    C     C_R   0.507597 0.500949 0.646854 -0.040105
C4    C     C_R   0.489440 0.507920 0.353325 -0.043097
C5    C     C_R   0.520645 0.680168 0.025161 0.061798
C6    C     C_R   0.362667 0.421665 0.976816 0.057575
C7    C     C_R   0.330980 0.437711 0.027610 -0.087946
C8    C     C_R   0.506725 0.686777 0.974373 -0.087540
C9    C     C_R   0.427800 0.557699 0.051716 0.058502
C10   C     C_R   0.445406 0.548907 0.950226 0.052485
C11   C     C_R   0.634665 0.784313 0.049674 -0.216234
C12   C     C_R   0.454093 0.205144 0.501264 0.976186
C13   C     C_R   0.326625 0.278678 0.952305 -0.180846
C14   C     C_R   0.646070 0.775847 0.099542 -0.132068
C15   C     C_R   0.357121 0.265563 0.902352 -0.108804
C16   C     C_R   0.502639 0.499919 0.594039 0.874275
C17   C     C_R   0.497156 0.501023 0.405975 0.874003
C18   C     C_R   0.559268 0.821792 0.946207 0.394845
C19   C     C_R   0.214612 0.334051 0.055801 0.394276
C20   C     C_2   0.570175 0.958299 0.497997 -0.372565
C21   C     C_2   0.429822 0.041699 0.501992 -0.373158
C22   C     C_R   0.560870 0.652281 0.821590 0.540342
C23   C     C_R   0.470073 0.536820 0.899270 -0.061327
C24   C     C_R   0.353778 0.427913 0.179339 0.540253
C25   C     C_R   0.449516 0.385650 0.824876 0.510847
C26   C     C_R   0.556704 0.650503 0.176567 0.515776
C27   C     C_R   0.355044 0.507630 0.726077 -0.101474
C28   C     C_R   0.627782 0.491503 0.272316 -0.087542
C29   C     C_R   0.351922 0.504010 0.675958 -0.202105
C30   C     C_R   0.636708 0.482567 0.322345 -0.210116
C31   C     C_R   0.666509 0.500851 0.668682 -0.213406
C32   C     C_R   0.333775 0.542809 0.333677 -0.213583
C33   C     C_R   0.669183 0.504846 0.719063 -0.086333
C34   C     C_R   0.436519 0.552054 0.102503 -0.057991
C35   C     C_R   0.325615 0.552698 0.283824 -0.093924
C36   C     C_R   0.513264 0.508269 0.747642 0.313672
C37   C     C_R   0.472182 0.526695 0.253065 0.303490
C38   C     C_R   0.540807 0.666196 0.872203 -0.120184
C39   C     C_R   0.338575 0.434908 0.129285 -0.118308
C40   C     C_R   0.581366 0.808239 0.895871 -0.125210
C41   C     C_R   0.224981 0.329864 0.105856 -0.116754
C42   C     C_R   0.425285 0.394732 0.875406 -0.011722
H1    H     H_    0.788191 0.498839 0.646940 0.158629
H2    H     H_    0.227647 0.503975 0.660106 0.162157
H3    H     H_    0.741210 0.470739 0.248478 0.154732
H4    H     H_    0.234545 0.510788 0.748328 0.138392
H5    H     H_    0.735398 0.858155 0.116864 0.201044
H6    H     H_    0.326802 0.153704 0.884970 0.194993
H7    H     H_    0.722546 0.868722 0.030465 0.211606
H8    H     H_    0.281065 0.173527 0.971526 0.198490
H9    H     H_    0.702691 0.009444 0.494183 0.180846
H10   H     H_    0.297306 0.990553 0.505806 0.180791
H11   H     H_    0.494047 0.975794 0.994736 0.337947
H12   H     H_    0.218479 0.563610 0.356754 0.165202
H13   H     H_    0.044498 0.299004 0.008081 0.344743
H14   H     H_    0.014062 0.383050 0.463386 0.192610
H15   H     H_    0.985939 0.616948 0.536616 0.191503
H16   H     H_    0.791660 0.505440 0.735889 0.139057
H17   H     H_    0.205359 0.580500 0.268973 0.149777
H18   H     H_    0.625071 0.911654 0.875257 0.216831
H19   H     H_    0.139733 0.246193 0.126467 0.211360
H20   H     H_    0.758091 0.455577 0.336686 0.164900
N1    N     N_R   0.513413 0.514113 0.799207 -0.357502
N2    N     N_R   0.461650 0.534699 0.201790 -0.354058
N3    N     N_2   0.950320 0.457960 0.486880 -0.175470
N4    N     N_2   0.049680 0.542040 0.513120 -0.175949
O1    O     O_R   0.389250 0.738570 0.503220 -0.611612
O2    O     O_2   0.262960 0.314466 0.205405 -0.554992
O3    O     O_2   0.659574 0.755430 0.200123 -0.552464
O4    O     O_2   0.407598 0.250421 0.801362 -0.538069
O5    O     O_3   0.576228 0.970797 0.965702 -0.775498
O6    O     O_3   0.080882 0.244057 0.036662 -0.773527
O7    O     O_R   0.610750 0.261430 0.496780 -0.611107
O8    O     O_R   0.678390 0.711630 0.494810 -0.628965
O9    O     O_R   0.321610 0.288370 0.505190 -0.628518
O10   O     O_R   0.355440 0.513440 0.575450 -0.621188
O11   O     O_R   0.644560 0.486560 0.424550 -0.619520
O12   O     O_R   0.644590 0.486500 0.567040 -0.628884
O13   O     O_R   0.355410 0.513500 0.432960 -0.630833
O14   O     O_2   0.623739 0.776328 0.794828 -0.538727
Zn1   Zn    Zn3+2 0.306940 0.517990 0.505620 0.949111
Zn2   Zn    Zn3+2 0.693060 0.482010 0.494380 0.950340

loop_
_geom_bond_atom_site_label_1
_geom_bond_atom_site_label_2
_ccdc_geom_bond_type
C33   H16   S    
C40   H18   S    
C27   C29   A    
C41   H19   S    
H15   N4    S    
C33   C36   A    
C39   C41   A    
C23   C42   A    
C31   H1    S    
C1    O8    A    
C28   C37   A    
C35   C37   A    
C5    C11   A    
C20   H9    S    
C30   H20   S    
C11   C14   A    
H14   N3    S    
C22   C38   A    
C17   O13   A    
C24   C39   A    
C35   H17   S    
C25   N1    A    
C3    C29   A    
C26   N2    A    
C18   C40   A    
C22   N1    A    
C31   C33   A    
C36   N1    S    
H13   O6    S    
C2    C34   A    
C24   N2    A    
C12   O7    A    
C19   O6    S    
C15   H6    S    
O8    Zn2   S    
C32   H12   S    
C6    C7    A    
C28   H3    S    
C34   C39   A    
C32   C35   A    
O13   Zn1   S    
O9    Zn1   S    
C12   C21   S    
C8    C18   A    
C25   C42   A    
C5    C9    A    
C11   H7    S    
O12   Zn2   S    
C17   O11   A    
C2    C26   A    
C3    C31   A    
C4    C32   A    
C4    C17   S    
C27   H4    S    
O1    Zn1   S    
C7    C19   A    
C13   C15   A    
C29   H2    S    
C9    C34   A    
C10   C23   A    
H11   O5    S    
O7    Zn2   S    
C37   N2    S    
C18   O5    S    
C7    C9    A    
C1    C20   S    
C16   O10   A    
C15   C42   A    
O10   Zn1   S    
C6    C10   A    
C5    C8    A    
C14   H5    S    
C27   C36   A    
C23   C38   A    
C28   C30   A    
C22   O14   S    
N4    Zn1   S    
C38   C40   A    
N3    Zn2   S    
O11   Zn2   S    
C1    O1    A    
C16   O12   A    
C2    C14   A    
C24   O2    S    
C13   H8    S    
C20   C21   D    
C8    C10   A    
N3    N4    D    
C12   O9    A    
C26   O3    S    
C25   O4    S    
C21   H10   S    
C4    C30   A    
C3    C16   S    
C19   C41   A    
C6    C13   A    
