data_str_m9_o11_o16_f0_sra.sym.81
_audit_creation_date              2012-12-11T14:17:49-0500
_audit_creation_method            fapswitch 2.2
_symmetry_space_group_name_H-M    P1
_symmetry_Int_Tables_number       1
_space_group_crystal_system       triclinic
_cell_length_a                    6.936842
_cell_length_b                    13.699714
_cell_length_c                    20.45653
_cell_angle_alpha                 101.939404
_cell_angle_beta                  90.327868
_cell_angle_gamma                 90.760543
_cell_volume                      1901.74597581

loop_
_atom_site_label
_atom_site_type_symbol
_atom_type_description
_atom_site_fract_x
_atom_site_fract_y
_atom_site_fract_z
_atom_type_partial_charge
O1    O     O_R   0.506860 0.599390 0.449240 -0.543624
O2    O     O_R   0.180220 0.594600 0.586780 -0.552292
O3    O     O_R   0.004500 0.400610 0.550760 -0.536019
C1    C     C_R   0.349656 0.615456 0.613656 0.755688
O4    O     O_R   0.177490 0.611290 0.451970 -0.551268
O5    O     O_R   0.001750 0.417420 0.414990 -0.545608
C2    C     C_R   0.346625 0.637304 0.434815 0.680865
O6    O     O_R   0.509610 0.582580 0.585010 -0.543795
O7    O     O_3   0.337420 0.436370 0.488020 -0.369760
V1    V     V_3+5 0.064680 0.511800 0.502220 1.387158
O8    O     O_R   0.671710 0.405400 0.413220 -0.543359
C3    C     C_R   0.838780 0.387348 0.385418 0.667161
O9    O     O_R   0.674440 0.388710 0.548030 -0.543650
C4    C     C_R   0.842417 0.364236 0.566395 0.732714
V2    V     V_3+5 0.564010 0.488200 0.497780 1.397698
O10   O     O_3   0.841140 0.563630 0.511980 -0.387541
C5    C     C_R   0.876156 0.112456 0.612599 -0.011103
H1    H     H_    0.844059 0.988084 0.696735 0.140280
C6    C     C_R   0.849101 0.285772 0.605257 -0.096758
C7    C     C_R   0.863070 0.318046 0.929251 -0.032480
C8    C     C_R   0.852567 0.392014 0.891970 -0.141026
C9    C     C_R   0.847284 0.367726 0.822618 -0.159680
C10   C     C_R   0.850180 0.267333 0.787301 0.033567
C11   C     C_R   0.852860 0.190126 0.825092 0.021863
C12   C     C_R   0.852242 0.241688 0.715679 0.064320
C13   C     C_R   0.860932 0.140019 0.683161 0.041563
C14   C     C_R   0.850717 0.066051 0.721112 -0.281082
C15   C     C_R   0.846651 0.088778 0.790575 0.308780
C16   C     C_R   0.848174 0.313625 0.675039 -0.221696
C17   C     C_R   0.860634 0.184967 0.573350 -0.054105
C18   C     C_R   0.861625 0.216821 0.896415 -0.132425
H2    H     H_    0.841404 0.392435 0.695681 0.099703
H3    H     H_    0.842804 0.430225 0.798357 0.114294
H4    H     H_    0.852388 0.469950 0.916943 0.127970
C19   C     C_2   0.996118 0.278708 0.288756 -0.158056
C20   C     C_2   0.839204 0.330351 0.314632 0.186549
H5    H     H_    0.124763 0.281620 0.319666 0.101960
C21   C     C_2   0.010961 0.219359 0.218790 -0.127353
C22   C     C_2   0.859387 0.174175 0.182726 -0.242568
H6    H     H_    0.154514 0.209131 0.197813 0.136297
H7    H     H_    0.717521 0.177279 0.204821 0.179302
C23   C     C_2   0.198729 0.777863 0.785872 0.377501
C24   C     C_2   0.359608 0.820259 0.818046 -0.298193
H8    H     H_    0.498053 0.809522 0.793600 0.084008
C25   C     C_2   0.202755 0.716414 0.715630 -0.232291
C26   C     C_2   0.362019 0.680366 0.681479 -0.351901
H9    H     H_    0.063426 0.697719 0.691467 0.139996
H10   H     H_    0.504364 0.694819 0.703662 0.125671
C27   C     C_R   0.389889 0.886707 0.387879 -0.118284
H11   H     H_    0.386133 0.835883 0.479630 0.099416
H12   H     H_    0.408934 0.011419 0.307478 0.108477
H13   H     H_    0.406421 0.964088 0.413289 0.113332
C28   C     C_R   0.357050 0.713906 0.394813 -0.033308
C29   C     C_R   0.337569 0.686837 0.072326 -0.195632
C30   C     C_R   0.326531 0.611549 0.108089 -0.102185
C31   C     C_R   0.333219 0.634186 0.177520 -0.141523
C32   C     C_R   0.352394 0.734157 0.213525 0.022139
C33   C     C_R   0.364531 0.812275 0.176623 0.034107
C34   C     C_R   0.360124 0.758629 0.284896 0.067634
C35   C     C_R   0.381182 0.860003 0.317911 0.103375
C36   C     C_R   0.393400 0.934707 0.281393 -0.297457
C37   C     C_R   0.384656 0.913177 0.211700 0.305275
C38   C     C_R   0.347988 0.686102 0.325101 -0.196399
C39   C     C_R   0.377765 0.814003 0.425927 -0.172119
C40   C     C_R   0.356152 0.786419 0.105461 -0.074501
H14   H     H_    0.331803 0.607500 0.304289 0.087661
H15   H     H_    0.331681 0.667311 0.018214 0.101623
H16   H     H_    0.323506 0.571181 0.201260 0.098730
H17   H     H_    0.312971 0.534703 0.081654 0.120900
O11   O     O_R   0.203230 0.917310 0.915020 -0.500136
O12   O     O_R   0.535500 0.888690 0.048040 -0.541365
O13   O     O_R   0.711080 0.082610 0.085000 -0.537685
C41   C     C_R   0.366094 0.861118 0.063846 0.782069
O14   O     O_R   0.532630 0.905370 0.913230 -0.543239
O15   O     O_R   0.708190 0.099410 0.949230 -0.531590
C42   C     C_R   0.363391 0.884404 0.886346 0.773072
O16   O     O_R   0.206120 0.900510 0.050790 -0.538308
O17   O     O_3   0.375360 0.063570 0.011990 -0.383086
V3    V     V_3+5 0.648170 0.988200 0.997780 1.515426
O18   O     O_R   0.038240 0.111390 0.951940 -0.546808
C43   C     C_R   0.869534 0.140362 0.937291 0.810486
O19   O     O_R   0.041120 0.094710 0.086750 -0.540158
C44   C     C_R   0.873155 0.113759 0.114031 0.727855
V4    V     V_3+5 0.148810 0.011930 0.002180 1.518170
O20   O     O_3   0.871750 0.936430 0.988010 -0.361610
C45   C     C_R   0.848023 0.155578 0.499424 0.076391
C46   C     C_R   0.674803 0.168976 0.466720 -0.131886
C47   C     C_R   0.660947 0.142575 0.397223 -0.140984
C48   C     C_R   0.817549 0.099462 0.359943 -0.086522
C49   C     C_R   0.990279 0.085692 0.392124 -0.121711
C50   C     C_R   0.006461 0.114183 0.461651 -0.108888
H18   H     H_    0.550730 0.200224 0.495071 0.116560
H19   H     H_    0.528809 0.156111 0.372467 0.105598
H20   H     H_    0.805796 0.077824 0.306097 0.123360
H21   H     H_    0.111776 0.053526 0.363130 0.112154
H22   H     H_    0.141573 0.103842 0.485971 0.101282
O21   O     O_3   0.681195 0.334520 0.273706 -0.662334
H23   H     H_    0.587019 0.382316 0.297841 0.279962
O22   O     O_3   0.024522 0.792179 0.818827 -0.631615
H24   H     H_    0.921632 0.755592 0.789481 0.265270
O23   O     O_3   0.395730 0.990550 0.177764 -0.648635
H25   H     H_    0.408744 0.055383 0.209853 0.272292
C51   C     C_R   0.920271 0.008209 0.581232 0.100204
C52   C     C_R   0.100116 0.970248 0.594579 -0.138627
C53   C     C_R   0.130614 0.867923 0.578999 -0.157162
C54   C     C_R   0.984567 0.803787 0.547956 -0.098551
C55   C     C_R   0.808559 0.841150 0.531711 -0.120158
C56   C     C_R   0.775204 0.943548 0.548631 -0.124611
H26   H     H_    0.212028 0.019442 0.620652 0.116577
H27   H     H_    0.266118 0.838195 0.591973 0.107304
H28   H     H_    0.006783 0.725054 0.537602 0.173370
H29   H     H_    0.696728 0.790034 0.508185 0.118985
H30   H     H_    0.634864 0.971828 0.539254 0.104493
C57   C     C_R   0.878022 0.349039 0.002865 0.060400
C58   C     C_R   0.053105 0.339578 0.035665 -0.136417
C59   C     C_R   0.069283 0.372350 0.104913 -0.153671
C60   C     C_R   0.911193 0.414776 0.141750 -0.045329
C61   C     C_R   0.736124 0.423727 0.109485 -0.094887
C62   C     C_R   0.719516 0.391485 0.040163 -0.144530
H31   H     H_    0.177344 0.308020 0.007541 0.112466
H32   H     H_    0.204779 0.365465 0.129971 0.107593
H33   H     H_    0.924366 0.440582 0.195300 0.129080
H34   H     H_    0.613636 0.456000 0.138189 0.110810
H35   H     H_    0.583648 0.399532 0.015581 0.105552
O24   O     O_3   0.836466 0.011669 0.824762 -0.632518
H36   H     H_    0.823876 0.946551 0.793032 0.297704

loop_
_geom_bond_atom_site_label_1
_geom_bond_atom_site_label_2
_ccdc_geom_bond_type
C33   C37   A    
C21   H6    S    
C53   H27   S    
O23   H25   S    
H11   C39   S    
C55   H29   S    
C19   C20   D    
H12   C36   S    
O18   V4    S    
O12   V3    S    
C57   C58   A    
C32   C33   A    
C49   H21   S    
C22   H7    S    
C29   C40   A    
C1    C26   S    
C62   H35   S    
C31   C32   A    
C13   C14   A    
C27   C35   A    
O14   C42   A    
C5    C13   A    
C19   H5    S    
C16   H2    S    
C45   C50   A    
O5    C3    A    
C52   H26   S    
C28   C39   A    
C32   C34   A    
C54   C55   A    
V2    O10   S    
C40   C41   S    
C59   C60   A    
C48   H20   S    
C61   C62   A    
C50   H22   S    
C47   H19   S    
O8    V2    S    
C10   C11   A    
C20   O21   S    
O1    V2    S    
C3    C20   S    
O11   V4    S    
O7    V1    S    
C57   C62   A    
C1    O6    A    
C37   O23   S    
C38   H14   S    
C34   C35   A    
C27   C39   A    
O9    C4    A    
C5    C17   A    
C52   C53   A    
O21   H23   S    
C54   H28   S    
C25   H9    S    
C12   C16   A    
C26   H10   S    
C59   H32   S    
C19   C21   S    
V4    O20   S    
O12   C41   A    
O17   V3    S    
O15   C43   A    
C29   H15   S    
O16   V4    S    
C12   C13   A    
C31   H16   S    
C23   O22   S    
C35   C36   A    
C23   C25   S    
C56   H30   S    
O2    C1    A    
C60   H33   S    
O17   V4    S    
C33   C40   A    
O22   H24   S    
C55   C56   A    
C27   H13   S    
C30   C31   A    
C47   C48   A    
C30   H17   S    
O3    C4    A    
O19   C44   A    
O6    V2    S    
O19   V4    S    
O14   V3    S    
O9    V2    S    
C24   H8    S    
O11   C42   A    
O24   H36   S    
C17   C45   S    
C23   C24   D    
C2    C28   S    
C6    C16   A    
V3    O20   S    
C46   H18   S    
C15   O24   S    
C45   C46   A    
O4    C2    A    
C24   C42   S    
C9    H3    S    
C29   C30   A    
O1    C2    A    
C4    C6    S    
H1    C14   S    
C11   C15   A    
O18   C43   A    
O5    V1    S    
O8    C3    A    
C8    H4    S    
O13   V3    S    
C53   C54   A    
C34   C38   A    
C18   C43   S    
O7    V2    S    
C11   C18   A    
C22   C44   S    
O4    V1    S    
O3    V1    S    
V1    O10   S    
C60   C61   A    
C7    C57   S    
C28   C38   A    
C49   C50   A    
C21   C22   D    
C61   H34   S    
C10   C12   A    
C5    C51   S    
C36   C37   A    
O13   C44   A    
C25   C26   D    
C7    C8    A    
C46   C47   A    
C58   H31   S    
C51   C52   A    
C41   O16   A    
C9    C10   A    
C51   C56   A    
C48   C49   A    
C8    C9    A    
C6    C17   A    
O15   V3    S    
C58   C59   A    
C14   C15   A    
C7    C18   A    
O2    V1    S    
