data_str_m2_o10_o28_f0_pcu.sym.11
_audit_creation_date              2012-10-26T20:18:09-0400
_audit_creation_method            fapswitch 2.2
_symmetry_space_group_name_H-M    P1
_symmetry_Int_Tables_number       1
_space_group_crystal_system       triclinic
_cell_length_a                    23.49677
_cell_length_b                    8.672864
_cell_length_c                    7.431477
_cell_angle_alpha                 103.050872
_cell_angle_beta                  94.08866
_cell_angle_gamma                 92.227574
_cell_volume                      1469.18944693

loop_
_atom_site_label
_atom_site_type_symbol
_atom_type_description
_atom_site_fract_x
_atom_site_fract_y
_atom_site_fract_z
_atom_type_partial_charge
C1    C     C_R   0.498283 0.199611 0.453143 0.555121
C2    C     C_R   0.706644 0.513432 0.656845 -0.132896
C3    C     C_R   0.234240 0.487035 0.347024 -0.047384
C4    C     C_R   0.765760 0.512964 0.652976 -0.047384
C5    C     C_R   0.209442 0.501908 0.515296 0.241568
C6    C     C_R   0.790558 0.498091 0.484704 0.241569
C7    C     C_2   0.497457 0.031670 0.426729 -0.146782
C8    C     C_2   0.502543 0.968330 0.573271 -0.146782
C9    C     C_R   0.390964 0.500057 0.502661 0.553659
C10   C     C_R   0.609036 0.499943 0.497338 0.553659
C11   C     C_R   0.883065 0.636794 0.554805 0.418911
C12   C     C_R   0.501716 0.800388 0.546857 0.555121
C13   C     C_R   0.116935 0.363205 0.445195 0.418911
C14   C     C_R   0.876421 0.359704 0.414260 0.421789
C15   C     C_R   0.123578 0.640296 0.585740 0.421788
C16   C     C_R   0.936575 0.355292 0.418026 0.036461
C17   C     C_R   0.063425 0.644707 0.581974 0.036461
C18   C     C_R   0.969799 0.498583 0.495186 -0.056078
C19   C     C_R   0.030201 0.501416 0.504815 -0.056078
C20   C     C_R   0.942733 0.639544 0.563185 0.013785
C21   C     C_R   0.057267 0.360455 0.436815 0.013785
C22   C     C_R   0.965029 0.214748 0.350039 0.106981
C23   C     C_R   0.244075 0.516629 0.680285 -0.045458
C24   C     C_R   0.034971 0.785251 0.649961 0.106981
C25   C     C_R   0.024522 0.219506 0.360612 -0.079741
C26   C     C_R   0.975478 0.780493 0.639388 -0.079741
C27   C     C_R   0.755924 0.483370 0.319714 -0.045458
C28   C     C_R   0.303356 0.516046 0.676836 -0.138618
C29   C     C_R   0.696644 0.483953 0.323164 -0.138618
C30   C     C_R   0.328499 0.500915 0.508006 0.006308
C31   C     C_R   0.671501 0.499085 0.491994 0.006309
C32   C     C_R   0.293356 0.486568 0.343155 -0.132896
Cu1   Cu    Cu3+1 0.506340 0.517380 0.684380 0.966296
Cu2   Cu    Cu3+1 0.493660 0.482620 0.315620 0.966295
H1    H     H_    0.045257 0.110937 0.307884 0.199305
H2    H     H_    0.792425 0.523986 0.780774 0.137114
H3    H     H_    0.492665 0.959847 0.285597 0.136343
H4    H     H_    0.507335 0.040153 0.714403 0.136343
H5    H     H_    0.454940 0.379441 0.948676 0.239934
H6    H     H_    0.545059 0.620559 0.051324 0.239934
H7    H     H_    0.954743 0.889062 0.692116 0.199305
H8    H     H_    0.225003 0.527849 0.810742 0.133455
H9    H     H_    0.774997 0.472150 0.189257 0.133455
H10   H     H_    0.329383 0.527206 0.805893 0.130731
H11   H     H_    0.670617 0.472793 0.194106 0.130730
H12   H     H_    0.311438 0.474955 0.211018 0.132354
H13   H     H_    0.688562 0.525045 0.788983 0.132354
H14   H     H_    0.207575 0.476013 0.219226 0.137114
I1    I     I_    0.925764 0.985435 0.226141 -0.229919
I2    I     I_    0.074236 0.014564 0.773859 -0.229919
N1    N     N_R   0.851469 0.498503 0.482449 -0.406720
N2    N     N_R   0.148531 0.501496 0.517551 -0.406720
N3    N     N_2   0.484110 0.456420 0.038520 -0.258004
N4    N     N_2   0.515890 0.543580 0.961480 -0.258004
O1    O     O_R   0.504120 0.286130 0.619770 -0.504559
O2    O     O_2   0.143418 0.228596 0.381429 -0.450403
O3    O     O_2   0.842670 0.227446 0.345991 -0.430105
O4    O     O_2   0.157330 0.772554 0.654009 -0.430105
O5    O     O_R   0.495880 0.713870 0.380230 -0.504559
O6    O     O_R   0.493410 0.256770 0.308360 -0.494100
O7    O     O_R   0.506590 0.743230 0.691640 -0.494099
O8    O     O_R   0.423230 0.514630 0.655730 -0.507209
O9    O     O_R   0.576770 0.485370 0.344270 -0.507209
O10   O     O_R   0.412530 0.485280 0.344320 -0.502141
O11   O     O_R   0.587470 0.514720 0.655680 -0.502141
O12   O     O_2   0.856582 0.771404 0.618571 -0.450402

loop_
_geom_bond_atom_site_label_1
_geom_bond_atom_site_label_2
_ccdc_geom_bond_type
Cu1   O1    S    
C2    C4    A    
C4    H2    S    
C5    N2    S    
N3    N4    D    
C2    H13   S    
C27   C29   A    
C13   N2    A    
H6    N4    S    
C14   N1    A    
C5    C23   A    
C11   O12   S    
C8    C12   S    
C13   O2    S    
C10   O9    A    
Cu2   O10   S    
Cu1   Cu2   S    
C1    O1    A    
Cu1   O11   S    
C7    C8    D    
C29   C31   A    
C23   C28   A    
C30   C32   A    
C12   O7    A    
C12   O5    A    
C20   C26   A    
H5    N3    S    
C23   H8    S    
C8    H4    S    
C9    C30   S    
C25   H1    S    
C22   I1    S    
C10   C31   S    
Cu1   O7    S    
Cu2   O9    S    
C17   C19   A    
C24   C26   A    
C18   C19   A    
C18   C20   A    
C24   I2    S    
C3    C32   A    
C6    N1    S    
C15   O4    S    
C14   C16   A    
C11   C20   A    
C1    O6    A    
C17   C24   A    
C11   N1    A    
Cu1   O8    S    
C13   C21   A    
C9    O8    A    
C9    O10   A    
C27   H9    S    
C3    H14   S    
Cu2   N3    S    
C16   C18   A    
C4    C6    A    
C10   O11   A    
Cu1   N4    S    
C15   C17   A    
C14   O3    S    
C21   C25   A    
C2    C31   A    
C7    H3    S    
C16   C22   A    
C19   C21   A    
C15   N2    A    
C1    C7    S    
Cu2   O5    S    
C32   H12   S    
Cu2   O6    S    
C28   H10   S    
C6    C27   A    
C26   H7    S    
C29   H11   S    
C28   C30   A    
C3    C5    A    
C22   C25   A    
