data_str_m3_o10_o29_f0_pcu.sym.132
_audit_creation_date              2012-12-10T16:59:13-0500
_audit_creation_method            fapswitch 2.2
_symmetry_space_group_name_H-M    P1
_symmetry_Int_Tables_number       1
_space_group_crystal_system       triclinic
_cell_length_a                    7.791015
_cell_length_b                    8.546094
_cell_length_c                    27.678132
_cell_angle_alpha                 91.79103
_cell_angle_beta                  86.620206
_cell_angle_gamma                 92.536888
_cell_volume                      1837.11938417

loop_
_atom_site_label
_atom_site_type_symbol
_atom_type_description
_atom_site_fract_x
_atom_site_fract_y
_atom_site_fract_z
_atom_type_partial_charge
C1    C     C_R   0.543793 0.794090 0.498513 0.918049
C2    C     C_R   0.510335 0.649013 0.127409 -0.018039
C3    C     C_R   0.511321 0.485709 0.646403 -0.197694
C4    C     C_R   0.488666 0.514196 0.353592 -0.197747
C5    C     C_R   0.538761 0.641114 0.025739 0.117623
C6    C     C_R   0.461437 0.358538 0.974247 0.117617
C7    C     C_R   0.428032 0.366335 0.025122 -0.093154
C8    C     C_R   0.572178 0.633312 0.974865 -0.093161
C9    C     C_R   0.478903 0.504725 0.050769 0.054063
C10   C     C_R   0.521293 0.494930 0.949218 0.054059
C11   C     C_R   0.549794 0.784166 0.052308 -0.089912
C12   C     C_R   0.456207 0.205910 0.501487 0.918039
C13   C     C_R   0.450387 0.215494 0.947675 -0.089911
C14   C     C_R   0.543871 0.787281 0.102377 -0.042508
C15   C     C_R   0.456267 0.212396 0.897605 -0.042515
C16   C     C_R   0.503098 0.495125 0.593837 0.934562
C17   C     C_R   0.496898 0.504859 0.406161 0.934546
C18   C     C_R   0.665343 0.753688 0.948692 0.263898
C19   C     C_R   0.334877 0.245955 0.051297 0.263895
C20   C     C_2   0.559663 0.953582 0.489465 0.116889
C21   C     C_2   0.440338 0.046418 0.510535 0.116896
C22   C     C_R   0.578632 0.621054 0.821646 0.626757
C23   C     C_R   0.533890 0.490828 0.898049 -0.107324
C24   C     C_R   0.421500 0.378642 0.178345 0.626835
C25   C     C_R   0.486212 0.350864 0.822355 0.626569
C26   C     C_R   0.513850 0.648848 0.177632 0.626563
C27   C     C_R   0.654753 0.415705 0.717956 0.396866
C28   C     C_R   0.345161 0.583935 0.282021 0.396868
C29   C     C_R   0.648616 0.413949 0.667516 0.325619
C30   C     C_R   0.351275 0.585769 0.332463 0.325682
C31   C     C_R   0.379480 0.550957 0.676187 -0.161656
C32   C     C_R   0.620601 0.449047 0.323819 -0.161598
C33   C     C_R   0.384667 0.548814 0.726110 -0.095242
C34   C     C_R   0.466277 0.508843 0.101938 -0.107323
C35   C     C_R   0.615425 0.451109 0.273895 -0.095251
C36   C     C_R   0.522156 0.482740 0.746934 0.117000
C37   C     C_R   0.477859 0.517007 0.253057 0.117019
C38   C     C_R   0.589955 0.625926 0.872374 -0.183203
C39   C     C_R   0.410216 0.373748 0.127615 -0.183202
C40   C     C_R   0.663245 0.755725 0.898035 0.379424
C41   C     C_R   0.336961 0.243931 0.101955 0.379424
C42   C     C_R   0.489788 0.350673 0.872576 -0.018045
Cl1   Cl    Cl    0.040220 0.329684 0.444312 -0.348038
Cl2   Cl    Cl    0.180084 0.118824 0.023703 -0.472947
Cl3   Cl    Cl    0.709404 0.007027 0.441082 -0.444932
Cl4   Cl    Cl    0.290598 0.992973 0.558918 -0.444896
Cl5   Cl    Cl    0.959779 0.670307 0.555691 -0.348051
Cl6   Cl    Cl    0.770081 0.916538 0.868179 -0.407791
Cl7   Cl    Cl    0.230131 0.083119 0.131812 -0.407777
Cl8   Cl    Cl    0.190090 0.685263 0.367500 -0.416156
Cl9   Cl    Cl    0.809639 0.314312 0.632457 -0.416124
Cl10  Cl    Cl    0.170261 0.662974 0.254567 -0.428761
Cl11  Cl    Cl    0.829572 0.336451 0.745389 -0.428578
Cl12  Cl    Cl    0.820153 0.880797 0.976287 -0.472929
H1    H     H_    0.273039 0.605629 0.660867 0.230835
H2    H     H_    0.727114 0.394516 0.339149 0.230891
H3    H     H_    0.282670 0.600141 0.748802 0.202120
H4    H     H_    0.717501 0.399868 0.251213 0.202153
H5    H     H_    0.563772 0.898823 0.121356 0.216413
H6    H     H_    0.436346 0.100862 0.878624 0.216409
H7    H     H_    0.559480 0.895722 0.034909 0.188767
H8    H     H_    0.440714 0.103932 0.965070 0.188771
N1    N     N_R   0.527392 0.485289 0.798320 -0.349948
N2    N     N_R   0.472677 0.514428 0.201669 -0.349946
N3    N     N_2   0.950320 0.457960 0.486880 0.150483
N4    N     N_2   0.049680 0.542040 0.513120 0.150459
O1    O     O_R   0.389250 0.738570 0.503220 -0.583282
O2    O     O_2   0.383942 0.249989 0.204546 -0.432988
O3    O     O_2   0.559564 0.781285 0.202436 -0.460851
O4    O     O_2   0.440432 0.218447 0.797550 -0.460864
O5    O     O_R   0.610750 0.261430 0.496780 -0.583252
O6    O     O_R   0.678390 0.711630 0.494810 -0.562722
O7    O     O_R   0.321610 0.288370 0.505190 -0.562736
O8    O     O_R   0.355440 0.513440 0.575450 -0.593120
O9    O     O_R   0.644560 0.486560 0.424550 -0.593122
O10   O     O_R   0.644590 0.486500 0.567040 -0.565379
O11   O     O_R   0.355410 0.513500 0.432960 -0.565370
O12   O     O_2   0.616214 0.749709 0.795447 -0.433009
Zn1   Zn    Zn3+2 0.306940 0.517990 0.505620 1.189489
Zn2   Zn    Zn3+2 0.693060 0.482010 0.494380 1.189505

loop_
_geom_bond_atom_site_label_1
_geom_bond_atom_site_label_2
_ccdc_geom_bond_type
C27   C29   A    
C15   H6    S    
C33   C36   A    
C39   C41   A    
N4    Zn1   S    
C23   C42   A    
C35   H4    S    
C16   O8    A    
C35   C37   A    
C5    C11   A    
C11   C14   A    
C22   C38   A    
C24   C39   A    
C40   Cl6   S    
C25   N1    A    
C3    C29   A    
C26   N2    A    
C18   C40   A    
C22   N1    A    
C13   H8    S    
C31   C33   A    
C36   N1    S    
O9    Zn2   S    
Cl5   N4    S    
C20   Cl3   S    
C2    C34   A    
C30   Cl8   S    
C24   N2    A    
N3    Zn2   S    
C12   O7    A    
C41   Cl7   S    
O5    Zn2   S    
O11   Zn1   S    
C1    O6    A    
C34   C39   A    
C32   C35   A    
O1    Zn1   S    
C22   O12   S    
C24   O2    S    
C12   C21   S    
C8    C18   A    
C5    C9    A    
C14   H5    S    
Cl1   N3    S    
C17   O11   A    
O7    Zn1   S    
C2    C26   A    
C3    C31   A    
C4    C32   A    
C4    C17   S    
C12   O5    A    
C7    C19   A    
O8    Zn1   S    
C13   C15   A    
C9    C34   A    
C10   C23   A    
C37   N2    S    
C19   Cl2   S    
C21   Cl4   S    
C29   Cl9   S    
C7    C9    A    
C1    C20   S    
C33   H3    S    
C16   O10   A    
O10   Zn2   S    
C15   C42   A    
C11   H7    S    
C25   C42   A    
C6    C10   A    
C5    C8    A    
C27   Cl11  S    
C6    C7    A    
C27   C36   A    
C23   C38   A    
C28   C30   A    
O6    Zn2   S    
C6    C13   A    
C38   C40   A    
C28   Cl10  S    
C28   C37   A    
C1    O1    A    
C2    C14   A    
C18   Cl12  S    
C20   C21   D    
C8    C10   A    
N3    N4    D    
C17   O9    A    
C26   O3    S    
C25   O4    S    
C31   H1    S    
C32   H2    S    
C4    C30   A    
C3    C16   S    
C19   C41   A    
