data_str_m3_o14_o18_f0_pcu.sym.75
_audit_creation_date              2012-12-10T17:44:37-0500
_audit_creation_method            fapswitch 2.2
_symmetry_space_group_name_H-M    P1
_symmetry_Int_Tables_number       1
_space_group_crystal_system       triclinic
_cell_length_a                    10.011739
_cell_length_b                    10.67086
_cell_length_c                    15.467906
_cell_angle_alpha                 94.997798
_cell_angle_beta                  68.885319
_cell_angle_gamma                 89.799841
_cell_volume                      1534.60694269

loop_
_atom_site_label
_atom_site_type_symbol
_atom_type_description
_atom_site_fract_x
_atom_site_fract_y
_atom_site_fract_z
_atom_type_partial_charge
C1    C     C_R   0.498570 0.739340 0.501779 0.865473
C2    C     C_R   0.742585 0.468770 0.028496 0.167250
C3    C     C_R   0.600612 0.436758 0.080065 0.088918
C4    C     C_R   0.410671 0.492018 0.674783 0.846020
C5    C     C_R   0.837120 0.502986 0.074247 -0.221193
C6    C     C_R   0.789182 0.512468 0.171193 -0.193440
C7    C     C_R   0.554005 0.451010 0.176918 -0.252450
C8    C     C_R   0.538165 0.835358 0.327899 -0.173486
C9    C     C_R   0.567364 0.880373 0.241927 -0.196542
C10   C     C_R   0.583247 0.007857 0.233648 -0.101075
C11   C     C_R   0.567038 0.092044 0.311456 0.066527
C12   C     C_R   0.437977 0.419503 0.899381 0.099231
C13   C     C_R   0.532532 0.048265 0.401799 0.043181
C14   C     C_R   0.523211 0.917330 0.407955 0.082416
C15   C     C_R   0.501142 0.870520 0.494185 -0.077451
C16   C     C_R   0.504175 0.260075 0.493060 0.832724
C17   C     C_R   0.483306 0.948411 0.574322 -0.239694
C18   C     C_R   0.486017 0.076034 0.570564 -0.183816
C19   C     C_R   0.509228 0.126183 0.486327 -0.085442
C20   C     C_R   0.779912 0.636889 0.650611 0.166368
C21   C     C_R   0.801982 0.665370 0.733819 -0.305042
C22   C     C_R   0.937604 0.660991 0.734950 -0.296812
C23   C     C_R   0.304736 0.366794 0.945485 0.129756
C24   C     C_R   0.052930 0.632076 0.652089 0.153057
C25   C     C_R   0.031516 0.565920 0.573576 0.066571
C26   C     C_R   0.887223 0.566715 0.573285 0.116396
C27   C     C_R   0.965960 0.433370 0.432924 -0.178630
C28   C     C_R   0.589959 0.500211 0.324485 0.810289
C29   C     C_R   0.108345 0.432119 0.433157 0.170905
C30   C     C_R   0.361120 0.457829 0.771249 -0.116379
C31   C     C_R   0.646048 0.489391 0.222717 -0.046076
C32   C     C_R   0.204011 0.353290 0.901935 -0.207569
C33   C     C_R   0.233347 0.393697 0.813498 0.077887
C34   C     C_R   0.544486 0.424062 0.939536 0.067551
C35   C     C_R   0.458825 0.472190 0.816477 -0.297474
C36   C     C_R   0.505502 0.401968 0.033814 0.070320
C37   C     C_R   0.372901 0.346738 0.078349 -0.233623
C38   C     C_R   0.275129 0.327145 0.033838 -0.235196
C39   C     C_R   0.688799 0.448464 0.888279 -0.231799
C40   C     C_R   0.786783 0.469085 0.932308 -0.231775
H1    H     H_    0.174809 0.283904 0.069583 0.147826
H2    H     H_    0.443835 0.437389 0.217949 0.164837
H3    H     H_    0.954608 0.703453 0.796231 0.160642
H4    H     H_    0.862641 0.540632 0.205715 0.161259
H5    H     H_    0.895501 0.490993 0.891767 0.161463
H6    H     H_    0.104173 0.307868 0.935358 0.153709
H7    H     H_    0.552616 0.525281 0.785894 0.165809
H8    H     H_    0.345526 0.313025 0.146047 0.141743
H9    H     H_    0.728654 0.448089 0.813494 0.174820
H10   H     H_    0.492732 0.269353 0.327487 0.217457
H11   H     H_    0.669844 0.252426 0.318180 0.189327
H12   H     H_    0.946736 0.525241 0.035228 0.144726
H13   H     H_    0.704550 0.802858 0.632590 0.173437
H14   H     H_    0.577538 0.714517 0.700254 0.148341
H15   H     H_    0.154261 0.794833 0.635539 0.174777
H16   H     H_    0.198412 0.703713 0.704971 0.154470
H17   H     H_    0.187425 0.261299 0.369374 0.169590
H18   H     H_    0.215413 0.377539 0.298721 0.144429
H19   H     H_    0.190903 0.307405 0.704770 0.211090
H20   H     H_    0.095716 0.444813 0.752799 0.206032
H21   H     H_    0.465089 0.910198 0.640158 0.130334
H22   H     H_    0.527122 0.735726 0.330883 0.144625
H23   H     H_    0.579217 0.815877 0.181341 0.154899
H24   H     H_    0.608532 0.042083 0.165823 0.149784
H25   H     H_    0.468999 0.136501 0.634074 0.144106
H26   H     H_    0.943103 0.378479 0.377991 0.141516
H27   H     H_    0.717528 0.711328 0.794141 0.165198
N1    N     N_R   0.856800 0.501200 0.500850 -0.108864
N2    N     N_R   0.142390 0.501280 0.500880 -0.101276
N3    N     N_3   0.590110 0.219971 0.294074 -0.477686
N4    N     N_3   0.669577 0.710746 0.639905 -0.371033
N5    N     N_3   0.177134 0.701655 0.643365 -0.362765
N6    N     N_3   0.216780 0.354897 0.362667 -0.417797
N7    N     N_3   0.135642 0.362009 0.767202 -0.465615
O1    O     O_R   0.385310 0.683220 0.500000 -0.594964
O2    O     O_R   0.614640 0.683250 0.500010 -0.585002
O3    O     O_R   0.319840 0.499980 0.632240 -0.611187
O4    O     O_R   0.549160 0.500000 0.632250 -0.593692
O5    O     O_R   0.385360 0.316750 0.499990 -0.606777
O6    O     O_R   0.614690 0.316780 0.500000 -0.607051
O7    O     O_R   0.450840 0.500000 0.367750 -0.602324
O8    O     O_R   0.680160 0.500020 0.367760 -0.618355
Zn1   Zn    Zn3+2 0.346880 0.499980 0.499990 0.956871
Zn2   Zn    Zn3+2 0.653120 0.500020 0.500010 0.955395

loop_
_geom_bond_atom_site_label_1
_geom_bond_atom_site_label_2
_ccdc_geom_bond_type
C27   C29   A    
O6    Zn2   S    
C35   H7    S    
O2    Zn2   S    
C11   N3    S    
C18   H25   S    
C12   C23   A    
C30   C35   A    
C36   C37   A    
C3    C7    A    
C5    C6    A    
C29   N6    S    
O3    Zn1   S    
C18   C19   A    
C7    H2    S    
H17   N6    S    
C27   N1    A    
C17   H21   S    
H14   N4    S    
C8    C9    A    
H16   N5    S    
C5    H12   S    
C1    C15   S    
H11   N3    S    
C9    C10   A    
H15   N5    S    
C6    C31   A    
C6    H4    S    
C13   C14   A    
C21   H27   S    
O7    Zn1   S    
C29   N2    A    
C40   H5    S    
C7    C31   A    
C13   C19   A    
C28   O8    A    
C34   C39   A    
C1    O1    A    
C24   C25   A    
C38   H1    S    
C39   C40   A    
C25   C26   A    
C12   C35   A    
N1    Zn2   S    
C4    O4    A    
C37   C38   A    
N2    Zn1   S    
O4    Zn2   S    
C22   H3    S    
C17   C18   A    
C20   N4    S    
C37   H8    S    
H19   N7    S    
C39   H9    S    
O8    Zn2   S    
C22   C24   A    
C2    C5    A    
C25   N2    A    
C12   C34   A    
H13   N4    S    
C24   N5    S    
C15   C17   A    
C8    C14   A    
C30   C33   A    
C28   O7    A    
C9    H23   S    
C1    O2    A    
C32   H6    S    
C28   C31   S    
C10   H24   S    
C23   C38   A    
C16   O5    A    
C26   N1    A    
C23   C32   A    
C2    C3    A    
H10   N3    S    
C4    O3    A    
C27   H26   S    
C32   C33   A    
O5    Zn1   S    
C11   C13   A    
O1    Zn1   S    
C20   C26   A    
C3    C36   A    
C16   C19   S    
H20   N7    S    
C34   C36   A    
C10   C11   A    
C2    C40   A    
C33   N7    S    
C20   C21   A    
C14   C15   A    
C16   O6    A    
C21   C22   A    
C4    C30   S    
H18   N6    S    
C8    H22   S    
