data_str_m9_o11_o18_f0_sra.sym.20
_audit_creation_date              2012-12-11T14:21:13-0500
_audit_creation_method            fapswitch 2.2
_symmetry_space_group_name_H-M    P1
_symmetry_Int_Tables_number       1
_space_group_crystal_system       triclinic
_cell_length_a                    22.020881
_cell_length_b                    7.209807
_cell_length_c                    14.913714
_cell_angle_alpha                 89.165421
_cell_angle_beta                  107.060377
_cell_angle_gamma                 90.74481
_cell_volume                      2263.26863327

loop_
_atom_site_label
_atom_site_type_symbol
_atom_type_description
_atom_site_fract_x
_atom_site_fract_y
_atom_site_fract_z
_atom_type_partial_charge
O1    O     O_R   0.584770 0.505770 0.002090 -0.523702
O2    O     O_R   0.415230 0.005770 0.997910 -0.533456
O3    O     O_R   0.467060 0.173340 0.861950 -0.536402
O4    O     O_R   0.532940 0.673340 0.138050 -0.532428
C1    C     C_R   0.454985 0.345385 0.825975 0.681770
C2    C     C_R   0.545049 0.843264 0.174054 0.685692
O5    O     O_R   0.587510 0.175890 0.993210 -0.553624
O6    O     O_R   0.412490 0.675890 0.006790 -0.541647
O7    O     O_R   0.536540 0.008150 0.130100 -0.538225
O8    O     O_R   0.463460 0.508150 0.869900 -0.530691
C3    C     C_R   0.613459 0.344654 0.003118 0.661704
C4    C     C_R   0.387057 0.842106 0.000565 0.657992
O9    O     O_3   0.483140 0.340040 0.044760 -0.378343
O10   O     O_3   0.516860 0.840040 0.955240 -0.376931
V1    V     V_3+5 0.503130 0.064190 0.991700 1.467731
V2    V     V_3+5 0.496870 0.564190 0.008300 1.495876
C5    C     C_2   0.220823 0.769241 0.031822 -0.137604
C6    C     C_2   0.785423 0.252964 0.006655 -0.135944
C7    C     C_2   0.179508 0.903737 0.991141 0.308667
C8    C     C_2   0.816443 0.390820 0.976511 0.281853
H1    H     H_    0.204592 0.650327 0.064362 0.118089
H2    H     H_    0.811411 0.141969 0.050982 0.100750
C9    C     C_2   0.290619 0.791435 0.048321 -0.151116
C10   C     C_2   0.715115 0.251189 0.981514 -0.163548
C11   C     C_2   0.317735 0.838349 0.980830 0.312437
C12   C     C_2   0.683211 0.353669 0.026933 0.258315
H3    H     H_    0.320952 0.762705 0.118858 0.062582
H4    H     H_    0.688825 0.169254 0.922053 0.086150
C13   C     C_R   0.926297 0.886215 0.723901 -0.111073
C14   C     C_R   0.072225 0.374064 0.276658 -0.118211
C15   C     C_R   0.573782 0.846134 0.275516 -0.027591
C16   C     C_R   0.426565 0.359138 0.724421 -0.027131
C17   C     C_R   0.937336 0.840966 0.569361 -0.159722
C18   C     C_R   0.069425 0.215914 0.419337 -0.176896
C19   C     C_R   0.964538 0.854168 0.665916 -0.252937
C20   C     C_R   0.040274 0.263352 0.326205 -0.242424
C21   C     C_R   0.860171 0.901798 0.685494 0.332273
C22   C     C_R   0.134109 0.439031 0.321197 0.319404
C23   C     C_R   0.831110 0.860884 0.589141 -0.018770
C24   C     C_R   0.168391 0.364316 0.410955 -0.033548
C25   C     C_R   0.871105 0.845298 0.530482 0.081886
C26   C     C_R   0.133259 0.262709 0.461641 0.090903
C27   C     C_R   0.764040 0.840014 0.548744 0.068301
C28   C     C_R   0.235792 0.382449 0.451396 0.056484
C29   C     C_R   0.737454 0.842950 0.449188 0.045605
C30   C     C_R   0.264442 0.328350 0.547053 0.060609
C31   C     C_R   0.779288 0.840306 0.393211 -0.151139
C32   C     C_R   0.226196 0.239333 0.596171 -0.169989
C33   C     C_R   0.844726 0.835052 0.433505 -0.164299
C34   C     C_R   0.162305 0.203821 0.553432 -0.178074
C35   C     C_R   0.723347 0.802566 0.604506 -0.157783
C36   C     C_R   0.276081 0.438038 0.397474 -0.167294
C37   C     C_R   0.657999 0.791381 0.565443 -0.239635
C38   C     C_R   0.341122 0.458962 0.437594 -0.224973
C39   C     C_R   0.630744 0.813251 0.469092 0.147508
C40   C     C_R   0.368845 0.423539 0.532821 0.144942
C41   C     C_R   0.669962 0.839645 0.409326 0.078194
C42   C     C_R   0.331028 0.357607 0.589177 0.078027
C43   C     C_R   0.564415 0.802810 0.431657 -0.156222
C44   C     C_R   0.434413 0.452696 0.572091 -0.155888
C45   C     C_R   0.536180 0.816941 0.335261 -0.179181
C46   C     C_R   0.462983 0.421839 0.667472 -0.176716
C47   C     C_R   0.639855 0.859871 0.311948 -0.175897
C48   C     C_R   0.361351 0.327008 0.685940 -0.176322
H5    H     H_    0.875026 0.825645 0.388111 0.127348
H6    H     H_    0.135421 0.127918 0.592602 0.124384
H7    H     H_    0.666246 0.884939 0.262366 0.122964
H8    H     H_    0.335301 0.287152 0.734239 0.114413
H9    H     H_    0.485058 0.803433 0.307109 0.100602
H10   H     H_    0.513330 0.449546 0.697220 0.103786
H11   H     H_    0.628567 0.763684 0.611123 0.127749
H12   H     H_    0.370047 0.503204 0.393437 0.124708
H13   H     H_    0.968069 0.824280 0.525090 0.122733
H14   H     H_    0.042950 0.134117 0.456943 0.125406
H15   H     H_    0.015605 0.843814 0.695303 0.121912
H16   H     H_    0.992565 0.213052 0.292340 0.135296
H17   H     H_    0.762902 0.832353 0.317841 0.155759
H18   H     H_    0.245049 0.185138 0.666391 0.149083
H19   H     H_    0.741206 0.772145 0.678575 0.191849
H20   H     H_    0.259155 0.456894 0.322547 0.187262
H21   H     H_    0.534415 0.780375 0.476962 0.112012
H22   H     H_    0.463458 0.502373 0.529155 0.112012
O11   O     O_R   0.036450 0.233070 0.130130 -0.541729
O12   O     O_R   0.963550 0.733070 0.869870 -0.537571
O13   O     O_R   0.912470 0.560570 0.006790 -0.546002
O14   O     O_R   0.087530 0.060570 0.993210 -0.535149
C49   C     C_R   0.886474 0.392354 0.997552 0.622304
C50   C     C_R   0.112401 0.894634 0.994546 0.575641
O15   O     O_R   0.032920 0.562940 0.138050 -0.527791
O16   O     O_R   0.967080 0.062940 0.861950 -0.549648
O17   O     O_R   0.084790 0.730500 0.002090 -0.537925
O18   O     O_R   0.915210 0.230500 0.997910 -0.550082
C51   C     C_R   0.044903 0.392994 0.174670 0.755532
C52   C     C_R   0.954941 0.895086 0.825455 0.735660
O19   O     O_3   0.016820 0.396170 0.955260 -0.380965
O20   O     O_3   0.983180 0.896170 0.044740 -0.379855
V3    V     V_3+5 0.996880 0.672090 0.008300 1.437585
V4    V     V_3+5 0.003120 0.172090 0.991700 1.414599
O21   O     O_3   0.825261 0.967929 0.741521 -0.577101
C53   C     C_3   0.815699 0.160834 0.724847 0.084255
H23   H     H_    0.813716 0.206240 0.652092 0.118173
H24   H     H_    0.854830 0.238279 0.774999 0.148494
C54   C     C_3   0.753106 0.214227 0.740618 -0.690114
H25   H     H_    0.751967 0.165648 0.810885 0.230279
H26   H     H_    0.747683 0.367267 0.735592 0.212470
H27   H     H_    0.712783 0.149855 0.686729 0.213669
O22   O     O_3   0.159477 0.574513 0.275807 -0.571408
C55   C     C_3   0.155377 0.747275 0.317176 0.095228
H28   H     H_    0.183540 0.747616 0.392619 0.131656
H29   H     H_    0.105004 0.781091 0.310777 0.129796
C56   C     C_3   0.181990 0.898857 0.267117 -0.666905
H30   H     H_    0.180710 0.034301 0.300913 0.180509
H31   H     H_    0.231912 0.867684 0.270658 0.212704
H32   H     H_    0.153016 0.908554 0.192619 0.214208
O23   O     O_3   0.204298 0.071198 0.968157 -0.531393
C57   C     C_3   0.169852 0.135589 0.877446 0.136606
H33   H     H_    0.124846 0.202167 0.877736 0.124110
H34   H     H_    0.158906 0.021862 0.825181 0.134356
C58   C     C_3   0.209062 0.284282 0.845690 -0.622302
H35   H     H_    0.255290 0.227475 0.843983 0.245816
H36   H     H_    0.182829 0.335370 0.774414 0.168116
H37   H     H_    0.218141 0.402795 0.894804 0.235840
O24   O     O_3   0.781629 0.518825 0.911810 -0.564280
C59   C     C_3   0.781948 0.693254 0.953909 0.163544
H38   H     H_    0.815244 0.788511 0.932070 0.145024
H39   H     H_    0.796968 0.688233 0.032169 0.149930
C60   C     C_3   0.715343 0.773361 0.919952 -0.676562
H40   H     H_    0.678847 0.662042 0.910648 0.234639
H41   H     H_    0.708342 0.870286 0.972876 0.192875
H42   H     H_    0.708310 0.846688 0.851696 0.192113
Cl1   Cl    Cl    0.274605 0.830193 0.860931 -0.710595
Cl2   Cl    Cl    0.723434 0.488688 0.124770 -0.705995

loop_
_geom_bond_atom_site_label_1
_geom_bond_atom_site_label_2
_ccdc_geom_bond_type
C39   C43   A    
C15   C45   A    
C56   H30   S    
C18   C26   A    
O2    C4    A    
C2    O7    A    
C43   H21   S    
O19   V4    S    
O18   V4    S    
O24   C59   S    
C23   C25   A    
C57   H33   S    
O5    C3    A    
C19   H15   S    
C5    C9    S    
C33   H5    S    
C6    C10   S    
O12   V3    S    
C48   H8    S    
C10   C12   D    
C14   C51   S    
C13   C52   S    
O14   C50   A    
O23   C57   S    
O11   C51   A    
C8    C49   S    
C55   H28   S    
C46   H10   S    
C44   C46   A    
C29   C31   A    
C32   H18   S    
C22   O22   S    
C8    O24   S    
C20   H16   S    
C17   C19   A    
C44   H22   S    
C36   C38   A    
O11   V4    S    
O1    C3    A    
O22   C55   S    
C41   C47   A    
C9    H3    S    
C40   C42   A    
C56   H32   S    
C18   C20   A    
C1    C16   S    
C28   C36   A    
C32   C34   A    
C2    C15   S    
O6    V2    S    
C49   O18   A    
C30   C42   A    
C25   C33   A    
C28   C30   A    
O16   C52   A    
C38   C40   A    
C37   C39   A    
C42   C48   A    
C47   H7    S    
C43   C45   A    
O13   C49   A    
C15   C47   A    
C16   C48   A    
C56   H31   S    
C7    C50   S    
C23   C27   A    
C3    C12   S    
C53   C54   S    
C5    H1    S    
C40   C44   A    
O15   V3    S    
C35   C37   A    
O4    V2    S    
C60   H41   S    
C27   C29   A    
O21   C53   S    
C50   O17   A    
C7    O23   S    
O6    C4    A    
C29   C41   A    
O20   V3    S    
C53   H24   S    
C54   H26   S    
O1    V2    S    
O12   C52   A    
O17   V3    S    
O2    V1    S    
C34   H6    S    
C58   H36   S    
C26   C34   A    
C59   C60   S    
C17   H13   S    
C18   H14   S    
C39   C41   A    
O4    C2    A    
C31   H17   S    
C60   H40   S    
C37   H11   S    
C21   O21   S    
C12   Cl2   S    
C59   H39   S    
C58   H37   S    
C45   H9    S    
C6    H2    S    
C10   H4    S    
C24   C26   A    
O3    C1    A    
C58   H35   S    
C57   C58   S    
C31   C33   A    
C13   C19   A    
C55   C56   S    
C14   C20   A    
C4    C11   S    
C17   C25   A    
O7    V1    S    
C60   H42   S    
C16   C46   A    
C1    O8    A    
C21   C23   A    
O8    V2    S    
C22   C24   A    
C27   C35   A    
O5    V1    S    
C53   H23   S    
C5    C7    D    
C55   H29   S    
C54   H27   S    
C6    C8    D    
C9    C11   D    
O15   C51   A    
O14   V4    S    
C35   H19   S    
O13   V3    S    
C30   C32   A    
C24   C28   A    
C38   H12   S    
O9    V2    S    
C13   C21   A    
C54   H25   S    
O10   V1    S    
O3    V1    S    
C14   C22   A    
C36   H20   S    
O16   V4    S    
C59   H38   S    
C57   H34   S    
C11   Cl1   S    
