data_str_m2_o10_o16_f0_pcu.sym.38
_audit_creation_date              2012-10-26T19:58:19-0400
_audit_creation_method            fapswitch 2.2
_symmetry_space_group_name_H-M    P1
_symmetry_Int_Tables_number       1
_space_group_crystal_system       triclinic
_cell_length_a                    7.489835
_cell_length_b                    8.698346
_cell_length_c                    13.393449
_cell_angle_alpha                 94.900024
_cell_angle_beta                  77.481253
_cell_angle_gamma                 103.415784
_cell_volume                      828.015160947

loop_
_atom_site_label
_atom_site_type_symbol
_atom_type_description
_atom_site_fract_x
_atom_site_fract_y
_atom_site_fract_z
_atom_type_partial_charge
C1    C     C_R   0.545488 0.800118 0.503043 0.547150
C2    C     C_R   0.338742 0.495953 0.806634 -0.007639
C3    C     C_2   0.570747 0.968374 0.504341 -0.161266
C4    C     C_R   0.400167 0.498160 0.694340 0.534109
C5    C     C_2   0.429464 0.031653 0.495370 -0.159380
C6    C     C_R   0.454565 0.199897 0.496876 0.546036
C7    C     C_R   0.601048 0.511136 0.306153 0.537620
C8    C     C_R   0.877013 0.677449 0.055208 -0.128297
C9    C     C_R   0.661127 0.537139 0.196308 -0.008160
C10   C     C_R   0.154869 0.417592 0.847964 -0.135000
C11   C     C_R   0.100745 0.388116 0.951567 -0.137113
C12   C     C_R   0.418175 0.508639 0.975870 0.032285
C13   C     C_R   0.230661 0.429819 0.014750 -0.124203
C14   C     C_3   0.015759 0.393215 0.373404 -0.113685
C15   C     C_R   0.466713 0.554505 0.872606 0.026129
C16   C     C_R   0.558614 0.545209 0.036241 0.028224
C17   C     C_R   0.737916 0.639561 0.996167 0.047865
C18   C     C_R   0.774970 0.698614 0.898690 -0.143765
C19   C     C_R   0.640762 0.658906 0.838433 -0.125675
C20   C     C_R   0.526733 0.490399 0.135355 -0.133570
C21   C     C_R   0.838410 0.627331 0.155204 -0.146792
Cu1   Cu    Cu3+1 0.321300 0.483160 0.488710 0.936914
Cu2   Cu    Cu3+1 0.678700 0.516840 0.511290 0.933113
H1    H     H_    0.943758 0.664957 0.201542 0.122554
H2    H     H_    0.674238 0.714774 0.765680 0.139088
H3    H     H_    0.706611 0.040477 0.512710 0.132403
H4    H     H_    0.113521 0.314962 0.341613 0.100006
H5    H     H_    0.876308 0.315157 0.378636 0.142720
H6    H     H_    0.044011 0.489441 0.319012 0.115356
H7    H     H_    0.293630 0.959553 0.486957 0.134567
H8    H     H_    0.997282 0.596815 0.591115 0.225196
H9    H     H_    0.908502 0.776192 0.868776 0.107508
H10   H     H_    0.014035 0.749465 0.024898 0.116888
H11   H     H_    0.396369 0.413073 0.168272 0.105655
H12   H     H_    0.053713 0.374735 0.799579 0.138854
H13   H     H_    0.178201 0.402143 0.094096 0.092780
H14   H     H_    0.958004 0.328448 0.982761 0.127776
N1    N     N_2   0.947230 0.542220 0.528320 -0.234594
N2    N     N_2   0.052770 0.457780 0.471680 -0.155751
O1    O     O_R   0.383920 0.714220 0.492660 -0.501207
O2    O     O_R   0.685730 0.742660 0.511730 -0.500791
O3    O     O_R   0.275440 0.478800 0.636790 -0.509883
O4    O     O_R   0.577250 0.507240 0.655860 -0.503716
O5    O     O_R   0.314270 0.257340 0.488270 -0.497606
O6    O     O_R   0.616080 0.285780 0.507340 -0.505157
O7    O     O_R   0.422750 0.492760 0.344140 -0.514473
O8    O     O_R   0.724560 0.521200 0.363210 -0.523073

loop_
_geom_bond_atom_site_label_1
_geom_bond_atom_site_label_2
_ccdc_geom_bond_type
C2    C4    S    
H8    N1    S    
C10   H12   S    
Cu2   O6    S    
C4    O4    A    
C14   H4    S    
Cu2   N1    S    
C9    C20   A    
C8    C17   A    
Cu2   O2    S    
C12   C15   A    
C16   C20   A    
C20   H11   S    
C17   C18   A    
Cu1   O1    S    
C6    O5    A    
C15   C19   A    
C2    C15   A    
C11   C13   A    
C9    C21   A    
Cu1   O3    S    
C4    O3    A    
C5    C6    S    
Cu1   N2    S    
C1    O2    A    
Cu1   O7    S    
C8    C21   A    
C8    H10   S    
N1    N2    D    
C19   H2    S    
C18   H9    S    
C10   C11   A    
C6    O6    A    
C2    C10   A    
C7    O7    A    
C3    C5    D    
Cu2   O8    S    
C12   C13   A    
C13   H13   S    
C11   H14   S    
C5    H7    S    
C21   H1    S    
C7    C9    S    
Cu1   Cu2   S    
C18   C19   A    
C14   H6    S    
C1    O1    A    
C14   H5    S    
C14   N2    S    
Cu2   O4    S    
C3    H3    S    
Cu1   O5    S    
C12   C16   A    
C16   C17   A    
C1    C3    S    
C7    O8    A    
