data_str_m4_o4_o15_f0_acs.sym.94
_audit_creation_date              2012-12-11T15:45:08-0500
_audit_creation_method            fapswitch 2.2
_symmetry_space_group_name_H-M    P1
_symmetry_Int_Tables_number       1
_space_group_crystal_system       triclinic
_cell_length_a                    19.021007
_cell_length_b                    10.938846
_cell_length_c                    18.751983
_cell_angle_alpha                 89.7604
_cell_angle_beta                  90.210867
_cell_angle_gamma                 90.052773
_cell_volume                      3901.62295339

loop_
_atom_site_label
_atom_site_type_symbol
_atom_type_description
_atom_site_fract_x
_atom_site_fract_y
_atom_site_fract_z
_atom_type_partial_charge
C1    C     C_R   0.760748 0.534778 0.646785 0.535722
C2    C     C_R   0.239811 0.535152 0.353525 0.534244
C3    C     C_R   0.261437 0.032722 0.645914 0.535844
C4    C     C_R   0.740011 0.035552 0.353440 0.531283
C5    C     C_R   0.837766 0.115001 0.519849 -0.166913
C6    C     C_R   0.278472 0.000052 0.450311 -0.162599
C7    C     C_R   0.336926 0.615443 0.519833 -0.168260
C8    C     C_R   0.765979 0.537268 0.449475 -0.127727
C9    C     C_R   0.826381 0.088877 0.447801 -0.161664
C10   C     C_R   0.289034 0.983808 0.523302 -0.112644
C11   C     C_R   0.325533 0.589659 0.447856 -0.162943
C12   C     C_R   0.780950 0.508301 0.520249 -0.125440
C13   C     C_3   0.633880 0.159435 0.465513 -0.255855
C14   C     C_3   0.207608 0.284173 0.563957 -0.293602
C15   C     C_3   0.132124 0.645242 0.468104 -0.252595
C16   C     C_3   0.702758 0.799371 0.582087 -0.279567
C17   C     C_3   0.646878 0.184327 0.544095 -0.262212
C18   C     C_3   0.198761 0.304617 0.484457 -0.256160
C19   C     C_3   0.145176 0.672148 0.546380 -0.261594
C20   C     C_3   0.688284 0.832509 0.504886 -0.281120
C21   C     C_R   0.783056 0.161780 0.561523 -0.000362
C22   C     C_R   0.238634 0.099359 0.427102 0.033643
C23   C     C_R   0.281836 0.659330 0.561948 -0.000496
C24   C     C_R   0.723555 0.638431 0.433879 0.032665
C25   C     C_R   0.990182 0.329267 0.421061 -0.044472
C26   C     C_R   0.996352 0.347543 0.571002 -0.044829
C27   C     C_R   0.490457 0.830477 0.421272 -0.044524
C28   C     C_R   0.496924 0.847127 0.571306 -0.046157
C29   C     C_R   0.009348 0.105387 0.432900 -0.077969
C30   C     C_R   0.034629 0.132722 0.578165 -0.090890
C31   C     C_R   0.507022 0.606000 0.432260 -0.084057
C32   C     C_R   0.531969 0.630610 0.577745 -0.086179
C33   C     C_R   0.029064 0.004748 0.474153 -0.128874
C34   C     C_R   0.043245 0.019069 0.546334 -0.119630
C35   C     C_R   0.524919 0.504082 0.473247 -0.130564
C36   C     C_R   0.538804 0.516954 0.545576 -0.119874
C37   C     C_R   0.011317 0.234746 0.538037 -0.011380
C38   C     C_R   0.003677 0.223302 0.463240 0.008179
C39   C     C_R   0.510244 0.734034 0.537946 -0.008553
C40   C     C_R   0.502651 0.723692 0.463073 0.006803
C41   C     C_R   0.982400 0.453133 0.527283 0.007626
C42   C     C_R   0.968388 0.437285 0.454316 -0.000459
C43   C     C_R   0.484680 0.953698 0.527981 0.005172
C44   C     C_R   0.470391 0.939281 0.454980 0.000103
C45   C     C_R   0.791852 0.172826 0.638915 0.564936
C46   C     C_R   0.226925 0.124102 0.353369 0.539359
C47   C     C_R   0.291572 0.672205 0.638892 0.561448
C48   C     C_R   0.708557 0.670699 0.361194 0.563765
C49   C     C_R   0.981634 0.575261 0.553270 -0.074106
C50   C     C_R   0.938179 0.534074 0.414366 -0.084547
C51   C     C_R   0.485499 0.075381 0.554583 -0.074588
C52   C     C_R   0.441410 0.037938 0.415575 -0.080639
C53   C     C_R   0.954719 0.671385 0.512440 -0.133736
C54   C     C_R   0.930584 0.649819 0.443774 -0.118856
C55   C     C_R   0.459289 0.172922 0.514475 -0.131091
C56   C     C_R   0.434826 0.153290 0.445740 -0.118090
C57   C     C_R   0.748898 0.085186 0.077366 -0.004789
C58   C     C_R   0.244782 0.087475 0.921008 -0.000015
C59   C     C_R   0.248899 0.585187 0.077367 -0.004902
C60   C     C_R   0.744778 0.587485 0.921003 0.000160
C61   C     C_R   0.814732 0.082444 0.045170 0.063219
C62   C     C_R   0.185494 0.047291 0.958796 0.072564
C63   C     C_R   0.314732 0.582441 0.045172 0.063035
C64   C     C_R   0.685490 0.547298 0.958791 0.072886
C65   C     C_R   0.820540 0.090929 0.972281 0.026248
C66   C     C_R   0.183818 0.054733 0.031839 0.015733
C67   C     C_R   0.320542 0.590933 0.972283 0.026131
C68   C     C_R   0.683812 0.554748 0.031834 0.014624
C69   C     C_R   0.695469 0.118556 0.960474 -0.181910
C70   C     C_R   0.294073 0.161096 0.032687 -0.167391
C71   C     C_R   0.195470 0.618561 0.960476 -0.181760
C72   C     C_R   0.794065 0.661119 0.032680 -0.167780
C73   C     C_R   0.689565 0.112378 0.034764 -0.171850
C74   C     C_R   0.295863 0.155563 0.957886 -0.176556
C75   C     C_R   0.189566 0.612380 0.034766 -0.171791
C76   C     C_R   0.795856 0.655580 0.957880 -0.176410
C77   C     C_3   0.872101 0.989244 0.049751 -0.040028
C78   C     C_3   0.150229 0.924269 0.961107 -0.034619
C79   C     C_3   0.372095 0.489228 0.049749 -0.040022
C80   C     C_3   0.650228 0.424273 0.961105 -0.034609
C81   C     C_3   0.878650 0.999232 0.969504 -0.209801
C82   C     C_3   0.149240 0.933781 0.041560 -0.233588
C83   C     C_3   0.378648 0.499230 0.969503 -0.209807
C84   C     C_3   0.649237 0.433795 0.041559 -0.233345
C85   C     C_R   0.761141 0.101371 0.928503 0.004154
C86   C     C_R   0.239205 0.104523 0.070570 0.006408
C87   C     C_R   0.261143 0.601379 0.928505 0.004186
C88   C     C_R   0.739199 0.604543 0.070565 0.004686
C89   C     C_R   0.970807 0.347884 0.645838 0.521143
C90   C     C_R   0.026359 0.344032 0.351692 0.527779
C91   C     C_R   0.471005 0.847781 0.645980 0.518784
C92   C     C_R   0.526354 0.844230 0.351707 0.524302
C93   C     C_R   0.027732 0.342306 0.066189 0.024173
C94   C     C_R   0.010643 0.344199 0.918802 0.008852
C95   C     C_R   0.527729 0.842305 0.066189 0.023751
C96   C     C_R   0.510648 0.844197 0.918800 0.008661
C97   C     C_R   0.026943 0.452057 0.028891 0.020918
C98   C     C_R   0.019108 0.453723 0.956498 0.021589
C99   C     C_R   0.526949 0.952055 0.028890 0.020967
C100  C     C_R   0.519119 0.953721 0.956495 0.021580
C101  C     C_R   0.027000 0.234074 0.953278 -0.152877
C102  C     C_R   0.036266 0.233307 0.027418 -0.120152
C103  C     C_R   0.526998 0.734071 0.953278 -0.152935
C104  C     C_R   0.536260 0.733304 0.027419 -0.120318
C105  C     C_3   0.982539 0.562173 0.040392 -0.279534
C106  C     C_3   0.972666 0.564267 0.960589 -0.264239
C107  C     C_3   0.482552 0.062180 0.040387 -0.279712
C108  C     C_3   0.472688 0.064279 0.960583 -0.264136
C109  C     C_R   0.759865 0.533345 0.851844 0.540324
C110  C     C_R   0.239066 0.532258 0.147592 0.546188
C111  C     C_R   0.259867 0.033341 0.851847 0.541260
C112  C     C_R   0.739066 0.032257 0.147592 0.547911
C113  C     C_R   0.773134 0.126997 0.853737 0.552974
C114  C     C_R   0.226683 0.128658 0.145659 0.543288
C115  C     C_R   0.273136 0.627001 0.853738 0.553475
C116  C     C_R   0.726681 0.628663 0.145657 0.551786
C117  C     C_R   0.972017 0.347268 0.852248 0.548018
C118  C     C_R   0.037678 0.347654 0.142344 0.555347
C119  C     C_R   0.472020 0.847267 0.852246 0.547611
C120  C     C_R   0.537674 0.847653 0.142345 0.556084
C121  C     C_R   0.759504 0.107160 0.416564 0.003941
C122  C     C_R   0.257055 0.063563 0.572244 0.037154
C123  C     C_R   0.258291 0.605243 0.417219 0.003071
C124  C     C_R   0.752178 0.578652 0.575361 0.034279
C125  C     C_R   0.710847 0.176565 0.454653 0.011929
C126  C     C_R   0.209371 0.150320 0.548547 0.001274
C127  C     C_R   0.208270 0.670124 0.456146 0.011115
C128  C     C_R   0.703018 0.668729 0.559426 0.010060
C129  C     C_R   0.722393 0.202429 0.526111 0.025290
C130  C     C_R   0.201382 0.169242 0.476385 0.053897
C131  C     C_R   0.219949 0.696475 0.527452 0.029300
C132  C     C_R   0.689614 0.699328 0.489033 0.013736
Cr1   Cr    Cr6+3 0.885860 0.491680 0.749630 0.999668
Cr2   Cr    Cr6+3 0.114140 0.491680 0.250370 1.006018
Cr3   Cr    Cr6+3 0.385860 0.991680 0.749630 1.000066
Cr4   Cr    Cr6+3 0.614140 0.991680 0.250370 1.001699
Cr5   Cr    Cr6+3 0.730490 0.332970 0.748720 0.993544
Cr6   Cr    Cr6+3 0.269510 0.332970 0.251280 0.991174
Cr7   Cr    Cr6+3 0.230490 0.832970 0.748720 0.993757
Cr8   Cr    Cr6+3 0.769510 0.832970 0.251280 0.990397
Cr9   Cr    Cr6+3 0.887570 0.179310 0.750150 1.000549
Cr10  Cr    Cr6+3 0.112430 0.179310 0.249850 1.003303
Cr11  Cr    Cr6+3 0.387570 0.679310 0.750150 1.000028
Cr12  Cr    Cr6+3 0.612430 0.679310 0.249850 0.998800
H1    H     H_    0.887187 0.088990 0.544134 0.156809
H2    H     H_    0.302895 0.938690 0.412624 0.109505
H3    H     H_    0.386856 0.591736 0.543732 0.157615
H4    H     H_    0.788599 0.483100 0.407144 0.129249
H5    H     H_    0.953111 0.762934 0.534074 0.107222
H6    H     H_    0.908521 0.723729 0.412341 0.124526
H7    H     H_    0.458398 0.263994 0.536771 0.106251
H8    H     H_    0.413298 0.228326 0.414841 0.118294
H9    H     H_    0.649012 0.135104 0.928271 0.127199
H10   H     H_    0.336718 0.204305 0.060954 0.116887
H11   H     H_    0.149013 0.635108 0.928272 0.127245
H12   H     H_    0.836710 0.704330 0.060947 0.116920
H13   H     H_    0.637898 0.118991 0.058122 0.145501
H14   H     H_    0.340073 0.194753 0.929789 0.119580
H15   H     H_    0.137899 0.618992 0.058122 0.145420
H16   H     H_    0.840068 0.694767 0.929782 0.119497
H17   H     H_    0.855044 0.898304 0.068587 0.151800
H18   H     H_    0.183508 0.849621 0.940488 0.169389
H19   H     H_    0.355032 0.398288 0.068576 0.151939
H20   H     H_    0.683510 0.349621 0.940494 0.169488
H21   H     H_    0.928701 0.039810 0.951029 0.175646
H22   H     H_    0.095931 0.941750 0.064953 0.148979
H23   H     H_    0.428701 0.539806 0.951032 0.175604
H24   H     H_    0.595928 0.441764 0.064951 0.148992
H25   H     H_    0.862976 0.914361 0.941248 0.107830
H26   H     H_    0.184206 0.866553 0.068582 0.117572
H27   H     H_    0.362972 0.414365 0.941241 0.107999
H28   H     H_    0.684203 0.366572 0.068583 0.118653
H29   H     H_    0.026958 0.149215 0.924143 0.159363
H30   H     H_    0.047091 0.148031 0.054325 0.173431
H31   H     H_    0.526955 0.649211 0.924144 0.159400
H32   H     H_    0.547081 0.648028 0.054327 0.173348
H33   H     H_    0.013008 0.641574 0.060598 0.130402
H34   H     H_    0.918034 0.542305 0.944788 0.172037
H35   H     H_    0.513024 0.141575 0.060598 0.130487
H36   H     H_    0.418055 0.042334 0.944777 0.171967
H37   H     H_    0.933513 0.541150 0.070168 0.143041
H38   H     H_    0.996237 0.645598 0.934248 0.122837
H39   H     H_    0.433521 0.041167 0.070158 0.142272
H40   H     H_    0.496269 0.145603 0.934245 0.122815
H41   H     H_    0.867294 0.041018 0.419375 0.139254
H42   H     H_    0.322097 0.909478 0.541737 0.121213
H43   H     H_    0.366950 0.544320 0.418831 0.138798
H44   H     H_    0.814843 0.431187 0.532094 0.122360
H45   H     H_    0.117195 0.548829 0.457904 0.157458
H46   H     H_    0.754993 0.831175 0.601399 0.154971
H47   H     H_    0.615649 0.065165 0.454393 0.159786
H48   H     H_    0.258390 0.319339 0.585242 0.152011
H49   H     H_    0.602766 0.232209 0.438642 0.142628
H50   H     H_    0.160458 0.310611 0.595138 0.136394
H51   H     H_    0.098134 0.714262 0.441410 0.143144
H52   H     H_    0.658029 0.820326 0.617981 0.135068
H53   H     H_    0.622055 0.269687 0.563035 0.138582
H54   H     H_    0.146555 0.342059 0.469485 0.137403
H55   H     H_    0.117966 0.755542 0.565159 0.134244
H56   H     H_    0.635380 0.872130 0.496227 0.135277
H57   H     H_    0.638412 0.102753 0.578623 0.140226
H58   H     H_    0.244696 0.350724 0.459851 0.156851
H59   H     H_    0.139132 0.590377 0.581304 0.139998
H60   H     H_    0.732344 0.882405 0.479416 0.148716
H61   H     H_    0.033429 0.915485 0.449937 0.103817
H62   H     H_    0.059962 0.941793 0.578185 0.109966
H63   H     H_    0.527883 0.414937 0.448719 0.103605
H64   H     H_    0.553673 0.438609 0.577398 0.105507
H65   H     H_    0.995654 0.088454 0.377837 0.129425
H66   H     H_    0.047767 0.140493 0.634139 0.129691
H67   H     H_    0.493413 0.590246 0.377054 0.130011
H68   H     H_    0.545269 0.637138 0.633729 0.130291
H69   H     H_    0.921450 0.520424 0.359678 0.126879
H70   H     H_    0.004749 0.600144 0.603827 0.138918
H71   H     H_    0.424194 0.025772 0.360920 0.122616
H72   H     H_    0.508847 0.098436 0.605346 0.137610
O1    O     O_R   0.957020 0.451640 0.669920 -0.527504
O2    O     O_R   0.042980 0.451640 0.330080 -0.518126
O3    O     O_R   0.457020 0.951640 0.669920 -0.526806
O4    O     O_R   0.542980 0.951640 0.330080 -0.518454
O5    O     O_R   0.736470 0.210100 0.823360 -0.506718
O6    O     O_R   0.263530 0.210100 0.176640 -0.508190
O7    O     O_R   0.236470 0.710100 0.823360 -0.506622
O8    O     O_R   0.763530 0.710100 0.176640 -0.503330
O9    O     O_R   0.831960 0.093290 0.830130 -0.514651
O10   O     O_R   0.168040 0.093290 0.169870 -0.524647
O11   O     O_R   0.331960 0.593290 0.830130 -0.514265
O12   O     O_R   0.668040 0.593290 0.169870 -0.520060
O13   O     O_R   0.945600 0.250580 0.824860 -0.504960
O14   O     O_R   0.054400 0.250580 0.175140 -0.508504
O15   O     O_R   0.445600 0.750580 0.824860 -0.504958
O16   O     O_R   0.554400 0.750580 0.175140 -0.507938
O17   O     O_3   0.834640 0.334650 0.749500 -0.261059
O18   O     O_3   0.165360 0.334650 0.250500 -0.242994
O19   O     O_3   0.334640 0.834650 0.749500 -0.261604
O20   O     O_3   0.665360 0.834650 0.250500 -0.262377
O21   O     O_R   0.821450 0.543440 0.674610 -0.499849
O22   O     O_R   0.178550 0.543440 0.325390 -0.496001
O23   O     O_R   0.321450 0.043440 0.674610 -0.500085
O24   O     O_R   0.678550 0.043440 0.325390 -0.496944
O25   O     O_R   0.715320 0.458650 0.668100 -0.527821
O26   O     O_R   0.284680 0.458650 0.331900 -0.533962
O27   O     O_R   0.215320 0.958650 0.668100 -0.528241
O28   O     O_R   0.784680 0.958650 0.331900 -0.537363
O29   O     O_R   0.737170 0.209590 0.674530 -0.500631
O30   O     O_R   0.262830 0.209590 0.325470 -0.508520
O31   O     O_R   0.237170 0.709590 0.674530 -0.500444
O32   O     O_R   0.762830 0.709590 0.325470 -0.509298
O33   O     O_R   0.832710 0.092740 0.669580 -0.520784
O34   O     O_R   0.167290 0.092740 0.330420 -0.510406
O35   O     O_R   0.332710 0.592740 0.669580 -0.518797
O36   O     O_R   0.667290 0.592740 0.330420 -0.511549
O37   O     O_R   0.946290 0.250060 0.676040 -0.519454
O38   O     O_R   0.053710 0.250060 0.323960 -0.505500
O39   O     O_R   0.446290 0.750060 0.676040 -0.520810
O40   O     O_R   0.553710 0.750060 0.323960 -0.519747
O41   O     O_R   0.956270 0.452200 0.830470 -0.523310
O42   O     O_R   0.043730 0.452200 0.169530 -0.524480
O43   O     O_R   0.456270 0.952200 0.830470 -0.523425
O44   O     O_R   0.543730 0.952200 0.169530 -0.523680
O45   O     O_R   0.820760 0.543950 0.823440 -0.506011
O46   O     O_R   0.179240 0.543950 0.176560 -0.508881
O47   O     O_R   0.320760 0.043950 0.823440 -0.505384
O48   O     O_R   0.679240 0.043950 0.176560 -0.506555
O49   O     O_R   0.714570 0.459210 0.828640 -0.530551
O50   O     O_R   0.285430 0.459210 0.171360 -0.530859
O51   O     O_R   0.214570 0.959210 0.828640 -0.530190
O52   O     O_R   0.785430 0.959210 0.171360 -0.530631
N1    N     N_3   0.933432 0.035926 0.087535 -0.636784
H73   H     H_    0.920014 0.045584 0.141242 0.250609
H74   H     H_    0.971945 0.967946 0.085738 0.214020
N2    N     N_3   0.079642 0.927636 0.930402 -0.662045
H75   H     H_    0.084459 0.931155 0.874926 0.250595
H76   H     H_    0.055292 0.844409 0.942419 0.215437
N3    N     N_3   0.433426 0.535891 0.087540 -0.636930
H77   H     H_    0.420036 0.545365 0.141263 0.250382
H78   H     H_    0.471969 0.467974 0.085650 0.214130
N4    N     N_3   0.579644 0.427637 0.930392 -0.662097
H79   H     H_    0.584469 0.430852 0.874911 0.250518
H80   H     H_    0.555232 0.344525 0.942556 0.215423

loop_
_geom_bond_atom_site_label_1
_geom_bond_atom_site_label_2
_ccdc_geom_bond_type
C51   H72   S    
C58   C62   A    
C119  O43   A    
C55   C56   A    
C82   H26   S    
C67   C83   S    
C101  C102  A    
C72   H12   S    
Cr5   O5    S    
Cr4   O48   S    
Cr9   O33   S    
C41   C42   A    
C14   C18   S    
C96   C119  S    
C101  H29   S    
C35   C36   A    
Cr10  O38   S    
C75   H15   S    
C72   C76   A    
C30   C34   A    
Cr7   O31   S    
Cr3   O43   S    
C120  O16   A    
C47   O31   A    
C97   C98   A    
C54   H6    S    
C63   C79   S    
C53   C54   A    
C34   H62   S    
C26   C89   S    
Cr1   O45   S    
Cr12  O40   S    
C33   H61   S    
C25   C90   S    
C50   C54   A    
C95   C120  S    
Cr11  O35   S    
C116  O12   A    
Cr10  O34   S    
C64   C68   A    
C115  O7    A    
C16   C20   S    
N3    H78   S    
Cr3   O23   S    
C1    O25   A    
C9    H41   S    
C65   C81   S    
C32   H68   S    
C94   C117  S    
C95   C99   A    
Cr10  O14   S    
C57   C112  S    
C66   C82   S    
C94   C98   A    
C113  O5    A    
Cr9   O13   S    
C12   H44   S    
C73   H13   S    
C17   H57   S    
C59   C110  S    
C117  O41   A    
C31   C40   A    
C108  H36   S    
Cr8   O32   S    
C51   C55   A    
C36   H64   S    
C32   C39   A    
C57   C73   A    
C92   O4    A    
C24   C132  A    
C46   O34   A    
Cr2   O42   S    
C60   C109  S    
C105  H37   S    
C45   O33   A    
C121  C125  A    
C52   C56   A    
Cr5   O49   S    
C27   C44   A    
C80   H20   S    
N3    H77   S    
C29   C33   A    
C61   C77   S    
N2    H75   S    
C83   H27   S    
C29   C38   A    
C70   C74   A    
C9    C121  A    
C107  C108  S    
Cr8   O52   S    
C69   C73   A    
C81   H25   S    
C56   H8    S    
Cr7   O27   S    
C112  O52   A    
C22   C130  A    
C47   O35   A    
Cr6   O30   S    
Cr6   O26   S    
C3    C122  S    
C80   C84   S    
C124  C128  A    
C97   C105  S    
C122  C126  A    
C44   C52   A    
Cr1   O41   S    
C15   H45   S    
C71   H11   S    
Cr2   O46   S    
C7    C23   A    
C15   C127  S    
N1    H73   S    
C11   H43   S    
C80   N4    S    
C64   C80   S    
C8    H4    S    
C59   C75   A    
Cr1   O21   S    
C29   H65   S    
C20   C132  S    
Cr6   O18   S    
C128  C132  A    
C41   C49   A    
C72   C88   A    
Cr12  O16   S    
C7    C11   A    
C46   O30   A    
C21   C45   S    
C14   C126  S    
N2    H76   S    
C19   C131  S    
C63   C67   A    
C100  C108  S    
C5    H1    S    
C103  H31   S    
Cr12  O20   S    
Cr11  O19   S    
C58   C111  S    
C68   C84   S    
C23   C47   S    
C88   C116  S    
C20   H60   S    
C109  O49   A    
C30   H66   S    
C45   O29   A    
C39   C40   A    
C53   H5    S    
C126  C130  A    
C62   C66   A    
Cr8   O8    S    
Cr1   O17   S    
Cr6   O50   S    
C50   H69   S    
C1    O21   A    
Cr2   O2    S    
C83   H23   S    
C49   H70   S    
C60   C76   A    
C7    H3    S    
Cr1   O1    S    
C17   C129  S    
C30   C37   A    
C107  H39   S    
Cr8   O28   S    
C5    C21   A    
C24   C48   S    
C116  O8    A    
C15   C19   S    
C43   C44   A    
C115  O11   A    
C37   C38   A    
C84   H24   S    
Cr10  O10   S    
C61   C65   A    
C25   C38   A    
C114  O10   A    
Cr9   O9    S    
Cr5   O29   S    
C78   C82   S    
C113  O9    A    
C99   C100  A    
C12   C124  A    
C77   C81   S    
C27   C40   A    
C8    C12   A    
Cr3   O3    S    
C19   H59   S    
C33   C34   A    
C4    O24   A    
C23   C131  A    
C27   C92   S    
C18   H58   S    
C3    O27   A    
Cr4   O44   S    
C114  O6    A    
C74   H14   S    
C17   H53   S    
C104  H32   S    
C21   C129  A    
C16   H46   S    
C42   C50   A    
C71   C87   A    
C92   O40   A    
C35   H63   S    
C22   C46   S    
C112  O48   A    
C78   H18   S    
C78   N2    S    
N1    H74   S    
Cr7   O19   S    
C91   O3    A    
C68   C88   A    
N4    H80   S    
C59   C63   A    
C79   H19   S    
C93   C118  S    
C109  O45   A    
C117  O13   A    
C70   C86   A    
C93   C97   A    
C123  C127  A    
C110  O50   A    
C4    O28   A    
C69   C85   A    
C95   C104  A    
C58   C74   A    
C105  H33   S    
C82   H22   S    
Cr7   O7    S    
C55   H7    S    
C2    O26   A    
Cr7   O51   S    
C14   H50   S    
C81   H21   S    
C94   C101  A    
C16   C128  S    
C107  H35   S    
C86   C114  S    
C70   H10   S    
C93   C102  A    
C67   C87   A    
C62   C78   S    
C2    O22   A    
C71   C75   A    
Cr3   O19   S    
Cr11  O11   S    
C84   H28   S    
C13   H47   S    
C25   C42   A    
C66   C86   A    
Cr4   O20   S    
C32   C36   A    
C26   C37   A    
C57   C61   A    
Cr3   O47   S    
Cr4   O4    S    
C108  H40   S    
C119  O15   A    
C11   C123  A    
C102  H30   S    
C99   C107  S    
C105  C106  S    
C28   C39   A    
C28   C43   A    
C19   H55   S    
C98   C106  S    
C13   C17   S    
C79   N3    S    
C60   C64   A    
Cr9   O37   S    
C127  C131  A    
Cr4   O24   S    
C1    C124  S    
C15   H51   S    
C48   O32   A    
C65   C85   A    
C120  O44   A    
C110  O46   A    
C79   C83   S    
Cr11  O39   S    
C43   C51   A    
C96   C103  A    
C76   H16   S    
C91   O39   A    
Cr5   O25   S    
C118  O14   A    
C6    H2    S    
C96   C100  A    
C31   C35   A    
C85   C113  S    
C16   H52   S    
C10   H42   S    
C77   H17   S    
C87   C115  S    
C4    C121  S    
C28   C91   S    
C77   N1    S    
C14   H48   S    
C52   H71   S    
C48   O36   A    
C90   O38   A    
C89   O37   A    
C69   H9    S    
C90   O2    A    
C49   C53   A    
C18   C130  S    
C6    C10   A    
Cr2   O22   S    
C111  O51   A    
C125  C129  A    
C10   C122  A    
Cr10  O18   S    
C31   H67   S    
C8    C24   A    
Cr9   O17   S    
C118  O42   A    
C89   O1    A    
C103  C104  A    
Cr8   O20   S    
Cr6   O6    S    
N4    H79   S    
Cr12  O12   S    
C13   H49   S    
C5    C9    A    
Cr12  O36   S    
Cr11  O15   S    
C111  O47   A    
Cr5   O17   S    
C13   C125  S    
C106  H34   S    
C20   H56   S    
C2    C123  S    
C18   H54   S    
C106  H38   S    
C26   C41   A    
C3    O23   A    
Cr2   O18   S    
C6    C22   A    
