data_str_m9_o16_o24_f0_sra.sym.82
_audit_creation_date              2012-12-11T15:13:50-0500
_audit_creation_method            fapswitch 2.2
_symmetry_space_group_name_H-M    P1
_symmetry_Int_Tables_number       1
_space_group_crystal_system       triclinic
_cell_length_a                    6.941955
_cell_length_b                    13.54009
_cell_length_c                    20.097815
_cell_angle_alpha                 104.04656
_cell_angle_beta                  90.743875
_cell_angle_gamma                 90.164676
_cell_volume                      1832.41222984

loop_
_atom_site_label
_atom_site_type_symbol
_atom_type_description
_atom_site_fract_x
_atom_site_fract_y
_atom_site_fract_z
_atom_type_partial_charge
O1    O     O_R   0.506780 0.600060 0.449950 -0.537672
O2    O     O_R   0.179840 0.597110 0.589410 -0.537985
O3    O     O_R   0.004570 0.399940 0.550050 -0.542127
C1    C     C_R   0.348903 0.617332 0.617297 0.732928
O4    O     O_R   0.177380 0.612160 0.452890 -0.538678
O5    O     O_R   0.002100 0.415100 0.412560 -0.542973
C2    C     C_R   0.345826 0.639039 0.436402 0.721266
O6    O     O_R   0.509250 0.584900 0.587440 -0.539858
O7    O     O_3   0.337570 0.435330 0.486930 -0.378587
V1    V     V_3+5 0.064650 0.512000 0.502430 1.448281
O8    O     O_R   0.672090 0.402890 0.410590 -0.546196
C3    C     C_R   0.839803 0.380942 0.383049 0.668749
O9    O     O_R   0.674540 0.387840 0.547110 -0.545204
C4    C     C_R   0.844716 0.361433 0.563941 0.689664
V2    V     V_3+5 0.564040 0.488000 0.497570 1.427898
O10   O     O_3   0.840990 0.564670 0.513070 -0.361442
C5    C     C_R   0.026218 0.132524 0.616613 -0.148793
H1    H     H_    0.011684 0.178939 0.522243 0.104763
H2    H     H_    0.136845 0.028216 0.705271 0.143311
H3    H     H_    0.109074 0.065345 0.593991 0.122847
C6    C     C_R   0.864074 0.284221 0.603260 -0.037918
C7    C     C_R   0.753208 0.307462 0.929144 -0.167693
C8    C     C_R   0.704086 0.378198 0.892116 -0.112349
C9    C     C_R   0.744361 0.359487 0.822487 -0.152305
C10   C     C_R   0.839779 0.269535 0.788253 0.074442
C11   C     C_R   0.899364 0.199880 0.827592 0.061545
C12   C     C_R   0.876806 0.245907 0.716297 0.066397
C13   C     C_R   0.983148 0.156872 0.686623 0.137621
C14   C     C_R   0.048914 0.093366 0.727066 -0.165858
C15   C     C_R   0.003564 0.112638 0.795878 -0.203577
C16   C     C_R   0.815439 0.308148 0.672722 -0.220150
C17   C     C_R   0.968824 0.196313 0.575468 -0.171132
C18   C     C_R   0.850231 0.218234 0.897721 -0.083092
H4    H     H_    0.737932 0.377985 0.691547 0.095173
H5    H     H_    0.712426 0.321518 0.982488 0.103037
H6    H     H_    0.699194 0.417117 0.797091 0.100972
H7    H     H_    0.629798 0.447144 0.917210 0.130694
H8    H     H_    0.054146 0.058955 0.824084 0.135217
C19   C     C_3   0.779362 0.158770 0.250376 -0.141253
C20   C     C_3   0.954888 0.208490 0.294552 -0.137322
H9    H     H_    0.035923 0.174801 0.331548 0.100177
H10   H     H_    0.716021 0.083334 0.250168 0.110707
C21   C     C_3   0.847257 0.310627 0.312405 -0.004376
C22   C     C_3   0.671570 0.261676 0.269031 -0.122478
C23   C     C_3   0.758181 0.290798 0.205656 -0.140815
C24   C     C_3   0.933745 0.340494 0.249804 -0.138850
C25   C     C_3   0.041490 0.237576 0.231163 -0.118081
C26   C     C_3   0.865784 0.188698 0.187789 -0.003614
H11   H     H_    0.518918 0.271712 0.284952 0.104861
H12   H     H_    0.677215 0.324412 0.168610 0.098810
H13   H     H_    0.997485 0.415856 0.249963 0.099813
H14   H     H_    0.194121 0.227355 0.215236 0.104271
C27   C     C_3   0.537961 0.737643 0.726902 -0.148535
C28   C     C_3   0.427097 0.840210 0.747480 -0.220922
H15   H     H_    0.483345 0.916124 0.745132 0.141971
H16   H     H_    0.688121 0.726256 0.708544 0.162558
C29   C     C_3   0.354532 0.810964 0.812722 -0.057716
C30   C     C_3   0.462164 0.709977 0.791728 0.392247
C31   C     C_3   0.282969 0.656725 0.753122 -0.228090
C32   C     C_3   0.172793 0.759424 0.773891 -0.198130
C33   C     C_3   0.246685 0.787343 0.708473 0.044829
C34   C     C_3   0.356292 0.686269 0.688091 -0.122100
H17   H     H_    0.227640 0.580733 0.755653 0.123214
H18   H     H_    0.022951 0.769286 0.792978 0.155707
C35   C     C_R   0.385875 0.891968 0.392127 -0.168295
H19   H     H_    0.388287 0.842228 0.485500 0.151082
H20   H     H_    0.398641 0.017715 0.309777 0.117615
H21   H     H_    0.401811 0.971349 0.418994 0.114302
C36   C     C_R   0.354655 0.716279 0.396882 -0.035456
C37   C     C_R   0.345523 0.681147 0.066756 -0.157728
C38   C     C_R   0.335591 0.604642 0.101782 -0.123513
C39   C     C_R   0.338719 0.628630 0.173252 -0.162027
C40   C     C_R   0.352343 0.731088 0.211879 0.079168
C41   C     C_R   0.363152 0.809192 0.175523 0.068022
C42   C     C_R   0.357166 0.758602 0.285195 0.075680
C43   C     C_R   0.375850 0.863049 0.320202 0.148591
C44   C     C_R   0.385378 0.937979 0.283366 -0.216325
C45   C     C_R   0.378550 0.911721 0.212238 -0.204647
C46   C     C_R   0.344763 0.686206 0.325269 -0.221911
C47   C     C_R   0.377065 0.818843 0.430160 -0.174580
C48   C     C_R   0.359068 0.783037 0.102867 -0.078178
H22   H     H_    0.327936 0.605861 0.302739 0.089272
H23   H     H_    0.342519 0.660876 0.011157 0.120236
H24   H     H_    0.331294 0.564968 0.196460 0.102529
H25   H     H_    0.325429 0.525864 0.073295 0.117194
H26   H     H_    0.386799 0.972866 0.186232 0.116855
O11   O     O_R   0.203580 0.914920 0.912610 -0.547951
O12   O     O_R   0.535710 0.887810 0.047120 -0.537725
O13   O     O_R   0.710730 0.084950 0.087430 -0.543634
C49   C     C_R   0.367397 0.860875 0.063560 0.698502
O14   O     O_R   0.533010 0.902850 0.910600 -0.525086
O15   O     O_R   0.708010 0.100090 0.949930 -0.539480
C50   C     C_R   0.363551 0.880954 0.883196 0.725830
O16   O     O_R   0.206300 0.899780 0.050100 -0.538599
O17   O     O_3   0.375170 0.064580 0.013100 -0.378530
V3    V     V_3+5 0.648200 0.988020 0.997570 1.460907
O18   O     O_R   0.038030 0.112330 0.952840 -0.547345
C51   C     C_R   0.867949 0.138942 0.936085 0.684948
O19   O     O_R   0.040730 0.097300 0.089360 -0.545920
C52   C     C_R   0.873088 0.118805 0.117030 0.671744
V4    V     V_3+5 0.148780 0.012220 0.002360 1.420105
O20   O     O_3   0.871930 0.935430 0.986900 -0.361184
O21   O     O_3   0.575318 0.670160 0.836921 -0.652008
H27   H     H_    0.632222 0.607154 0.808446 0.267649
C53   C     C_2   0.124017 0.828041 0.659575 0.718345
O22   O     O_2   0.952572 0.842939 0.670597 -0.573544
O23   O     O_R   0.206526 0.848029 0.601224 -0.683514
H28   H     H_    0.108821 0.873391 0.571412 0.280505

loop_
_geom_bond_atom_site_label_1
_geom_bond_atom_site_label_2
_ccdc_geom_bond_type
C22   H11   S    
C20   C25   S    
O12   V3    S    
V4    O20   S    
V3    O20   S    
C40   C41   A    
O17   V3    S    
H20   C44   S    
C1    O6    A    
O18   C51   A    
O15   C51   A    
C44   C45   A    
C7    H5    S    
C53   O23   S    
C9    H6    S    
C35   C43   A    
C4    C6    S    
C13   C14   A    
C3    C21   S    
O5    C3    A    
C27   H16   S    
V2    O10   S    
C1    C34   S    
O15   V3    S    
C5    H3    S    
C15   H8    S    
C18   C51   S    
C24   C25   S    
C37   C48   A    
O14   V3    S    
O11   V4    S    
O8    V2    S    
C20   C21   S    
C25   C26   S    
O16   V4    S    
O23   H28   S    
C37   C38   A    
O1    V2    S    
C33   C53   S    
O7    V1    S    
C45   H26   S    
C31   C32   S    
C35   C47   A    
C29   C50   S    
O9    C4    A    
C40   C42   A    
C49   O16   A    
C19   H10   S    
C26   C52   S    
C6    C17   A    
O13   C52   A    
C12   C16   A    
C9    C10   A    
C19   C20   S    
O4    C2    A    
C29   C32   S    
C10   C11   A    
C8    H7    S    
C24   H13   S    
C32   C33   S    
C25   H14   S    
O2    C1    A    
C42   C43   A    
C2    C36   S    
C14   C15   A    
O14   C50   A    
C6    C16   A    
C27   C34   S    
C11   C18   A    
O19   C52   A    
C8    C9    A    
C35   H21   S    
C16   H4    S    
C43   C44   A    
C37   H23   S    
C39   H24   S    
O3    C4    A    
C48   C49   S    
C20   H9    S    
O19   V4    S    
O12   C49   A    
C11   C15   A    
O6    V2    S    
O9    V2    S    
C21   C22   S    
C36   C46   A    
H1    C17   S    
C41   C48   A    
O2    V1    S    
C12   C13   A    
C22   C23   S    
C23   C26   S    
C7    C18   A    
C28   H15   S    
C31   C34   S    
O1    C2    A    
C5    C13   A    
C39   C40   A    
O5    V1    S    
C46   H22   S    
C27   C30   S    
C27   C28   S    
C19   C22   S    
C28   C33   S    
C10   C12   A    
H19   C47   S    
C53   O22   D    
C31   H17   S    
C32   H18   S    
O13   V3    S    
O7    V2    S    
C38   C39   A    
O3    V1    S    
V1    O10   S    
C29   C30   S    
C23   H12   S    
C38   H25   S    
O11   C50   A    
C33   C34   S    
C21   C24   S    
C30   C31   S    
C23   C24   S    
O4    V1    S    
C41   C45   A    
O21   H27   S    
C5    C17   A    
C7    C8    A    
C36   C47   A    
C30   O21   S    
C42   C46   A    
O18   V4    S    
O17   V4    S    
O8    C3    A    
C19   C26   S    
C28   C29   S    
H2    C14   S    
