data_str_m2_o10_o26_f0_pcu.sym.53
_audit_creation_date              2012-10-26T19:02:36-0400
_audit_creation_method            fapswitch 2.2
_symmetry_space_group_name_H-M    P1
_symmetry_Int_Tables_number       1
_space_group_crystal_system       triclinic
_cell_length_a                    17.37474
_cell_length_b                    8.765676
_cell_length_c                    7.410239
_cell_angle_alpha                 102.794922
_cell_angle_beta                  88.702998
_cell_angle_gamma                 92.453294
_cell_volume                      1099.45635393

loop_
_atom_site_label
_atom_site_type_symbol
_atom_type_description
_atom_site_fract_x
_atom_site_fract_y
_atom_site_fract_z
_atom_type_partial_charge
C1    C     C_R   0.496684 0.200401 0.454779 0.553902
C2    C     C_R   0.778447 0.587521 0.603136 -0.024374
C3    C     C_R   0.143033 0.449891 0.389739 -0.105147
C4    C     C_R   0.856357 0.560199 0.608174 -0.121375
C5    C     C_R   0.106488 0.542985 0.541279 -0.035894
C6    C     C_R   0.892750 0.459384 0.462004 -0.002335
C7    C     C_R   0.147489 0.607893 0.703403 0.073037
C8    C     C_R   0.851481 0.386579 0.302826 0.056895
C9    C     C_R   0.227686 0.586732 0.706789 0.029202
C10   C     C_R   0.771648 0.409798 0.296555 0.019908
C11   C     C_2   0.023720 0.563391 0.529954 -0.122175
C12   C     C_R   0.503851 0.799515 0.544928 0.555843
C13   C     C_2   0.975653 0.439645 0.473896 -0.100977
C14   C     C_2   0.252601 0.307453 0.231126 0.630672
C15   C     C_2   0.746073 0.710800 0.754158 0.646798
C16   C     C_2   0.728843 0.330714 0.129080 0.604906
C17   C     C_2   0.269909 0.670151 0.873548 0.618051
C18   C     C_2   0.105957 0.689531 0.873391 0.631201
C19   C     C_2   0.892538 0.293774 0.139181 0.614949
C20   C     C_2   0.430707 0.953349 0.292370 0.594860
C21   C     C_2   0.572664 0.044039 0.703208 0.617471
C22   C     C_2   0.485404 0.034781 0.436675 0.003459
C23   C     C_2   0.516269 0.964793 0.561882 -0.009200
C24   C     C_R   0.350744 0.499366 0.528361 0.575881
C25   C     C_R   0.649104 0.501227 0.471609 0.571480
C26   C     C_R   0.265552 0.497012 0.547756 -0.033878
C27   C     C_R   0.734041 0.504447 0.451678 -0.020966
C28   C     C_R   0.220815 0.420655 0.392796 0.046219
Cu1   Cu    Cu3+1 0.508700 0.517250 0.683000 1.099717
Cu2   Cu    Cu3+1 0.491300 0.482750 0.317000 1.109860
H1    H     H_    0.997835 0.322862 0.434938 0.193289
H2    H     H_    0.279898 0.871309 0.066843 0.368719
H3    H     H_    0.085108 0.707687 0.146291 0.349368
H4    H     H_    0.958585 0.110325 0.034779 0.374681
H5    H     H_    0.411289 0.876767 0.018918 0.355956
H6    H     H_    0.598868 0.104022 0.974087 0.378384
H7    H     H_    0.002044 0.680682 0.567724 0.184335
H8    H     H_    0.889803 0.620850 0.726117 0.155564
H9    H     H_    0.109744 0.396842 0.268158 0.185743
H10   H     H_    0.440324 0.380591 0.958476 0.266824
H11   H     H_    0.559586 0.619581 0.041582 0.281733
H12   H     H_    0.328085 0.140262 0.134749 0.357068
H13   H     H_    0.799086 0.639284 0.960439 0.328960
H14   H     H_    0.666605 0.353780 0.910810 0.367703
N1    N     N_2   0.478180 0.456750 0.041980 -0.235369
N2    N     N_2   0.521820 0.543250 0.958020 -0.239330
O1    O     O_R   0.505650 0.286040 0.618880 -0.525229
O2    O     O_R   0.309128 0.205896 0.256476 -0.668074
O3    O     O_2   0.701758 0.802957 0.716056 -0.405874
O4    O     O_R   0.766448 0.726494 0.939192 -0.599948
O5    O     O_2   0.730027 0.188430 0.076610 -0.443146
O6    O     O_R   0.691852 0.419982 0.025076 -0.672076
O7    O     O_2   0.305860 0.597489 0.964579 -0.448160
O8    O     O_R   0.261137 0.831042 0.936202 -0.671433
O9    O     O_2   0.064255 0.797263 0.868089 -0.501043
O10   O     O_R   0.115845 0.643728 0.040302 -0.657823
O11   O     O_2   0.889646 0.330455 0.989608 -0.487447
O12   O     O_R   0.494350 0.713960 0.381120 -0.504717
O13   O     O_R   0.933382 0.163714 0.155723 -0.663977
O14   O     O_2   0.371065 0.891072 0.336792 -0.492415
O15   O     O_R   0.449010 0.945247 0.106305 -0.631685
O16   O     O_2   0.631028 0.109257 0.656682 -0.475920
O17   O     O_R   0.558830 0.041528 0.888621 -0.605979
O18   O     O_R   0.490960 0.256910 0.309800 -0.465957
O19   O     O_R   0.509040 0.743090 0.690200 -0.455004
O20   O     O_R   0.394600 0.516230 0.672450 -0.494524
O21   O     O_R   0.605400 0.483770 0.327550 -0.488700
O22   O     O_R   0.379910 0.487100 0.363380 -0.453033
O23   O     O_R   0.620090 0.512900 0.636620 -0.486700
O24   O     O_2   0.228092 0.300666 0.075889 -0.452756

loop_
_geom_bond_atom_site_label_1
_geom_bond_atom_site_label_2
_ccdc_geom_bond_type
C10   C27   A    
C2    C4    A    
H11   N2    S    
C5    C7    A    
H13   O4    S    
C14   C28   S    
Cu1   Cu2   S    
Cu2   O18   S    
C20   O14   D    
H6    O17   S    
C11   C13   D    
C12   O19   A    
Cu2   N1    S    
C26   C28   A    
Cu2   O21   S    
C25   O21   A    
C16   O5    D    
C18   O10   S    
Cu1   N2    S    
C7    C18   S    
C12   O12   A    
C7    C9    A    
H14   O6    S    
H3    O10   S    
C21   C23   S    
H4    O13   S    
C3    H9    S    
C1    C22   S    
H5    O15   S    
H12   O2    S    
N1    N2    D    
C19   O11   D    
C6    C13   S    
C2    C15   S    
C14   O24   D    
C12   C23   S    
C21   O16   D    
C2    C27   A    
C10   C16   S    
C18   O9    D    
Cu1   O1    S    
Cu1   O19   S    
Cu2   O12   S    
C9    C17   S    
C3    C28   A    
C24   C26   S    
C9    C26   A    
C5    C11   S    
Cu1   O23   S    
C15   O3    D    
H10   N1    S    
C21   O17   S    
C8    C19   S    
C25   O23   A    
C24   O22   A    
Cu1   O20   S    
C1    O18   A    
C17   O7    D    
C24   O20   A    
C8    C10   A    
C4    C6    A    
C15   O4    S    
H2    O8    S    
C20   O15   S    
C11   H7    S    
C14   O2    S    
C22   C23   D    
C1    O1    A    
C6    C8    A    
C19   O13   S    
C4    H8    S    
C17   O8    S    
C13   H1    S    
Cu2   O22   S    
C16   O6    S    
C20   C22   S    
C3    C5    A    
C25   C27   S    
