data_str_m2_o10_o17_f0_pcu.sym.157
_audit_creation_date              2012-12-10T16:44:41-0500
_audit_creation_method            fapswitch 2.2
_symmetry_space_group_name_H-M    P1
_symmetry_Int_Tables_number       1
_space_group_crystal_system       triclinic
_cell_length_a                    15.01079
_cell_length_b                    8.712261
_cell_length_c                    7.428978
_cell_angle_alpha                 102.248213
_cell_angle_beta                  94.030273
_cell_angle_gamma                 92.384026
_cell_volume                      945.491267117

loop_
_atom_site_label
_atom_site_type_symbol
_atom_type_description
_atom_site_fract_x
_atom_site_fract_y
_atom_site_fract_z
_atom_type_partial_charge
C1    C     C_R   0.494028 0.200739 0.455634 0.865940
C2    C     C_R   0.505971 0.799261 0.544366 0.865937
C3    C     C_R   0.038437 0.228293 0.325962 0.180032
C4    C     C_R   0.961563 0.771698 0.674054 0.180032
C5    C     C_2   0.477622 0.035740 0.439427 -0.025664
C6    C     C_2   0.522378 0.964260 0.560572 -0.025657
C7    C     C_R   0.329387 0.503434 0.503208 0.804901
C8    C     C_R   0.670613 0.496564 0.496792 0.804899
C9    C     C_R   0.817210 0.627146 0.579314 -0.293260
C10   C     C_R   0.182790 0.372849 0.420692 -0.293263
C11   C     C_R   0.766504 0.491665 0.490594 -0.051025
C12   C     C_R   0.233495 0.508332 0.509406 -0.051023
C13   C     C_R   0.807003 0.355261 0.403939 0.136164
C14   C     C_R   0.192997 0.644735 0.596063 0.136167
C15   C     C_R   0.901418 0.359220 0.406823 0.069361
C16   C     C_R   0.098582 0.640773 0.593188 0.069361
C17   C     C_R   0.952918 0.498199 0.497687 -0.018374
C18   C     C_R   0.047082 0.501794 0.502325 -0.018373
C19   C     C_R   0.910310 0.633396 0.584233 0.109555
C20   C     C_R   0.089690 0.366596 0.415778 0.109555
C21   C     C_R   0.945432 0.226709 0.322124 -0.203591
C22   C     C_R   0.054568 0.773281 0.677892 -0.203590
Cu1   Cu    Cu3+1 0.510010 0.517380 0.684380 0.944574
Cu2   Cu    Cu3+1 0.489990 0.482620 0.315620 0.944572
H1    H     H_    0.782335 0.728080 0.644236 0.153790
H2    H     H_    0.217665 0.271915 0.355770 0.153790
H3    H     H_    0.907890 0.119769 0.251395 0.161256
H4    H     H_    0.092111 0.880219 0.748625 0.161258
N1    N     N_2   0.474890 0.456420 0.038520 -0.215400
N2    N     N_2   0.525110 0.543580 0.961480 -0.215400
O1    O     O_R   0.506510 0.286130 0.619770 -0.591798
O2    O     O_R   0.493490 0.713870 0.380230 -0.591799
O3    O     O_R   0.489600 0.256770 0.308360 -0.586733
O4    O     O_R   0.510400 0.743230 0.691640 -0.586729
O5    O     O_R   0.378710 0.514640 0.655720 -0.584257
O6    O     O_R   0.621290 0.485360 0.344280 -0.584262
O7    O     O_R   0.361800 0.485290 0.344300 -0.579656
O8    O     O_R   0.638200 0.514710 0.655700 -0.579655
C23   C     C_3   0.750970 0.205356 0.315110 -0.885985
H5    H     H_    0.771740 0.108016 0.381096 0.219184
H6    H     H_    0.678452 0.213977 0.329634 0.236723
H7    H     H_    0.760080 0.173794 0.164940 0.239335
C24   C     C_3   0.249030 0.794643 0.684883 -0.885999
H8    H     H_    0.228250 0.891984 0.618914 0.219187
H9    H     H_    0.239934 0.826198 0.835055 0.239342
H10   H     H_    0.321545 0.786030 0.670328 0.236714
C25   C     C_3   0.080997 0.080635 0.233612 -0.890973
H11   H     H_    0.030442 0.983589 0.171896 0.240070
H12   H     H_    0.120370 0.105158 0.120744 0.230025
H13   H     H_    0.125387 0.038489 0.336733 0.234993
C26   C     C_3   0.919003 0.919354 0.766408 -0.890977
H14   H     H_    0.969559 0.016399 0.828128 0.240071
H15   H     H_    0.874614 0.961504 0.663288 0.234993
H16   H     H_    0.879630 0.894828 0.879273 0.230026
C27   C     C_3   0.402343 0.955923 0.298294 -0.846175
H17   H     H_    0.362478 0.043266 0.243839 0.220222
H18   H     H_    0.430060 0.879305 0.178617 0.266905
H19   H     H_    0.355117 0.886204 0.362496 0.230147
C28   C     C_3   0.597661 0.044075 0.701697 -0.846166
H20   H     H_    0.637528 0.956731 0.756147 0.220217
H21   H     H_    0.644886 0.113792 0.637488 0.230143
H22   H     H_    0.569948 0.120695 0.821380 0.266903
H23   H     H_    0.430754 0.377874 0.948668 0.229720
H24   H     H_    0.569246 0.622126 0.051332 0.229720

loop_
_geom_bond_atom_site_label_1
_geom_bond_atom_site_label_2
_ccdc_geom_bond_type
C25   H11   S    
C24   H8    S    
Cu2   O2    S    
N1    N2    D    
N2    H24   S    
C25   H13   S    
Cu1   O8    S    
C4    C22   A    
C18   C20   A    
Cu2   O3    S    
C15   C21   A    
C27   H17   S    
Cu1   O4    S    
C5    C27   S    
C10   H2    S    
N1    H23   S    
Cu2   O7    S    
C21   H3    S    
C1    O3    A    
C28   H20   S    
C25   H12   S    
C27   H18   S    
C22   H4    S    
C26   H16   S    
C24   H9    S    
C9    C11   A    
C3    C20   A    
C2    O4    A    
Cu2   O6    S    
C8    O8    A    
C8    C11   S    
C1    C5    S    
C10   C12   A    
C3    C25   S    
C17   C19   A    
C12   C14   A    
C17   C18   A    
C23   H7    S    
Cu1   O5    S    
C13   C15   A    
C7    O7    A    
C5    C6    D    
C24   H10   S    
C14   C16   A    
C7    C12   S    
C3    C21   A    
C11   C13   A    
C28   H21   S    
C4    C26   S    
C9    H1    S    
C26   H14   S    
Cu1   N2    S    
C1    O1    A    
C23   H6    S    
C2    O2    A    
C8    O6    A    
C27   H19   S    
C23   H5    S    
C15   C17   A    
Cu2   N1    S    
C28   H22   S    
C16   C22   A    
Cu1   Cu2   S    
C4    C19   A    
C7    O5    A    
C6    C28   S    
C9    C19   A    
C16   C18   A    
C13   C23   S    
C2    C6    S    
C10   C20   A    
C14   C24   S    
C26   H15   S    
Cu1   O1    S    
