data_str_m2_o9_o18_f0_pcu.sym.41
_audit_creation_date              2012-10-26T21:10:49-0400
_audit_creation_method            fapswitch 2.2
_symmetry_space_group_name_H-M    P1
_symmetry_Int_Tables_number       1
_space_group_crystal_system       triclinic
_cell_length_a                    10.84689
_cell_length_b                    14.638024
_cell_length_c                    14.646675
_cell_angle_alpha                 65.146933
_cell_angle_beta                  103.108934
_cell_angle_gamma                 102.390024
_cell_volume                      2036.39872423

loop_
_atom_site_label
_atom_site_type_symbol
_atom_type_description
_atom_site_fract_x
_atom_site_fract_y
_atom_site_fract_z
_atom_type_partial_charge
C1    C     C_R   0.476784 0.119661 0.312273 0.594017
C2    C     C_R   0.641627 0.776390 0.967211 -0.059575
C3    C     C_R   0.318382 0.159937 0.157167 -0.151082
C4    C     C_R   0.613634 0.843302 0.867160 -0.074485
C5    C     C_R   0.502768 0.286198 0.165702 0.002849
C6    C     C_R   0.455902 0.711845 0.829892 0.003296
C7    C     C_R   0.432611 0.364054 0.090950 0.009200
C8    C     C_R   0.481067 0.643703 0.933925 0.021728
C9    C     C_R   0.311135 0.335176 0.041907 0.058549
C10   C     C_R   0.580905 0.676277 0.999760 0.066548
C11   C     C_R   0.477514 0.469597 0.064062 0.022177
C12   C     C_R   0.517247 0.879907 0.688046 0.557427
C13   C     C_R   0.417720 0.541803 0.974004 0.034659
C14   C     C_R   0.293687 0.510657 0.932174 -0.118730
C15   C     C_R   0.571819 0.506012 0.128939 -0.137948
C16   C     C_R   0.262893 0.000146 0.501695 0.540033
C17   C     C_R   0.737250 0.999373 0.499077 0.552158
C18   C     C_R   0.241747 0.408995 0.965155 -0.108774
C19   C     C_R   0.621503 0.607962 0.097551 -0.094442
C20   C     C_R   0.734363 0.295135 0.650570 0.027094
C21   C     C_R   0.277309 0.714966 0.334437 -0.022821
C22   C     C_R   0.693725 0.210184 0.625694 0.044526
C23   C     C_R   0.870604 0.997015 0.499506 -0.001626
C24   C     C_R   0.318186 0.798017 0.362389 0.029067
C25   C     C_R   0.512292 0.281682 0.515867 0.041287
C26   C     C_R   0.478350 0.713276 0.491033 0.051219
C27   C     C_R   0.542680 0.368124 0.541618 -0.036414
C28   C     C_R   0.439117 0.623544 0.471214 -0.026364
C29   C     C_R   0.651398 0.370428 0.616955 0.074434
C30   C     C_R   0.331709 0.622918 0.394225 0.020770
C31   C     C_R   0.468846 0.451392 0.495314 -0.029625
C32   C     C_R   0.504921 0.536026 0.524181 -0.015635
C33   C     C_R   0.602201 0.528900 0.608065 -0.177127
C34   C     C_R   0.129881 0.000398 0.504120 -0.000134
C35   C     C_R   0.356359 0.450358 0.424921 -0.128534
C36   C     C_R   0.670692 0.446176 0.657133 0.045668
C37   C     C_R   0.283057 0.530554 0.380948 0.042035
C38   C     C_R   0.335242 0.124382 0.757718 0.037909
C39   C     C_R   0.659090 0.882892 0.244358 0.048349
C40   C     C_R   0.259692 0.062441 0.705946 0.031786
C41   C     C_R   0.746288 0.941959 0.294211 -0.000828
C42   C     C_R   0.181281 0.108901 0.611720 -0.005928
C43   C     C_R   0.817759 0.891263 0.390615 0.002682
C44   C     C_R   0.173288 0.212888 0.574547 -0.131484
C45   C     C_R   0.908599 0.946665 0.448707 -0.048065
C46   C     C_R   0.809339 0.785391 0.431919 -0.120024
C47   C     C_R   0.239837 0.271210 0.628692 -0.163357
C48   C     C_R   0.728846 0.728416 0.381251 -0.177598
C49   C     C_R   0.322339 0.229349 0.719397 -0.013854
C50   C     C_R   0.650478 0.774862 0.289303 0.003439
C51   C     C_R   0.962418 0.047133 0.552783 -0.132209
C52   C     C_R   0.037824 0.948759 0.452218 -0.132785
C53   C     C_2   0.393396 0.300352 0.768484 0.216916
C54   C     C_2   0.559188 0.705495 0.246954 0.239545
C55   C     C_2   0.748026 0.436900 0.757548 0.307121
C56   C     C_R   0.091992 0.050003 0.555966 -0.040404
C57   C     C_2   0.149027 0.509668 0.333862 0.286343
C58   C     C_2   0.869415 0.306761 0.698995 0.253483
C59   C     C_2   0.189797 0.734466 0.236297 0.208232
C60   C     C_2   0.428689 0.080410 0.849639 0.382754
C61   C     C_2   0.577551 0.934216 0.147065 0.357125
C62   C     C_2   0.254496 0.949410 0.751711 0.262338
C63   C     C_2   0.769966 0.055545 0.246011 0.236562
C64   C     C_2   0.369613 0.676195 0.753527 0.222264
C65   C     C_2   0.645259 0.304129 0.187507 0.253188
C66   C     C_R   0.437865 0.186878 0.206857 0.032844
C67   C     C_R   0.525612 0.811410 0.796852 0.019583
C68   C     C_R   0.257594 0.232995 0.072882 -0.109996
Cu1   Cu    Cu3+1 0.466270 0.918260 0.475690 0.963774
Cu2   Cu    Cu3+1 0.533730 0.081740 0.524310 0.994941
H1    H     H_    0.164383 0.210622 0.036390 0.132776
H2    H     H_    0.317010 0.383915 0.408710 0.147685
H3    H     H_    0.111204 0.248700 0.504085 0.161169
H4    H     H_    0.865947 0.746450 0.504395 0.138487
H5    H     H_    0.227575 0.350687 0.598482 0.127279
H6    H     H_    0.725117 0.646499 0.416087 0.119211
H7    H     H_    0.933317 0.084428 0.593161 0.130620
H8    H     H_    0.066239 0.911193 0.411783 0.137182
H9    H     H_    0.146425 0.388136 0.930577 0.147199
H10   H     H_    0.695913 0.632711 0.148833 0.105928
H11   H     H_    0.667702 0.918623 0.843114 0.166301
H12   H     H_    0.715284 0.801921 0.018387 0.145280
H13   H     H_    0.268492 0.083417 0.187177 0.116739
H14   H     H_    0.376556 0.379215 0.734240 0.113073
H15   H     H_    0.565430 0.624548 0.282133 0.098513
H16   H     H_    0.792285 0.504825 0.771269 0.096104
H17   H     H_    0.076556 0.552010 0.330990 0.107107
H18   H     H_    0.915348 0.239827 0.747915 0.105228
H19   H     H_    0.120382 0.786621 0.213340 0.084015
H20   H     H_    0.424888 0.086543 0.920194 0.159222
H21   H     H_    0.516965 0.986719 0.142319 0.122909
H22   H     H_    0.219909 0.905691 0.704834 0.133825
H23   H     H_    0.231936 0.564567 0.877672 0.164126
H24   H     H_    0.826989 0.098360 0.289527 0.160506
H25   H     H_    0.382525 0.607037 0.748446 0.096180
H26   H     H_    0.697694 0.367707 0.133257 0.136440
H27   H     H_    0.605081 0.456871 0.206094 0.122016
H28   H     H_    0.559824 0.721116 0.546078 0.126559
H29   H     H_    0.431872 0.272814 0.460572 0.132210
H30   H     H_    0.275513 0.867419 0.319957 0.106131
H31   H     H_    0.752791 0.150024 0.654195 0.107984
H32   H     H_    0.621150 0.583894 0.642192 0.074532
N1    N     N_R   0.584450 0.204570 0.560790 -0.237835
N2    N     N_R   0.415550 0.795430 0.439210 -0.236714
O1    O     O_R   0.455540 0.022090 0.338120 -0.528959
O2    O     O_2   0.474303 0.735507 0.175490 -0.403709
O3    O     O_2   0.756494 0.354078 0.827648 -0.435942
O4    O     O_2   0.117314 0.443603 0.299595 -0.487169
O5    O     O_2   0.932987 0.390453 0.679717 -0.518201
O6    O     O_2   0.199748 0.698380 0.177220 -0.412096
O7    O     O_2   0.512188 0.038300 0.846303 -0.442320
O8    O     O_2   0.582124 0.921799 0.070630 -0.425072
O9    O     O_2   0.283731 0.902776 0.843090 -0.446247
O10   O     O_2   0.730817 0.103266 0.156606 -0.474386
O11   O     O_2   0.280830 0.721805 0.698690 -0.488740
O12   O     O_R   0.544460 0.977910 0.661880 -0.488718
O13   O     O_2   0.706039 0.248442 0.264319 -0.493011
O14   O     O_R   0.512510 0.160150 0.379180 -0.467764
O15   O     O_R   0.487490 0.839850 0.620820 -0.482152
O16   O     O_R   0.291160 0.930970 0.479480 -0.491411
O17   O     O_R   0.708840 0.069030 0.520520 -0.501228
O18   O     O_R   0.348130 0.069020 0.520540 -0.511107
O19   O     O_R   0.651870 0.930980 0.479460 -0.508286
O20   O     O_2   0.471196 0.273731 0.845989 -0.481537

loop_
_geom_bond_atom_site_label_1
_geom_bond_atom_site_label_2
_ccdc_geom_bond_type
C34   C56   A    
C8    C13   A    
C23   C45   A    
C27   C29   A    
C58   O5    D    
C48   H6    S    
C3    C68   A    
C33   C36   A    
C39   C41   A    
C38   C49   A    
C15   C19   A    
C63   H24   S    
C50   C54   S    
C22   H31   S    
C53   H14   S    
C35   C37   A    
C21   C59   S    
Cu1   Cu2   S    
C16   O16   A    
Cu1   O19   S    
C59   O6    D    
C40   C62   S    
C51   C56   A    
C59   H19   S    
C6    C64   S    
C16   O18   A    
C16   C34   S    
C63   O10   D    
C11   C15   A    
C17   O19   A    
C65   H26   S    
C4    H11   S    
C18   H9    S    
C62   H22   S    
C14   H23   S    
C44   C47   A    
C26   N2    A    
C40   C42   A    
C64   O11   D    
C13   C14   A    
C41   C43   A    
C44   H3    S    
C42   C44   A    
C15   H27   S    
C52   H8    S    
C47   C49   A    
C25   H29   S    
C7    C11   A    
C20   C29   A    
C39   C61   S    
C12   C67   S    
C46   C48   A    
C54   O2    D    
C27   C31   A    
C33   H32   S    
C28   C32   A    
C62   O9    D    
C5    C65   S    
C5    C7    A    
Cu1   O1    S    
Cu2   N1    S    
C25   N1    A    
C6    C8    A    
C45   C52   A    
Cu2   O12   S    
Cu1   O15   S    
C22   N1    A    
C57   H17   S    
C30   C37   A    
C55   O3    D    
C24   N2    A    
C2    C4    A    
C51   H7    S    
C54   H15   S    
C12   O15   A    
Cu2   O18   S    
C23   C51   A    
C31   C32   A    
C29   C36   A    
C10   C19   A    
C57   O4    D    
C1    C66   S    
C17   C23   S    
C42   C56   S    
C43   C45   S    
C26   H28   S    
C38   C60   S    
C17   O17   A    
C6    C67   A    
C20   C22   A    
C35   H2    S    
C3    H13   S    
C31   C35   A    
C2    H12   S    
C3    C66   A    
C41   C63   S    
C20   C58   S    
C2    C10   A    
C46   H4    S    
Cu1   N2    S    
C7    C9    A    
C24   H30   S    
C26   C28   A    
C14   C18   A    
C64   H25   S    
C5    C66   A    
C53   O20   D    
C58   H18   S    
C4    C67   A    
C60   H20   S    
C25   C27   A    
C21   C30   A    
Cu1   O16   S    
C34   C52   A    
C32   C33   A    
C55   H16   S    
C28   C30   A    
C9    C68   A    
C47   H5    S    
C36   C55   S    
C38   C40   A    
C11   C13   A    
Cu2   O17   S    
Cu2   O14   S    
C68   H1    S    
C49   C53   S    
C48   C50   A    
C1    O14   A    
C19   H10   S    
C43   C46   A    
C9    C18   A    
C39   C50   A    
C8    C10   A    
C21   C24   A    
C60   O7    D    
C65   O13   D    
C61   O8    D    
C37   C57   S    
C61   H21   S    
C1    O1    A    
C12   O12   A    
