data_str_m9_o13_o16_f0_sra.sym.31
_audit_creation_date              2012-12-11T14:43:32-0500
_audit_creation_method            fapswitch 2.2
_symmetry_space_group_name_H-M    P1
_symmetry_Int_Tables_number       1
_space_group_crystal_system       triclinic
_cell_length_a                    20.921324
_cell_length_b                    7.095033
_cell_length_c                    16.500609
_cell_angle_alpha                 89.999578
_cell_angle_beta                  92.844945
_cell_angle_gamma                 90.000876
_cell_volume                      2446.29013942

loop_
_atom_site_label
_atom_site_type_symbol
_atom_type_description
_atom_site_fract_x
_atom_site_fract_y
_atom_site_fract_z
_atom_type_partial_charge
O1    O     O_R   0.564840 0.505290 0.579830 -0.537367
O2    O     O_R   0.435160 0.005290 0.420170 -0.537364
O3    O     O_R   0.556720 0.179930 0.409350 -0.542930
O4    O     O_R   0.443280 0.679930 0.590650 -0.542932
C1    C     C_R   0.570558 0.344807 0.381803 0.725971
C2    C     C_R   0.429442 0.844804 0.618197 0.725973
O5    O     O_R   0.572280 0.175810 0.578530 -0.538745
O6    O     O_R   0.427720 0.675810 0.421470 -0.538754
O7    O     O_R   0.450830 0.001920 0.590540 -0.533853
O8    O     O_R   0.549170 0.501920 0.409460 -0.533855
C3    C     C_R   0.591491 0.345536 0.602691 0.685075
C4    C     C_R   0.408509 0.845534 0.397308 0.685069
O9    O     O_3   0.460130 0.338030 0.503750 -0.372180
O10   O     O_3   0.539870 0.838030 0.496250 -0.372175
V1    V     V_3+5 0.507400 0.064560 0.499310 1.446606
V2    V     V_3+5 0.492600 0.564560 0.500690 1.446597
C5    C     C_R   0.140158 0.901845 0.171412 -0.151684
C6    C     C_R   0.859843 0.401835 0.828589 -0.151715
C7    C     C_R   0.353474 0.865178 0.336840 -0.090174
C8    C     C_R   0.646527 0.365188 0.663157 -0.090173
C9    C     C_R   0.309247 0.043441 0.220262 -0.093177
C10   C     C_R   0.690764 0.543493 0.779717 -0.093182
C11   C     C_R   0.360200 0.997291 0.274219 -0.193920
C12   C     C_R   0.639809 0.497338 0.725765 -0.193909
C13   C     C_R   0.292961 0.775857 0.344291 0.179637
C14   C     C_R   0.707035 0.275832 0.655717 0.179644
C15   C     C_R   0.241956 0.817140 0.286433 0.058874
C16   C     C_R   0.758041 0.317117 0.713573 0.058853
C17   C     C_R   0.249777 0.955367 0.225523 -0.014494
C18   C     C_R   0.750228 0.455385 0.774467 -0.014497
C19   C     C_R   0.198265 0.001517 0.170094 0.589959
C20   C     C_R   0.801742 0.501540 0.829893 0.589972
C21   C     C_R   0.133204 0.763822 0.231355 -0.226649
C22   C     C_R   0.866787 0.263770 0.768661 -0.226628
C23   C     C_R   0.182707 0.723860 0.288563 -0.136636
C24   C     C_R   0.817282 0.223799 0.711458 -0.136653
H1    H     H_    0.089032 0.684651 0.233554 0.206298
H2    H     H_    0.910953 0.184572 0.766473 0.206341
H3    H     H_    0.316807 0.148175 0.173932 0.195498
H4    H     H_    0.683211 0.648257 0.826036 0.195494
H5    H     H_    0.174588 0.615657 0.333142 0.179591
H6    H     H_    0.825394 0.115560 0.666893 0.179579
H7    H     H_    0.405417 0.069094 0.267897 0.143059
H8    H     H_    0.594597 0.569166 0.732079 0.143061
C25   C     C_R   0.385281 0.839429 0.835251 0.662630
C26   C     C_R   0.614712 0.339650 0.164746 0.662632
H9    H     H_    0.472517 0.824078 0.773002 0.143051
H10   H     H_    0.527476 0.324309 0.226996 0.143057
H11   H     H_    0.308758 0.842793 0.957118 0.211756
H12   H     H_    0.691233 0.343088 0.042877 0.211759
C27   C     C_R   0.390544 0.852331 0.689731 -0.134557
C28   C     C_R   0.609456 0.352351 0.310270 -0.134557
C29   C     C_R   0.081912 0.923477 0.736238 0.609613
C30   C     C_R   0.918092 0.423347 0.263763 0.609607
C31   C     C_R   0.116079 0.920075 0.666493 -0.177414
C32   C     C_R   0.883926 0.419885 0.333509 -0.177419
C33   C     C_R   0.182225 0.902679 0.671040 -0.243378
C34   C     C_R   0.817779 0.402537 0.328962 -0.243381
C35   C     C_R   0.217005 0.887191 0.746487 0.096516
C36   C     C_R   0.782996 0.387161 0.253513 0.096518
C37   C     C_R   0.181965 0.888560 0.819605 -0.065238
C38   C     C_R   0.818033 0.388595 0.180394 -0.065239
C39   C     C_R   0.285629 0.870775 0.750976 0.033244
C40   C     C_R   0.714370 0.370792 0.249024 0.033245
C41   C     C_R   0.318149 0.855411 0.828189 -0.086429
C42   C     C_R   0.681847 0.355559 0.171809 -0.086430
C43   C     C_R   0.283812 0.855276 0.898138 -0.055229
C44   C     C_R   0.716182 0.355480 0.101859 -0.055241
C45   C     C_R   0.217602 0.870653 0.895321 0.160309
C46   C     C_R   0.782394 0.370795 0.104676 0.160290
C47   C     C_R   0.323608 0.868837 0.681621 -0.208456
C48   C     C_R   0.676394 0.368782 0.318380 -0.208457
C49   C     C_R   0.420917 0.837709 0.766457 -0.218705
C50   C     C_R   0.579078 0.337871 0.233541 -0.218715
C51   C     C_R   0.113232 0.908374 0.813006 -0.207568
C52   C     C_R   0.886769 0.408355 0.186994 -0.207572
H13   H     H_    0.303162 0.878722 0.620578 0.106137
H14   H     H_    0.696843 0.378565 0.379425 0.106133
H15   H     H_    0.204612 0.901942 0.613736 0.136606
H16   H     H_    0.795393 0.401750 0.386265 0.136606
H17   H     H_    0.090913 0.931744 0.607752 0.159327
H18   H     H_    0.909095 0.431467 0.392251 0.159327
O11   O     O_R   0.950790 0.256670 0.090520 -0.541143
O12   O     O_R   0.049210 0.756670 0.909480 -0.541162
O13   O     O_R   0.927720 0.590370 0.921470 -0.512448
O14   O     O_R   0.072280 0.090370 0.078530 -0.512446
C53   C     C_R   0.911333 0.420863 0.893559 0.738805
C54   C     C_R   0.088667 0.920865 0.106441 0.738802
O15   O     O_R   0.943270 0.586180 0.090640 -0.540332
O16   O     O_R   0.056730 0.086180 0.909360 -0.540309
O17   O     O_R   0.064850 0.759970 0.079840 -0.546119
O18   O     O_R   0.935150 0.259970 0.920160 -0.546120
C55   C     C_R   0.928836 0.417290 0.117339 0.756781
C56   C     C_R   0.071164 0.917293 0.882661 0.756783
O19   O     O_3   0.039850 0.428050 0.996240 -0.374995
O20   O     O_3   0.960150 0.928050 0.003760 -0.374992
V3    V     V_3+5 0.992610 0.701540 0.000700 1.536806
V4    V     V_3+5 0.007390 0.201540 0.999300 1.536856
F1    F     F_    0.205674 0.137345 0.113283 -0.689000
F2    F     F_    0.794341 0.637406 0.886688 -0.688990
F3    F     F_    0.017231 0.941845 0.728764 -0.705556
F4    F     F_    0.982775 0.441659 0.271238 -0.705539
N1    N     N_3   0.189322 0.867593 0.972124 -0.643527
H19   H     H_    0.165404 0.994589 0.979985 0.264653
H20   H     H_    0.159307 0.750685 0.975149 0.235326
N2    N     N_3   0.810672 0.367777 0.027872 -0.643510
H21   H     H_    0.834600 0.494767 0.020028 0.264680
H22   H     H_    0.840679 0.250856 0.024832 0.235281
N3    N     N_3   0.280551 0.652792 0.411350 -0.670806
H23   H     H_    0.246119 0.718509 0.445483 0.211383
H24   H     H_    0.320137 0.635834 0.451287 0.232827
N4    N     N_3   0.719438 0.152722 0.588670 -0.670774
H25   H     H_    0.753896 0.218358 0.554552 0.211376
H26   H     H_    0.679860 0.135846 0.548712 0.232807
F5    F     F_    0.416654 0.824566 0.909070 -0.653638
F6    F     F_    0.583336 0.324920 0.090925 -0.653639

loop_
_geom_bond_atom_site_label_1
_geom_bond_atom_site_label_2
_ccdc_geom_bond_type
C42   C44   A    
C39   C41   A    
C15   C17   A    
C5    C54   S    
C33   H15   S    
C24   H6    S    
O1    C3    A    
C26   C50   A    
O2    C4    A    
C2    O7    A    
N4    H26   S    
O19   V4    S    
O18   V4    S    
C37   C51   A    
O5    C3    A    
C5    C21   A    
O12   V3    S    
C36   C38   A    
C26   C42   A    
C28   C50   A    
N3    H24   S    
O14   C54   A    
C33   C35   A    
N2    H21   S    
C34   C36   A    
O11   C55   A    
C11   H7    S    
C38   C46   A    
C25   C49   A    
C48   H14   S    
C8    C12   A    
C29   F3    S    
C41   C43   A    
O11   V4    S    
O20   V4    S    
C1    C28   S    
C19   F1    S    
C2    C27   S    
C31   H17   S    
C10   C18   A    
C34   H16   S    
N2    H22   S    
O13   C53   A    
O6    V2    S    
C53   O18   A    
C38   C52   A    
C29   C51   A    
C27   C47   A    
C7    C13   A    
N4    H25   S    
O16   C56   A    
O14   V4    S    
C29   C31   A    
C30   C32   A    
C3    C8    S    
C35   C37   A    
H10   C50   S    
H9    C49   S    
O4    C2    A    
C46   N2    S    
O5    V1    S    
C15   C23   A    
C9    C17   A    
C21   H1    S    
C20   F2    S    
O15   V3    S    
C43   C45   A    
C40   C42   A    
O4    V2    S    
C7    C11   A    
C28   C48   A    
C52   C55   S    
C25   F5    S    
C9    H3    S    
C54   O17   A    
O6    C4    A    
C10   H4    S    
O20   V3    S    
N1    H20   S    
O1    V2    S    
O12   C56   A    
O17   V3    S    
O2    V1    S    
C6    C22   A    
C30   C52   A    
C39   C47   A    
C31   C33   A    
C25   C41   A    
C12   H8    S    
C10   C12   A    
C6    C20   A    
C14   N4    S    
C47   H13   S    
O3    V1    S    
C37   C45   A    
H11   C43   S    
C22   H2    S    
C45   N1    S    
C14   C16   A    
C30   F4    S    
C27   C49   A    
O3    C1    A    
O19   V3    S    
C32   H18   S    
C13   N3    S    
C13   C15   A    
C35   C39   A    
C6    C53   S    
C26   F6    S    
C36   C40   A    
C9    C11   A    
O7    V1    S    
C1    O8    A    
C17   C19   A    
O8    V2    S    
N3    H23   S    
C18   C20   A    
C8    C14   A    
C5    C19   A    
C4    C7    S    
C16   C18   A    
C21   C23   A    
C32   C34   A    
C22   C24   A    
C40   C48   A    
O15   C55   A    
C23   H5    S    
O13   V3    S    
C16   C24   A    
C44   C46   A    
O9    V2    S    
N1    H19   S    
O10   V1    S    
H12   C44   S    
O16   V4    S    
C51   C56   S    
