data_str_m4_o1_o24_f0_acs.sym.235
_audit_creation_date              2013-03-05T15:45:46-0500
_audit_creation_method            fapswitch 2.2
_symmetry_space_group_name_H-M    P1
_symmetry_Int_Tables_number       1
_space_group_crystal_system       triclinic
_cell_length_a                    18.790275
_cell_length_b                    10.958621
_cell_length_c                    18.727303
_cell_angle_alpha                 90.091696
_cell_angle_beta                  91.382886
_cell_angle_gamma                 90.188816
_cell_volume                      3855.09246823

loop_
_atom_site_label
_atom_site_type_symbol
_atom_site_description
_atom_site_fract_x
_atom_site_fract_y
_atom_site_fract_z
_atom_type_partial_charge
O1    O     O_R   0.214270 0.709000 0.827470 -0.535820
O2    O     O_R   0.785730 0.709000 0.172530 -0.539150
O3    O     O_R   0.714270 0.209000 0.827470 -0.544320
O4    O     O_R   0.285730 0.209000 0.172530 -0.536478
O5    O     O_R   0.236160 0.958490 0.823130 -0.509022
O6    O     O_R   0.763840 0.958490 0.176870 -0.512575
O7    O     O_R   0.736160 0.458490 0.823130 -0.502827
O8    O     O_R   0.263840 0.458490 0.176870 -0.508397
C1    C     C_R   0.273448 0.039946 0.854679 0.549205
C2    C     C_R   0.726539 0.039821 0.145270 0.558951
C3    C     C_R   0.790265 0.497489 0.861120 0.559484
C4    C     C_R   0.226352 0.539305 0.145104 0.547041
O9    O     O_R   0.332080 0.075470 0.831280 -0.520873
O10   O     O_R   0.667920 0.075470 0.168720 -0.497272
O11   O     O_R   0.832080 0.575470 0.831280 -0.507111
O12   O     O_R   0.167920 0.575470 0.168720 -0.521309
O13   O     O_R   0.446300 0.918110 0.826620 -0.513868
O14   O     O_R   0.553700 0.918110 0.173380 -0.507664
O15   O     O_R   0.946300 0.418110 0.826620 -0.525339
O16   O     O_R   0.053700 0.418110 0.173380 -0.511342
C5    C     C_R   0.471354 0.822101 0.855038 0.544766
C6    C     C_R   0.530099 0.821218 0.144077 0.537733
C7    C     C_R   0.971015 0.321835 0.855299 0.535021
C8    C     C_R   0.029625 0.321255 0.144394 0.544543
O17   O     O_R   0.457110 0.716200 0.831760 -0.484993
O18   O     O_R   0.542890 0.716200 0.168240 -0.512271
O19   O     O_R   0.957110 0.216200 0.831760 -0.488230
O20   O     O_R   0.042890 0.216200 0.168240 -0.491610
O21   O     O_R   0.320980 0.624310 0.823030 -0.441833
O22   O     O_R   0.679020 0.624310 0.176970 -0.433794
O23   O     O_R   0.820980 0.124310 0.823030 -0.436158
O24   O     O_R   0.179020 0.124310 0.176970 -0.440957
C9    C     C_R   0.261157 0.636230 0.851868 0.563614
C10   C     C_R   0.739932 0.633974 0.148758 0.582046
C11   C     C_R   0.761079 0.136141 0.851847 0.566352
C12   C     C_R   0.238785 0.136434 0.147994 0.565982
O25   O     O_R   0.213890 0.710430 0.665540 -0.526710
O26   O     O_R   0.786110 0.710430 0.334460 -0.502955
O27   O     O_R   0.713890 0.210430 0.665540 -0.502836
O28   O     O_R   0.286110 0.210430 0.334460 -0.526343
O29   O     O_R   0.235810 0.959820 0.673020 -0.524983
O30   O     O_R   0.764190 0.959820 0.326980 -0.538035
O31   O     O_R   0.735810 0.459820 0.673020 -0.532958
O32   O     O_R   0.264190 0.459820 0.326980 -0.525005
C13   C     C_R   0.269043 0.051499 0.648818 0.572581
C14   C     C_R   0.730709 0.051727 0.351902 0.559709
C15   C     C_R   0.769310 0.551724 0.648113 0.568695
C16   C     C_R   0.230978 0.551491 0.351194 0.572039
O33   O     O_R   0.331700 0.076900 0.669350 -0.446115
O34   O     O_R   0.668300 0.076900 0.330650 -0.451002
O35   O     O_R   0.831700 0.576900 0.669350 -0.450693
O36   O     O_R   0.168300 0.576900 0.330650 -0.445466
O37   O     O_R   0.445950 0.919440 0.676520 -0.498415
O38   O     O_R   0.554050 0.919440 0.323480 -0.505336
O39   O     O_R   0.945950 0.419440 0.676520 -0.505336
O40   O     O_R   0.054050 0.419440 0.323480 -0.497427
C17   C     C_R   0.467579 0.823052 0.645502 0.544046
C18   C     C_R   0.529406 0.823922 0.352531 0.530989
C19   C     C_R   0.970604 0.324011 0.647483 0.532231
C20   C     C_R   0.032474 0.323000 0.354529 0.544252
O41   O     O_R   0.456730 0.717630 0.669840 -0.524234
O42   O     O_R   0.543270 0.717630 0.330160 -0.530194
O43   O     O_R   0.956730 0.217630 0.669840 -0.529875
O44   O     O_R   0.043270 0.217630 0.330160 -0.525249
O45   O     O_R   0.320620 0.625640 0.672920 -0.481276
O46   O     O_R   0.679380 0.625640 0.327080 -0.459082
O47   O     O_R   0.820620 0.125640 0.672920 -0.460910
O48   O     O_R   0.179380 0.125640 0.327080 -0.481725
C21   C     C_R   0.262112 0.645856 0.640070 0.577878
C22   C     C_R   0.724688 0.692088 0.363256 0.570308
C23   C     C_R   0.775420 0.192066 0.636887 0.571800
C24   C     C_R   0.237876 0.145779 0.359944 0.579062
Cr1   Cr    Cr6+3 0.229630 0.835900 0.747350 1.021855
Cr2   Cr    Cr6+3 0.770370 0.835900 0.252650 1.021126
Cr3   Cr    Cr6+3 0.729630 0.335900 0.747350 1.019836
Cr4   Cr    Cr6+3 0.270370 0.335900 0.252650 1.023058
Cr5   Cr    Cr6+3 0.387410 0.989850 0.750850 1.064507
Cr6   Cr    Cr6+3 0.612590 0.989850 0.249150 1.067267
Cr7   Cr    Cr6+3 0.887410 0.489850 0.750850 1.049540
Cr8   Cr    Cr6+3 0.112590 0.489850 0.249150 1.065044
Cr9   Cr    Cr6+3 0.385800 0.677120 0.749340 1.087606
Cr10  Cr    Cr6+3 0.614200 0.677120 0.250660 1.093215
Cr11  Cr    Cr6+3 0.885800 0.177120 0.749340 1.085075
Cr12  Cr    Cr6+3 0.114200 0.177120 0.250660 1.086755
O49   O     O_3   0.334280 0.834290 0.749180 -0.275263
O50   O     O_3   0.665720 0.834290 0.250820 -0.298829
O51   O     O_3   0.834280 0.334290 0.749180 -0.313107
O52   O     O_3   0.165720 0.334290 0.250820 -0.275686
C25   C     C_3   0.461623 0.916096 0.029433 -0.145182
C26   C     C_3   0.519852 0.939128 0.973824 -0.130292
C27   C     C_3   0.966687 0.422915 0.029088 -0.146369
C28   C     C_3   0.025622 0.433178 0.973010 -0.142533
C29   C     C_3   0.432662 0.807585 0.984608 -0.081093
C30   C     C_3   0.570180 0.850159 0.014281 -0.115167
C31   C     C_3   0.930864 0.318561 0.985562 -0.095601
C32   C     C_3   0.070514 0.337137 0.014217 -0.103592
H1    H     H_    0.375630 0.791333 0.970675 0.134420
H2    H     H_    0.627151 0.865715 0.028578 0.121366
H3    H     H_    0.873174 0.310399 0.972075 0.122385
H4    H     H_    0.128225 0.343938 0.027956 0.127248
H5    H     H_    0.430264 0.985596 0.057481 0.114837
H6    H     H_    0.534446 0.028924 0.951140 0.104354
H7    H     H_    0.941234 0.499587 0.057044 0.121520
H8    H     H_    0.044325 0.519050 0.948638 0.108048
C33   C     C_3   0.491607 0.830096 0.930322 0.060690
C34   C     C_3   0.511199 0.827144 0.068371 0.042533
C35   C     C_3   0.990549 0.328600 0.930853 0.046425
C36   C     C_3   0.010782 0.326932 0.068769 0.045645
C37   C     C_3   0.541357 0.741560 0.969537 -0.108908
C38   C     C_3   0.482868 0.718554 0.024538 -0.081776
C39   C     C_3   0.034776 0.232722 0.970940 -0.073400
C40   C     C_3   0.975624 0.222570 0.026401 -0.060287
H9    H     H_    0.574901 0.673700 0.942207 0.118592
H10   H     H_    0.467173 0.628812 0.046713 0.138581
H11   H     H_    0.062277 0.155685 0.945083 0.141212
H12   H     H_    0.955248 0.136839 0.049942 0.152200
C41   C     C_R   0.310471 0.545046 0.965488 0.246003
C42   C     C_R   0.705997 0.498331 0.043763 0.269074
C43   C     C_R   0.809973 0.043631 0.965284 0.245861
C44   C     C_R   0.190284 0.042058 0.034638 0.249728
C45   C     C_R   0.303462 0.535076 0.039432 -0.123675
C46   C     C_R   0.719169 0.468343 0.971581 -0.137908
C47   C     C_R   0.803270 0.034003 0.039311 -0.130183
C48   C     C_R   0.197095 0.031288 0.960699 -0.127666
H13   H     H_    0.348297 0.505069 0.072274 0.122951
H14   H     H_    0.684269 0.406843 0.942060 0.127159
H15   H     H_    0.847675 0.001446 0.071860 0.123624
H16   H     H_    0.153212 0.995342 0.928435 0.125106
C49   C     C_R   0.239054 0.565346 0.070660 -0.014825
C50   C     C_R   0.777831 0.519196 0.936792 -0.019932
C51   C     C_R   0.739553 0.067092 0.070987 -0.006339
C52   C     C_R   0.260233 0.067539 0.928753 -0.012244
C53   C     C_R   0.180826 0.601760 0.027851 -0.176959
C54   C     C_R   0.827340 0.589176 0.975254 -0.174908
C55   C     C_R   0.681707 0.106341 0.028539 -0.150696
C56   C     C_R   0.317442 0.111020 0.970755 -0.170530
H17   H     H_    0.129272 0.620565 0.049999 0.140036
H18   H     H_    0.875054 0.623885 0.950941 0.134662
H19   H     H_    0.630566 0.127058 0.051011 0.154138
H20   H     H_    0.368232 0.134474 0.948213 0.137842
C57   C     C_R   0.187116 0.612115 0.955373 -0.196837
C58   C     C_R   0.816070 0.617536 0.045366 -0.200956
C59   C     C_R   0.687381 0.114827 0.955906 -0.201329
C60   C     C_R   0.311441 0.121729 0.043115 -0.200247
H21   H     H_    0.141637 0.645221 0.924608 0.134723
H22   H     H_    0.855141 0.676067 0.071777 0.138066
H23   H     H_    0.641772 0.148035 0.925340 0.131710
H24   H     H_    0.356427 0.159468 0.073066 0.136401
C61   C     C_R   0.252158 0.588950 0.923651 0.035037
C62   C     C_R   0.754720 0.577065 0.079670 0.049083
C63   C     C_R   0.751973 0.089380 0.923765 0.034214
C64   C     C_R   0.247705 0.091375 0.075755 0.035753
C65   C     C_R   0.476659 0.721650 0.530076 -0.126736
C66   C     C_R   0.481561 0.724882 0.457215 -0.133297
C67   C     C_R   0.018385 0.225122 0.542715 -0.133480
C68   C     C_R   0.023331 0.221805 0.469858 -0.126948
H25   H     H_    0.463735 0.634774 0.554051 0.154922
H26   H     H_    0.474731 0.640132 0.427886 0.150065
H27   H     H_    0.025092 0.140481 0.571942 0.150071
H28   H     H_    0.036171 0.134977 0.445793 0.154437
C69   C     C_R   0.500828 0.833192 0.423522 0.022943
C70   C     C_R   0.486202 0.828414 0.570821 0.027333
C71   C     C_R   0.013911 0.328418 0.429230 0.027159
C72   C     C_R   0.999224 0.333333 0.576519 0.023047
C73   C     C_R   0.508499 0.941656 0.463288 -0.120851
C74   C     C_R   0.500334 0.939456 0.536972 -0.118581
C75   C     C_R   0.999913 0.439413 0.463204 -0.118649
C76   C     C_R   0.991723 0.441680 0.536884 -0.120871
H29   H     H_    0.523893 0.026369 0.438146 0.170708
H30   H     H_    0.505657 0.023361 0.567316 0.165945
H31   H     H_    0.994702 0.523216 0.432960 0.166121
H32   H     H_    0.976435 0.526331 0.562122 0.170390
C77   C     C_R   0.211116 0.697536 0.523375 -0.117686
C78   C     C_R   0.776244 0.736509 0.482266 -0.120698
C79   C     C_R   0.724239 0.236701 0.517937 -0.121009
C80   C     C_R   0.289276 0.197329 0.476704 -0.117932
H33   H     H_    0.174645 0.759940 0.548302 0.167046
H34   H     H_    0.810837 0.802944 0.458187 0.154957
H35   H     H_    0.689790 0.302975 0.542123 0.154913
H36   H     H_    0.325929 0.259751 0.451826 0.167082
C81   C     C_R   0.212103 0.693973 0.449937 0.207343
C82   C     C_R   0.783399 0.712438 0.554884 0.211887
C83   C     C_R   0.717074 0.212626 0.445280 0.211133
C84   C     C_R   0.288397 0.193726 0.550158 0.207249
C85   C     C_R   0.255776 0.606918 0.417289 0.015668
C86   C     C_R   0.742773 0.616347 0.584361 0.008064
C87   C     C_R   0.757440 0.116648 0.415670 0.008749
C88   C     C_R   0.244444 0.106639 0.582722 0.015472
C89   C     C_R   0.309057 0.546867 0.457199 -0.186417
C90   C     C_R   0.685342 0.567211 0.544738 -0.177330
C91   C     C_R   0.814743 0.067754 0.455210 -0.177127
C92   C     C_R   0.190902 0.046546 0.542761 -0.186343
H37   H     H_    0.345577 0.484335 0.432434 0.151557
H38   H     H_    0.650489 0.499731 0.567649 0.152784
H39   H     H_    0.849425 0.000381 0.432202 0.152316
H40   H     H_    0.154204 0.983984 0.567472 0.151473
C93   C     C_R   0.310618 0.557359 0.530689 -0.134590
C94   C     C_R   0.676475 0.596731 0.472979 -0.117658
C95   C     C_R   0.823614 0.097230 0.527026 -0.118388
C96   C     C_R   0.189186 0.057254 0.469280 -0.133385
H41   H     H_    0.351644 0.510988 0.561363 0.209153
H42   H     H_    0.633721 0.553774 0.442348 0.203814
H43   H     H_    0.866198 0.054323 0.557604 0.203726
H44   H     H_    0.147871 0.011049 0.438573 0.209017
C97   C     C_R   0.258426 0.625775 0.564100 -0.007554
C98   C     C_R   0.725850 0.673769 0.440358 -0.024979
C99   C     C_R   0.774394 0.174040 0.559753 -0.024987
C100  C     C_R   0.241594 0.125660 0.435900 -0.007258
N1    N     N_R   0.164940 0.771876 0.409395 0.072205
O53   O     O_R   0.186120 0.822739 0.350800 -0.345763
O54   O     O_R   0.100718 0.792351 0.430954 -0.369831
N2    N     N_R   0.833423 0.782959 0.597164 0.084535
O55   O     O_R   0.815746 0.824050 0.659502 -0.313332
O56   O     O_R   0.893860 0.816411 0.570753 -0.370711
N3    N     N_R   0.667228 0.282892 0.403114 0.084457
O57   O     O_R   0.606739 0.315657 0.429470 -0.369788
O58   O     O_R   0.685044 0.324177 0.340895 -0.305132
N4    N     N_R   0.335823 0.271814 0.590791 0.072173
O59   O     O_R   0.314850 0.322592 0.649515 -0.345875
O60   O     O_R   0.399933 0.293108 0.568986 -0.369493
O61   O     O_3   0.376479 0.527765 0.936021 -0.555051
C101  C     C_3   0.390346 0.401703 0.932599 -0.114342
H45   H     H_    0.348096 0.352908 0.900966 0.142289
H46   H     H_    0.396503 0.361488 0.986877 0.089399
H47   H     H_    0.441362 0.388167 0.905108 0.137662
O62   O     O_3   0.650156 0.449202 0.082489 -0.532095
C102  C     C_3   0.590006 0.417632 0.039715 -0.107276
H48   H     H_    0.598153 0.329141 0.012429 0.099201
H49   H     H_    0.575985 0.489719 0.000421 0.105046
H50   H     H_    0.543796 0.406419 0.074902 0.143508
O63   O     O_3   0.875236 0.022197 0.935092 -0.550740
C103  C     C_3   0.887251 0.895393 0.933217 -0.103464
H51   H     H_    0.842867 0.846313 0.904863 0.145920
H52   H     H_    0.895826 0.858026 0.987892 0.090917
H53   H     H_    0.936449 0.878270 0.903258 0.144274
O64   O     O_3   0.125258 0.018581 0.064949 -0.551469
C104  C     C_3   0.115118 0.891346 0.068546 -0.106692
H54   H     H_    0.159670 0.846336 0.098572 0.139100
H55   H     H_    0.108269 0.850815 0.014334 0.097776
H56   H     H_    0.065567 0.872947 0.097753 0.142053

loop_
_geom_bond_atom_site_label_1
_geom_bond_atom_site_label_2
_geom_bond_distance
_ccdc_geom_bond_type
O7    Cr3   1.954029 S    
C18   O42   1.267230 A    
C16   C85   1.444320 S    
Cr11  O51   1.978534 S    
O4    C12   1.263443 A    
C53   H17   1.083216 S    
C73   C74   1.392303 A    
O39   C19   1.271798 A    
O20   Cr12  2.065748 S    
O29   C13   1.271116 A    
C58   H22   1.083224 S    
C66   C69   1.395911 A    
C41   O61   1.383122 S    
C39   C40   1.543323 S    
C28   C32   1.546554 S    
C41   C61   1.417466 A    
C60   H24   1.083638 S    
Cr6   O50   1.978281 S    
C78   C82   1.389121 A    
O26   C22   1.300805 A    
C10   C62   1.468357 S    
O1    C9    1.267780 A    
C24   C100  1.439845 S    
C42   O62   1.396794 S    
O7    C3    1.297543 A    
C80   H36   1.082946 S    
C81   C85   1.408849 A    
C82   N2    1.437023 S    
O36   Cr8   2.060820 S    
C69   C73   1.406784 A    
C59   C63   1.396456 A    
C92   H40   1.083052 S    
C46   C50   1.407763 A    
C25   H5    1.104449 S    
C91   C95   1.388664 A    
C66   H26   1.083927 S    
C65   C70   1.404437 A    
C51   C55   1.400295 A    
C31   C40   1.541499 S    
N3    O58   1.301530 A    
C42   C46   1.418383 A    
C31   H3    1.110383 S    
C1    C52   1.446805 S    
C82   C86   1.418892 A    
O46   Cr10  1.946528 S    
C30   H2    1.109753 S    
O21   C9    1.265848 A    
O8    Cr4   1.957705 S    
C20   C71   1.451082 S    
O23   Cr11  1.949846 S    
O64   C104  1.408589 S    
C48   C52   1.398252 A    
C81   N1    1.437089 S    
O30   C14   1.282525 A    
C34   C38   1.531313 S    
C42   C62   1.413509 A    
C1    O9    1.256333 A    
C2    C51   1.449696 S    
O44   Cr12  2.070643 S    
O25   Cr1   2.072200 S    
C19   C72   1.449257 S    
C29   C33   1.540947 S    
C45   H13   1.083344 S    
C70   C74   1.400562 A    
C3    O11   1.295456 A    
O41   Cr9   2.069780 S    
O11   Cr7   2.075453 S    
C17   C70   1.451091 S    
C4    O12   1.258542 A    
C68   C71   1.404617 A    
O28   Cr4   2.076744 S    
C43   O63   1.383339 S    
C25   C34   1.524862 S    
C94   H42   1.081881 S    
C93   H41   1.079178 S    
C8    C36   1.452996 S    
O6    Cr2   1.957705 S    
C7    O19   1.262328 A    
C14   C87   1.466468 S    
O3    Cr3   2.072061 S    
Cr4   O52   1.965894 S    
C87   C91   1.400469 A    
O2    Cr2   2.070113 S    
C56   H20   1.083157 S    
C29   C38   1.541240 S    
C48   H16   1.083165 S    
C32   C36   1.539748 S    
C36   C40   1.529954 S    
O2    C10   1.261112 A    
C84   N4    1.437228 S    
O42   Cr10  2.070643 S    
C60   C64   1.397117 A    
C77   C81   1.376362 A    
C96   C100  1.396002 A    
C78   H34   1.080724 S    
Cr8   O52   1.978281 S    
C25   C29   1.544456 S    
C50   C54   1.390526 A    
C11   C63   1.455540 S    
C95   H43   1.081894 S    
O34   Cr6   2.060820 S    
Cr7   O51   1.972518 S    
Cr9   O49   1.978534 S    
C26   C30   1.546861 S    
C90   H38   1.082208 S    
C84   C88   1.409166 A    
C73   H29   1.083225 S    
O24   Cr12  1.950916 S    
C32   C39   1.543634 S    
O9    Cr5   2.075453 S    
C44   C64   1.415564 A    
O30   Cr2   1.948869 S    
C4    C49   1.448764 S    
O22   C10   1.276289 A    
C57   C61   1.395570 A    
O48   Cr12  1.946528 S    
C8    O20   1.259014 A    
C72   C76   1.406926 A    
C95   C99   1.403693 A    
N1    O53   1.301829 A    
C93   C97   1.395825 A    
C2    O10   1.258707 A    
C45   C49   1.397460 A    
C75   C76   1.392265 A    
O16   Cr8   1.941886 S    
C12   C64   1.453083 S    
C92   C96   1.380903 A    
C15   O35   1.258427 A    
C101  H47   1.109270 S    
Cr10  O50   1.972963 S    
C53   C57   1.370152 A    
C67   H27   1.083927 S    
C103  H53   1.109244 S    
O13   C5    1.266803 A    
O40   C20   1.276686 A    
C44   C48   1.398493 A    
O48   C24   1.265284 A    
O12   Cr8   2.074533 S    
C46   H14   1.080879 S    
O15   C7    1.268959 A    
N3    O57   1.301391 A    
O5    C1    1.269250 A    
O61   C101  1.408308 S    
C83   C87   1.418705 A    
C96   H44   1.079200 S    
C54   C58   1.370395 A    
O39   Cr7   1.954239 S    
O25   C21   1.254313 A    
C28   C35   1.529055 S    
C47   H15   1.083121 S    
C102  H48   1.108212 S    
O3    C11   1.267256 A    
C71   C75   1.400434 A    
C52   C56   1.398549 A    
C7    C35   1.454862 S    
C83   N3    1.436917 S    
C103  H52   1.111694 S    
C13   O33   1.259803 A    
C6    C34   1.454836 S    
C79   C99   1.394022 A    
O47   Cr11  1.942860 S    
Cr2   O50   1.965894 S    
C15   C86   1.466916 S    
O15   Cr7   1.946670 S    
C37   H9    1.108912 S    
O35   Cr7   2.066269 S    
Cr1   O49   1.966012 S    
C31   C35   1.540958 S    
C85   C89   1.401363 A    
C49   C53   1.400222 A    
Cr3   O51   1.966012 S    
O14   Cr6   1.941886 S    
C102  H49   1.108533 S    
N2    O56   1.301394 A    
O21   Cr9   1.949846 S    
C74   H30   1.083219 S    
O27   Cr3   2.072200 S    
C104  H55   1.111963 S    
C79   H35   1.080662 S    
O37   Cr5   1.954239 S    
O23   C11   1.266873 A    
C19   O43   1.267733 A    
O38   Cr6   1.953136 S    
C41   C45   1.398587 A    
C3    C50   1.461073 S    
C29   H1    1.110555 S    
C38   H10   1.109913 S    
C40   H12   1.109359 S    
C90   C94   1.388990 A    
O31   Cr3   1.951438 S    
C79   C83   1.388864 A    
O38   C18   1.271563 A    
C76   H32   1.083224 S    
C89   C93   1.380482 A    
C80   C84   1.376711 A    
C5    O17   1.264594 A    
C101  H46   1.112175 S    
O37   C17   1.276941 A    
O22   Cr10  1.950916 S    
O28   C24   1.252555 A    
C47   C51   1.397585 A    
O14   C6    1.268274 A    
C35   C39   1.528509 S    
C27   C36   1.524357 S    
O5    Cr1   1.954029 S    
Cr12  O52   1.972963 S    
C26   C33   1.531294 S    
C27   H7    1.105499 S    
O17   Cr9   2.062891 S    
C54   H18   1.083411 S    
C75   H31   1.083216 S    
O24   C12   1.265661 A    
C13   C88   1.444837 S    
C17   O41   1.260392 A    
C68   H28   1.082625 S    
C43   C47   1.399194 A    
C67   C72   1.395720 A    
C22   C98   1.457774 S    
O26   Cr2   2.076744 S    
C14   O34   1.260808 A    
C30   C37   1.543514 S    
C21   C97   1.439256 S    
O40   Cr8   1.953136 S    
C88   C92   1.401288 A    
N4    O60   1.301771 A    
C20   O44   1.259804 A    
C55   H19   1.082932 S    
O1    Cr1   2.072061 S    
C80   C100  1.401388 A    
O19   Cr11  2.062891 S    
C25   C26   1.548994 S    
C59   H23   1.083314 S    
C56   C60   1.367389 A    
O32   C16   1.273032 A    
C26   H6    1.108679 S    
C37   C38   1.544662 S    
C44   O64   1.383195 S    
C39   H11   1.108088 S    
O13   Cr5   1.946670 S    
C58   C62   1.404144 A    
N4    O59   1.301835 A    
O46   C22   1.296346 A    
C33   C37   1.526339 S    
Cr5   O49   1.972518 S    
C67   C68   1.370240 A    
O45   C21   1.267118 A    
C32   H4    1.110690 S    
C55   C59   1.370243 A    
C57   H21   1.082956 S    
N1    O54   1.301770 A    
C9    C61   1.454914 S    
O33   Cr5   2.066269 S    
O47   C23   1.297913 A    
O10   Cr6   2.074533 S    
C65   H25   1.082616 S    
C101  H45   1.113821 S    
C91   H39   1.082206 S    
O4    Cr4   2.070113 S    
C43   C63   1.416894 A    
C30   C34   1.539837 S    
O6    C2    1.273425 A    
C28   H8    1.106484 S    
O29   Cr1   1.951438 S    
C89   H37   1.083061 S    
C16   O36   1.262240 A    
C102  H50   1.109248 S    
C23   C99   1.457311 S    
N2    O55   1.301531 A    
C27   C31   1.546207 S    
O18   Cr10  2.065748 S    
O62   C102  1.411253 S    
C6    O18   1.259063 A    
C104  H56   1.109235 S    
O43   Cr11  2.069780 S    
O63   C103  1.409077 S    
C78   C98   1.394059 A    
O27   C23   1.302409 A    
O45   Cr9   1.942860 S    
C94   C98   1.403764 A    
C77   C97   1.401494 A    
C86   C90   1.400485 A    
O32   Cr4   1.948869 S    
C77   H33   1.082923 S    
C104  H54   1.114083 S    
C18   C69   1.449346 S    
O31   C15   1.280486 A    
O16   C8    1.268467 A    
C5    C33   1.453869 S    
C27   C28   1.548407 S    
O8    C4    1.272783 A    
C103  H51   1.114235 S    
C65   C66   1.370308 A    
