data_str_m2_o10_o29_f0_pcu.sym.22
_audit_creation_date              2012-10-26T20:17:36-0400
_audit_creation_method            fapswitch 2.2
_symmetry_space_group_name_H-M    P1
_symmetry_Int_Tables_number       1
_space_group_crystal_system       triclinic
_cell_length_a                    27.766809
_cell_length_b                    8.701817
_cell_length_c                    7.477044
_cell_angle_alpha                 102.457812
_cell_angle_beta                  95.139429
_cell_angle_gamma                 93.116716
_cell_volume                      1751.93566552

loop_
_atom_site_label
_atom_site_type_symbol
_atom_type_description
_atom_site_fract_x
_atom_site_fract_y
_atom_site_fract_z
_atom_type_partial_charge
C1    C     C_R   0.496860 0.200473 0.454581 0.535844
C2    C     C_R   0.870597 0.362901 0.526729 0.021708
C3    C     C_R   0.354683 0.498223 0.503209 -0.041238
C4    C     C_R   0.645324 0.498541 0.497137 -0.038698
C5    C     C_R   0.972983 0.363251 0.535228 0.018104
C6    C     C_R   0.027157 0.630037 0.469087 0.018146
C7    C     C_R   0.975847 0.628953 0.466032 0.019684
C8    C     C_R   0.024287 0.364241 0.538023 0.019626
C9    C     C_R   0.949106 0.495546 0.499058 0.034617
C10   C     C_R   0.051026 0.497638 0.504966 0.034523
C11   C     C_R   0.944381 0.233954 0.567369 -0.147211
C12   C     C_R   0.502461 0.799490 0.545416 0.546907
C13   C     C_R   0.055766 0.759457 0.437276 -0.147149
C14   C     C_R   0.894315 0.233895 0.562369 -0.121583
C15   C     C_R   0.105823 0.759402 0.441936 -0.121681
C16   C     C_R   0.407558 0.499247 0.500937 0.507599
C17   C     C_R   0.592445 0.499759 0.499046 0.511830
C18   C     C_R   0.050098 0.235787 0.572541 -0.144203
C19   C     C_R   0.950026 0.757240 0.431042 -0.144846
C20   C     C_2   0.489417 0.033192 0.432903 0.228662
C21   C     C_2   0.508379 0.966467 0.567287 0.220853
C22   C     C_R   0.177069 0.369320 0.536978 0.396816
C23   C     C_R   0.102327 0.498502 0.507385 -0.024441
C24   C     C_R   0.822998 0.623044 0.464632 0.387249
C25   C     C_R   0.180097 0.628962 0.480839 0.427096
C26   C     C_R   0.819999 0.363811 0.521961 0.431857
C27   C     C_R   0.284308 0.537830 0.673001 -0.128533
C28   C     C_R   0.715981 0.466490 0.327725 -0.127655
C29   C     C_R   0.334370 0.537365 0.671088 -0.177060
C30   C     C_R   0.665941 0.469232 0.329347 -0.179123
C31   C     C_R   0.324079 0.458504 0.337279 -0.158786
C32   C     C_R   0.675663 0.525966 0.663484 -0.152096
C33   C     C_R   0.273535 0.455317 0.339011 0.324564
C34   C     C_R   0.897792 0.494503 0.496130 -0.025120
C35   C     C_R   0.726103 0.526505 0.662233 0.322179
C36   C     C_R   0.254022 0.498693 0.507555 0.267850
C37   C     C_R   0.745988 0.493667 0.493569 0.265242
C38   C     C_3   0.420916 0.289343 0.960314 0.062012
C39   C     C_3   0.395723 0.161847 0.802564 -0.389804
C40   C     C_3   0.578339 0.714788 0.037864 0.067438
C41   C     C_3   0.603605 0.839401 0.198520 -0.387993
C42   C     C_3   0.250080 0.270953 0.068786 -0.012263
C43   C     C_3   0.201312 0.189024 0.979748 -0.321882
C44   C     C_3   0.753481 0.704467 0.931780 -0.013380
C45   C     C_R   0.126575 0.367369 0.539262 0.020639
C46   C     C_3   0.804223 0.773062 0.013987 -0.322289
C47   C     C_3   0.415832 0.972673 0.253423 -0.009201
C48   C     C_3   0.385641 0.845921 0.314948 -0.367776
C49   C     C_3   0.582882 0.060404 0.714602 0.001132
C50   C     C_3   0.609125 0.174259 0.882722 -0.334217
C51   C     C_R   0.873524 0.625336 0.463430 0.017876
C52   C     C_R   0.100081 0.237334 0.572051 -0.131906
C53   C     C_R   0.900025 0.755428 0.430800 -0.133608
C54   C     C_R   0.129522 0.630150 0.476869 0.022849
Cu1   Cu    Cu3+1 0.505380 0.517380 0.684380 1.050127
Cu2   Cu    Cu3+1 0.494620 0.482620 0.315620 1.048477
H1    H     H_    0.339174 0.429929 0.206639 0.096487
H2    H     H_    0.125922 0.861367 0.416360 0.166925
H3    H     H_    0.959271 0.129878 0.597587 0.104172
H4    H     H_    0.040888 0.863710 0.407557 0.104009
H5    H     H_    0.033001 0.130973 0.600647 0.101778
H6    H     H_    0.967119 0.862045 0.402898 0.101989
H7    H     H_    0.400458 0.396985 0.969930 0.110397
H8    H     H_    0.419866 0.246253 0.088756 0.151260
H9    H     H_    0.415137 0.052276 0.789077 0.165990
H10   H     H_    0.357793 0.135650 0.829482 0.084571
H11   H     H_    0.395221 0.202354 0.671471 0.151824
H12   H     H_    0.660544 0.547235 0.794355 0.102189
H13   H     H_    0.578668 0.762451 0.912107 0.163303
H14   H     H_    0.599279 0.607959 0.022838 0.099968
H15   H     H_    0.605081 0.794348 0.326853 0.146615
H16   H     H_    0.641179 0.869210 0.170384 0.090243
H17   H     H_    0.583573 0.947869 0.218393 0.162018
H18   H     H_    0.267889 0.190728 0.148258 0.126361
H19   H     H_    0.272926 0.288336 0.958963 0.145518
H20   H     H_    0.181170 0.267448 0.906036 0.190881
H21   H     H_    0.206790 0.078016 0.880611 0.143936
H22   H     H_    0.179422 0.160493 0.087206 0.163096
H23   H     H_    0.117965 0.135860 0.598970 0.148791
H24   H     H_    0.730840 0.696528 0.045213 0.147488
H25   H     H_    0.737653 0.788603 0.853117 0.130328
H26   H     H_    0.826311 0.791530 0.902594 0.160987
H27   H     H_    0.802244 0.888082 0.111341 0.143834
H28   H     H_    0.822112 0.690693 0.088379 0.186754
H29   H     H_    0.403969 0.966222 0.106052 0.151025
H30   H     H_    0.407595 0.091359 0.330584 0.084653
H31   H     H_    0.396835 0.846556 0.461424 0.137773
H32   H     H_    0.346680 0.868683 0.300223 0.118744
H33   H     H_    0.390433 0.728352 0.227805 0.180316
H34   H     H_    0.882128 0.856720 0.403349 0.150496
H35   H     H_    0.591484 0.103684 0.590253 0.110068
H36   H     H_    0.596715 0.941698 0.706894 0.101789
H37   H     H_    0.648793 0.179809 0.872141 0.100267
H38   H     H_    0.596341 0.294138 0.891477 0.174724
H39   H     H_    0.601932 0.134353 0.009810 0.157710
H40   H     H_    0.643460 0.447117 0.199369 0.125366
H41   H     H_    0.357117 0.569686 0.800789 0.133343
H42   H     H_    0.731524 0.442929 0.197657 0.149212
H43   H     H_    0.268955 0.569242 0.802972 0.145223
H44   H     H_    0.874221 0.131969 0.588071 0.167278
N1    N     N_R   0.202626 0.499707 0.510538 -0.370488
N2    N     N_R   0.797426 0.492736 0.491288 -0.372231
N3    N     N_2   0.486510 0.456430 0.038510 0.093401
N4    N     N_2   0.513490 0.543570 0.961490 0.088982
O1    O     O_R   0.503500 0.286120 0.619780 -0.438444
O2    O     O_2   0.799595 0.750430 0.441483 -0.520832
O3    O     O_2   0.793522 0.237323 0.548302 -0.477499
O4    O     O_2   0.206588 0.755374 0.454357 -0.484835
O5    O     O_3   0.469141 0.318594 0.926264 -0.414007
O6    O     O_3   0.530434 0.682057 0.073449 -0.413354
O7    O     O_3   0.242274 0.419970 0.178078 -0.546346
O8    O     O_3   0.756667 0.550959 0.824014 -0.548370
O9    O     O_3   0.465626 0.943612 0.268542 -0.522755
O10   O     O_3   0.532555 0.054606 0.730955 -0.524615
O11   O     O_R   0.496500 0.713880 0.380220 -0.434165
O12   O     O_R   0.494410 0.256780 0.308360 -0.492781
O13   O     O_R   0.505590 0.743220 0.691640 -0.489376
O14   O     O_R   0.434810 0.514700 0.655690 -0.496540
O15   O     O_R   0.565190 0.485300 0.344310 -0.500727
O16   O     O_R   0.425720 0.485350 0.344280 -0.561091
O17   O     O_R   0.574280 0.514650 0.655720 -0.560742
O18   O     O_2   0.200460 0.241616 0.558919 -0.520643

loop_
_geom_bond_atom_site_label_1
_geom_bond_atom_site_label_2
_ccdc_geom_bond_type
Cu1   Cu2   S    
Cu1   O17   S    
C23   C45   A    
C27   C29   A    
Cu2   O16   S    
C25   N1    A    
C39   H10   S    
C18   C52   A    
C13   H4    S    
C43   H22   S    
C27   H43   S    
C42   H19   S    
C22   N1    A    
C40   H14   S    
Cu1   O1    S    
C47   H29   S    
C35   C37   A    
C5    C11   A    
C16   O16   A    
C37   N2    S    
C11   C14   A    
C50   H39   S    
C19   H6    S    
C33   C36   A    
C7    C9    A    
C3    C29   A    
C30   H40   S    
C46   H26   S    
C18   H5    S    
C48   H32   S    
C33   O7    S    
C1    O12   A    
C52   H23   S    
C32   H12   S    
C12   O11   A    
C19   C53   A    
C24   C51   A    
C49   O10   S    
C39   H9    S    
C49   H35   S    
C11   H3    S    
C44   C46   S    
C22   O18   S    
C38   H8    S    
Cu2   O12   S    
C42   H18   S    
C40   H13   S    
C32   C35   A    
C44   H24   S    
C25   C54   A    
C44   H25   S    
C50   H38   S    
C40   O6    S    
C45   C52   A    
Cu1   N4    S    
C8    C18   A    
C46   H27   S    
C36   N1    S    
C51   C53   A    
C42   O7    S    
C47   H30   S    
C5    C9    A    
C41   H15   S    
C16   O14   A    
C47   C48   S    
C31   C33   A    
C34   C51   A    
C48   H31   S    
C2    C26   A    
C38   O5    S    
C3    C31   A    
C15   C54   A    
C4    C32   A    
C35   O8    S    
C41   H16   S    
C46   H28   S    
C4    C17   S    
C44   O8    S    
C17   O17   A    
C40   C41   S    
C7    C19   A    
C48   H33   S    
C13   C15   A    
C9    C34   A    
C10   C23   A    
C15   H2    S    
C24   O2    S    
C42   C43   S    
C49   H36   S    
N3    N4    D    
C23   C54   A    
C38   H7    S    
Cu1   O13   S    
C28   H42   S    
C43   H20   S    
C47   O9    S    
C1    C20   S    
C39   H11   S    
Cu2   N3    S    
C21   O10   S    
C26   O3    S    
C6    C10   A    
C5    C8    A    
C50   H37   S    
C14   H44   S    
C6    C7    A    
C27   C36   A    
C43   H21   S    
C29   H41   S    
N3    O5    S    
C31   H1    S    
C28   C30   A    
C26   N2    A    
C6    C13   A    
N4    O6    S    
C2    C34   A    
C38   C39   S    
C28   C37   A    
C12   C21   S    
Cu2   O15   S    
Cu2   O11   S    
C24   N2    A    
C20   O9    S    
C2    C14   A    
C17   O15   A    
C41   H17   S    
C12   O13   A    
C22   C45   A    
C20   C21   D    
C8    C10   A    
C49   C50   S    
C53   H34   S    
C4    C30   A    
C3    C16   S    
C25   O4    S    
C1    O1    A    
Cu1   O14   S    
