data_str_m3_o1_o14_f0_pcu.sym.117
_audit_creation_date              2013-03-05T16:09:55-0500
_audit_creation_method            fapswitch 2.2
_symmetry_space_group_name_H-M    P1
_symmetry_Int_Tables_number       1
_space_group_crystal_system       triclinic
_cell_length_a                    10.664208
_cell_length_b                    9.914965
_cell_length_c                    10.630835
_cell_angle_alpha                 89.707184
_cell_angle_beta                  90.401062
_cell_angle_gamma                 89.992526
_cell_volume                      1124.01175422

loop_
_atom_site_label
_atom_site_type_symbol
_atom_site_description
_atom_site_fract_x
_atom_site_fract_y
_atom_site_fract_z
_atom_type_partial_charge
O1    O     O_R   0.316770 0.614620 0.499990 -0.621312
O2    O     O_R   0.683230 0.614620 0.500010 -0.627021
O3    O     O_R   0.316800 0.385290 0.500000 -0.618219
O4    O     O_R   0.683200 0.385290 0.500000 -0.621435
C1    C     C_R   0.260524 0.499940 0.505579 0.876916
C2    C     C_R   0.739577 0.499718 0.505413 0.934477
O5    O     O_R   0.500010 0.614690 0.316770 -0.641189
O6    O     O_R   0.499990 0.614690 0.683230 -0.651363
O7    O     O_R   0.500040 0.385360 0.316770 -0.611907
O8    O     O_R   0.499960 0.385360 0.683230 -0.612329
C3    C     C_R   0.489194 0.500568 0.259795 0.926705
C4    C     C_R   0.514035 0.500142 0.739442 0.921787
Zn1   Zn    Zn3+2 0.500000 0.653120 0.500000 0.953949
Zn2   Zn    Zn3+2 0.500000 0.346880 0.500000 1.018928
H1    H     H_    0.494804 0.285082 0.113444 0.260748
H2    H     H_    0.522261 0.284886 0.888005 0.268281
C5    C     C_R   0.418748 0.744395 0.095355 -0.179488
C6    C     C_R   0.592782 0.743985 0.897037 -0.194176
C7    C     C_R   0.453565 0.866841 0.036426 0.309286
C8    C     C_R   0.557554 0.866666 0.953769 0.303381
C9    C     C_R   0.536251 0.623246 0.940118 -0.003962
C10   C     C_R   0.477521 0.623782 0.056359 -0.003350
C11   C     C_R   0.478555 0.501510 0.124877 -0.075452
C12   C     C_R   0.533169 0.500876 0.873351 -0.042512
C13   C     C_R   0.497306 0.379613 0.063505 -0.116478
C14   C     C_R   0.518507 0.379306 0.936849 -0.073759
C15   C     C_R   0.066781 0.404830 0.595175 -0.092758
C16   C     C_R   0.935306 0.403958 0.594299 -0.036690
C17   C     C_R   0.872190 0.499630 0.517451 -0.051439
C18   C     C_R   0.128086 0.500398 0.518034 -0.102411
C19   C     C_R   0.935662 0.597346 0.448628 -0.188308
C20   C     C_R   0.063240 0.597949 0.449236 -0.104501
H3    H     H_    0.886318 0.671022 0.390994 0.167040
H4    H     H_    0.111397 0.672845 0.392970 0.190084
C21   C     C_R   0.569069 0.072124 0.414604 0.014408
C22   C     C_R   0.430930 0.071224 0.585387 0.046953
H5    H     H_    0.624394 0.126255 0.345946 0.159537
H6    H     H_    0.375794 0.124623 0.654151 0.172890
C23   C     C_R   0.568822 0.928753 0.414392 -0.072321
C24   C     C_R   0.431189 0.927856 0.585618 -0.060943
H7    H     H_    0.623870 0.875324 0.345520 0.147808
H8    H     H_    0.376201 0.873726 0.654558 0.157676
N1    N     N_R   0.500000 0.857200 0.500000 -0.119726
N2    N     N_R   0.500000 0.142810 0.500000 -0.103132
C25   C     C_2   0.311746 0.740266 0.184293 0.592043
H9    H     H_    0.292121 0.825658 0.244413 0.104504
O9    O     O_2   0.243212 0.641775 0.189414 -0.593374
C26   C     C_2   0.695772 0.741052 0.803268 0.620741
H10   H     H_    0.711378 0.826627 0.741361 0.098152
O10   O     O_2   0.765425 0.643774 0.795809 -0.542924
S1    S     S_3+6 0.354862 0.010318 0.049829 0.019181
O11   O     O_2   0.380733 0.078463 0.173164 -0.344917
O12   O     O_2   0.375790 0.106571 0.942795 -0.292984
O13   O     O_3   0.203591 0.962188 0.045450 -0.542733
H11   H     H_    0.155063 0.046156 0.058203 0.399442
S2    S     S_3+6 0.654741 0.010813 0.936029 0.016209
O14   O     O_2   0.624481 0.078885 0.812980 -0.340675
O15   O     O_2   0.636001 0.106429 0.043063 -0.295036
O16   O     O_3   0.806502 0.964289 0.936070 -0.550034
H12   H     H_    0.853351 0.047339 0.914189 0.398662
C27   C     C_2   0.141213 0.318004 0.683496 0.430635
H13   H     H_    0.227476 0.356431 0.724588 0.082226
O17   O     O_2   0.110120 0.202524 0.708268 -0.577550
C28   C     C_2   0.864956 0.310204 0.677703 0.514660
H14   H     H_    0.885164 0.203103 0.677859 0.117055
O18   O     O_2   0.783887 0.352518 0.747652 -0.517961

loop_
_geom_bond_atom_site_label_1
_geom_bond_atom_site_label_2
_geom_bond_distance
_ccdc_geom_bond_type
O13   H11   0.990628 S    
C21   C23   1.421539 A    
O7    Zn2   1.982990 S    
C19   H3    1.084779 S    
O6    Zn1   1.982894 S    
C18   C20   1.390737 A    
C6    C9    1.415897 A    
C4    C12   1.436756 S    
C5    C10   1.415385 A    
S2    O16   1.682802 S    
C8    S2    1.775603 S    
O6    C4    1.288876 A    
S1    O13   1.682741 S    
C28   H14   1.083520 S    
C6    C26   1.488763 S    
Zn1   N1    2.023446 S    
C22   H6    1.081824 S    
C13   C14   1.366888 A    
O16   H12   0.990728 S    
C17   C19   1.389966 A    
C19   C20   1.360499 A    
C9    C10   1.389335 A    
C15   C18   1.413331 A    
O5    C3    1.290952 A    
C21   N2    1.368796 A    
O7    C3    1.294973 A    
C12   C14   1.387885 A    
O2    C2    1.288773 A    
O3    Zn2   1.990407 S    
O8    C4    1.296364 A    
O1    C1    1.286930 A    
C16   C28   1.488001 S    
C26   O10   1.220540 D    
C16   C17   1.415801 A    
C5    C7    1.414160 A    
S2    O15   1.499195 D    
C6    C8    1.412442 A    
C11   C13   1.391467 A    
O4    Zn2   1.990504 S    
C27   H13   1.085547 S    
C22   N2    1.368654 A    
O4    C2    1.285436 A    
O1    Zn1   1.990988 S    
C9    C12   1.409056 A    
S1    O12   1.499278 D    
S1    O11   1.501926 D    
C7    S1    1.776443 S    
O5    Zn1   1.986718 S    
C2    C17   1.419092 S    
S2    O14   1.501950 D    
C23   H7    1.082230 S    
H1    C13   1.075251 S    
Zn2   N2    2.023348 S    
C1    C18   1.419468 S    
O8    Zn2   1.986816 S    
C25   O9    1.221036 D    
C3    C11   1.437963 S    
C15   C16   1.402076 A    
C27   O17   1.220046 D    
O2    Zn1   1.990889 S    
C10   C11   1.411130 A    
C26   H10   1.084711 S    
C22   C24   1.421472 A    
C23   N1    1.368613 A    
C15   C27   1.494616 S    
C21   H5    1.082128 S    
C20   H4    1.082971 S    
C25   H9    1.084659 S    
C24   N1    1.368738 A    
C7    C8    1.419712 A    
C5    C25   1.487419 S    
C24   H8    1.082184 S    
O3    C1    1.287203 A    
H2    C14   1.073727 S    
C28   O18   1.220040 D    
