data_str_m2_o4_o5_f0_pcu.sym.205
_audit_creation_date              2012-12-10T19:08:07-0500
_audit_creation_method            fapswitch 2.2
_symmetry_space_group_name_H-M    P1
_symmetry_Int_Tables_number       1
_space_group_crystal_system       triclinic
_cell_length_a                    9.067918
_cell_length_b                    10.850015
_cell_length_c                    9.581647
_cell_angle_alpha                 89.714811
_cell_angle_beta                  89.277112
_cell_angle_gamma                 91.579629
_cell_volume                      942.263322475

loop_
_atom_site_label
_atom_site_type_symbol
_atom_type_description
_atom_site_fract_x
_atom_site_fract_y
_atom_site_fract_z
_atom_type_partial_charge
C1    C     C_R   0.496594 0.262591 0.500134 0.795966
C2    C     C_R   0.432943 0.937267 0.377058 0.065467
C3    C     C_R   0.478157 0.870975 0.497554 -0.148924
C4    C     C_R   0.520420 0.935594 0.617256 0.101660
C5    C     C_3   0.445041 0.931108 0.757547 -0.452165
C6    C     C_3   0.451568 0.070047 0.757673 -0.470809
C7    C     C_R   0.623354 0.535554 0.071181 0.249155
C8    C     C_R   0.389017 0.444790 0.078698 -0.091677
C9    C     C_R   0.387340 0.442952 0.930434 0.200040
C10   C     C_R   0.623529 0.535161 0.924859 0.225168
C11   C     C_3   0.710799 0.653093 0.915899 -0.498390
C12   C     C_R   0.220794 0.499950 0.500467 0.829314
C13   C     C_3   0.710114 0.654239 0.075060 -0.501308
C14   C     C_R   0.490084 0.737182 0.499430 0.786940
C15   C     C_R   0.779217 0.500355 0.499479 0.859448
C16   C     C_1   0.065601 0.500250 0.500557 -0.217916
C17   C     C_1   0.934442 0.500376 0.499190 -0.209633
C18   C     C_R   0.525183 0.063031 0.618036 0.128124
C19   C     C_R   0.491467 0.129295 0.498806 -0.130608
C20   C     C_R   0.448577 0.066389 0.377823 -0.222815
Cu1   Cu    Cu3+1 0.499990 0.499980 0.640670 0.925194
Cu2   Cu    Cu3+1 0.500010 0.500020 0.359330 0.926915
H1    H     H_    0.420535 0.119378 0.286650 0.158633
H2    H     H_    0.648304 0.728169 0.868468 0.209539
H3    H     H_    0.821456 0.642645 0.119710 0.199685
H4    H     H_    0.647756 0.731026 0.120181 0.203061
H5    H     H_    0.330682 0.891635 0.753115 0.200102
H6    H     H_    0.513779 0.891976 0.840522 0.191312
H7    H     H_    0.340638 0.110865 0.753339 0.187194
H8    H     H_    0.526079 0.109675 0.838126 0.196471
H9    H     H_    0.302396 0.398344 0.138907 0.161946
H10   H     H_    0.822351 0.640374 0.869642 0.202053
N1    N     N_R   0.500920 0.500930 0.147930 -0.205176
N2    N     N_R   0.500930 0.500890 0.852020 -0.206082
O1    O     O_R   0.500000 0.319640 0.618810 -0.597063
O2    O     O_R   0.500020 0.319680 0.381230 -0.586685
O3    O     O_R   0.288380 0.499980 0.618770 -0.597602
O4    O     O_R   0.288400 0.500020 0.381190 -0.585663
O5    O     O_R   0.499980 0.680320 0.618770 -0.572074
O6    O     O_R   0.500000 0.680360 0.381190 -0.591200
O7    O     O_R   0.711600 0.499980 0.618810 -0.576275
O8    O     O_R   0.711620 0.500020 0.381230 -0.569570
C21   C     C_3   0.359350 0.871195 0.254568 -0.349137
C22   C     C_3   0.269533 0.951735 0.156047 -0.394878
C23   C     C_3   0.181655 0.872203 0.053536 -0.842130
H11   H     H_    0.124572 0.932391 0.978608 0.241567
H12   H     H_    0.256293 0.811415 0.994273 0.254900
H13   H     H_    0.097464 0.814170 0.110279 0.252895
H14   H     H_    0.191224 0.007729 0.217448 0.224394
H15   H     H_    0.345151 0.014279 0.094721 0.218117
H16   H     H_    0.444945 0.826140 0.191140 0.206790
H17   H     H_    0.282209 0.798841 0.298013 0.210537
C24   C     C_3   0.264081 0.364376 0.868858 -0.370488
C25   C     C_3   0.114576 0.428886 0.867665 -0.321779
C26   C     C_3   0.033471 0.423885 0.008547 -0.861201
H18   H     H_    0.035848 0.330084 0.055253 0.249672
H19   H     H_    0.082470 0.492319 0.081451 0.254874
H20   H     H_    0.916551 0.447040 0.993394 0.242395
H21   H     H_    0.129110 0.526804 0.834481 0.236212
H22   H     H_    0.043035 0.381557 0.789991 0.211082
H23   H     H_    0.291975 0.332173 0.763904 0.217879
H24   H     H_    0.252235 0.276626 0.929101 0.146546

loop_
_geom_bond_atom_site_label_1
_geom_bond_atom_site_label_2
_ccdc_geom_bond_type
C22   H14   S    
C7    C10   A    
C21   C22   S    
Cu1   O1    S    
C5    H6    S    
C7    N1    A    
C24   H24   S    
C15   O8    A    
C19   C20   A    
Cu1   O5    S    
C20   H1    S    
C2    C21   S    
C26   H18   S    
C4    C18   A    
C23   H12   S    
C2    C3    A    
Cu2   O6    S    
C10   N2    A    
C25   H22   S    
C24   C25   S    
C11   C13   S    
C13   H3    S    
Cu2   O8    S    
C3    C14   S    
C21   H16   S    
Cu1   O7    S    
C5    C6    S    
Cu1   Cu2   S    
C6    H8    S    
C14   O6    A    
C11   H10   S    
C8    N1    A    
C26   H19   S    
C12   O4    A    
C9    N2    A    
C6    C18   S    
C13   H4    S    
C1    C19   S    
C9    C24   S    
C10   C11   S    
C2    C20   A    
C3    C4    A    
Cu2   O4    S    
C16   C17   T    
C23   H11   S    
C11   H2    S    
C7    C13   S    
C6    H7    S    
Cu1   O3    S    
C22   C23   S    
C15   O7    A    
C25   H21   S    
C26   H20   S    
C18   C19   A    
C23   H13   S    
C22   H15   S    
C12   O3    A    
C15   C17   S    
Cu2   N1    S    
C25   C26   S    
C8    C9    A    
Cu1   N2    S    
C1    O1    A    
C14   O5    A    
C5    H5    S    
C8    H9    S    
C24   H23   S    
Cu2   O2    S    
C12   C16   S    
C1    O2    A    
C21   H17   S    
C4    C5    S    
