data_str_m4_o14_o24_f0_acs.sym.41
_audit_creation_date              2012-12-11T14:24:53-0500
_audit_creation_method            fapswitch 2.2
_symmetry_space_group_name_H-M    P1
_symmetry_Int_Tables_number       1
_space_group_crystal_system       triclinic
_cell_length_a                    18.967748
_cell_length_b                    11.161106
_cell_length_c                    18.794475
_cell_angle_alpha                 89.631245
_cell_angle_beta                  91.112674
_cell_angle_gamma                 90.170945
_cell_volume                      3977.96112783

loop_
_atom_site_label
_atom_site_type_symbol
_atom_type_description
_atom_site_fract_x
_atom_site_fract_y
_atom_site_fract_z
_atom_type_partial_charge
C1    C     C_R   0.730931 0.376545 0.146800 0.530313
C2    C     C_R   0.250187 0.913311 0.074572 0.035351
C3    C     C_R   0.613276 0.405765 0.455600 -0.068833
C4    C     C_R   0.848704 0.212033 0.588115 -0.106052
C5    C     C_R   0.055492 0.965860 0.482249 -0.092016
C6    C     C_R   0.348733 0.712026 0.588109 -0.106050
C7    C     C_R   0.555491 0.465858 0.482250 -0.091985
C8    C     C_R   0.864070 0.222484 0.516633 -0.127727
C9    C     C_R   0.065130 0.047006 0.535745 -0.138028
C10   C     C_R   0.364093 0.722473 0.516625 -0.127724
C11   C     C_R   0.565130 0.547018 0.535739 -0.137999
C12   C     C_R   0.825053 0.158821 0.465729 -0.099169
C13   C     C_R   0.249998 0.412455 0.925505 0.039677
C14   C     C_R   0.132849 0.073492 0.558655 -0.092912
C15   C     C_R   0.325066 0.658815 0.465726 -0.099157
C16   C     C_R   0.632849 0.573500 0.558652 -0.092927
C17   C     C_R   0.738144 0.994144 0.438059 0.004426
C18   C     C_R   0.262442 0.017506 0.561026 -0.004458
C19   C     C_R   0.238133 0.494166 0.438064 0.004397
C20   C     C_R   0.762441 0.517506 0.561026 -0.004467
C21   C     C_R   0.728133 0.373773 0.356625 0.526437
C22   C     C_R   0.268024 0.381886 0.647888 0.565082
C23   C     C_R   0.228134 0.873774 0.356625 0.526443
C24   C     C_R   0.750187 0.413311 0.074572 0.035350
C25   C     C_R   0.768026 0.881880 0.647886 0.565109
C26   C     C_R   0.530322 0.154163 0.351953 0.517448
C27   C     C_R   0.463575 0.158398 0.644833 0.525023
C28   C     C_R   0.030320 0.654163 0.351951 0.517442
C29   C     C_R   0.963578 0.658397 0.644834 0.525022
C30   C     C_R   0.729133 0.022632 0.363388 0.548325
C31   C     C_R   0.272060 0.029540 0.637690 0.557647
C32   C     C_R   0.229132 0.522637 0.363388 0.548343
C33   C     C_R   0.772060 0.529540 0.637690 0.557645
C34   C     C_3   0.527775 0.261231 0.969418 -0.018190
C35   C     C_R   0.694328 0.858271 0.963814 0.040684
C36   C     C_3   0.473145 0.262025 0.029107 -0.018153
C37   C     C_3   0.027775 0.761231 0.969418 -0.018190
C38   C     C_3   0.973145 0.762025 0.029107 -0.018153
C39   C     C_3   0.569688 0.163514 0.009528 0.001806
C40   C     C_3   0.430617 0.164103 0.990253 -0.000854
C41   C     C_3   0.069688 0.663514 0.009529 0.001806
C42   C     C_3   0.930617 0.664103 0.990253 -0.000853
C43   C     C_3   0.514386 0.163542 0.068609 0.005650
C44   C     C_3   0.485910 0.162509 0.931198 0.004864
C45   C     C_3   0.014386 0.663542 0.068609 0.005651
C46   C     C_R   0.305723 0.859117 0.036709 0.038707
C47   C     C_3   0.985910 0.662509 0.931198 0.004863
C48   C     C_2   0.647804 0.165473 0.019269 0.231135
C49   C     C_2   0.352503 0.166165 0.980505 0.229161
C50   C     C_2   0.147804 0.665474 0.019269 0.231134
C51   C     C_2   0.852503 0.666165 0.980505 0.229160
C52   C     C_2   0.600329 0.034523 0.653083 0.247556
C53   C     C_2   0.479675 0.874688 0.385220 0.236853
C54   C     C_2   0.100308 0.534429 0.653068 0.247579
C55   C     C_2   0.979629 0.374709 0.385189 0.236850
C56   C     C_2   0.554839 0.368777 0.930927 0.245218
C57   C     C_R   0.194328 0.358271 0.963814 0.040683
C58   C     C_2   0.446719 0.370734 0.065836 0.245231
C59   C     C_2   0.054839 0.868778 0.930927 0.245218
C60   C     C_2   0.946719 0.870734 0.065836 0.245231
C61   C     C_R   0.805723 0.359117 0.036709 0.038706
C62   C     C_R   0.697702 0.857954 0.039496 0.056099
C63   C     C_R   0.302134 0.858181 0.961118 0.056816
C64   C     C_R   0.197702 0.357953 0.039496 0.056099
C65   C     C_R   0.269094 0.376200 0.853272 0.544405
C66   C     C_R   0.802134 0.358181 0.961118 0.056816
C67   C     C_R   0.799732 0.988523 0.035000 -0.088888
C68   C     C_R   0.200392 0.988549 0.964714 -0.092441
C69   C     C_R   0.299732 0.488523 0.035000 -0.088887
C70   C     C_R   0.700392 0.488549 0.964714 -0.092441
C71   C     C_R   0.801065 0.978445 0.962547 -0.105992
C72   C     C_R   0.199206 0.978936 0.037155 -0.106618
C73   C     C_R   0.301065 0.478445 0.962547 -0.105990
C74   C     C_R   0.699206 0.478936 0.037155 -0.106618
C75   C     C_R   0.636372 0.802082 0.929637 -0.103712
C76   C     C_R   0.230931 0.876545 0.146800 0.530316
C77   C     C_R   0.363720 0.803509 0.071278 -0.103108
C78   C     C_R   0.136372 0.302082 0.929637 -0.103713
C79   C     C_R   0.863720 0.303509 0.071278 -0.103108
C80   C     C_R   0.088686 0.234911 0.968440 -0.156608
C81   C     C_R   0.911308 0.236590 0.033007 -0.151849
C82   C     C_R   0.588686 0.734911 0.968440 -0.156609
C83   C     C_R   0.411308 0.736590 0.033007 -0.151849
C84   C     C_R   0.596872 0.723575 0.041701 -0.144149
C85   C     C_R   0.402878 0.724630 0.959890 -0.144595
C86   C     C_R   0.096872 0.223575 0.041701 -0.144149
C87   C     C_R   0.769094 0.876200 0.853272 0.544427
C88   C     C_R   0.902878 0.224630 0.959890 -0.144595
C89   C     C_R   0.650681 0.784297 0.077169 -0.057920
C90   C     C_R   0.348939 0.784567 0.924008 -0.057371
C91   C     C_R   0.150681 0.284297 0.077169 -0.057919
C92   C     C_R   0.848939 0.284567 0.924008 -0.057369
C93   C     C_R   0.534154 0.155386 0.143913 0.573998
C94   C     C_R   0.465888 0.155034 0.856016 0.585999
C95   C     C_R   0.034153 0.655386 0.143913 0.573995
C96   C     C_R   0.965888 0.655034 0.856016 0.585993
C97   C     C_R   0.749127 0.929183 0.074893 0.052449
C98   C     C_3   0.471938 0.064917 0.030189 -0.122881
C99   C     C_R   0.250775 0.929005 0.925280 0.054816
C100  C     C_R   0.249127 0.429183 0.074893 0.052449
C101  C     C_R   0.750775 0.429005 0.925280 0.054817
C102  C     C_R   0.488505 0.170603 0.571246 -0.016924
C103  C     C_R   0.496710 0.146421 0.422818 -0.021555
C104  C     C_R   0.988507 0.670594 0.571244 -0.016932
C105  C     C_R   0.996701 0.646421 0.422813 -0.021556
C106  C     C_R   0.526320 0.075556 0.542036 -0.029726
C107  C     C_R   0.513742 0.048305 0.469577 -0.010527
C108  C     C_R   0.026304 0.575527 0.542026 -0.029729
C109  C     C_3   0.527728 0.064096 0.970833 -0.119071
C110  C     C_R   0.013718 0.548291 0.469566 -0.010509
C111  C     C_R   0.460566 0.242742 0.450999 -0.174997
C112  C     C_R   0.453544 0.251940 0.524930 -0.154339
C113  C     C_R   0.960569 0.742751 0.450999 -0.174995
C114  C     C_R   0.953554 0.751947 0.524932 -0.154331
C115  C     C_R   0.564981 0.995116 0.585784 0.045179
C116  C     C_R   0.516516 0.924716 0.449536 0.040661
C117  C     C_R   0.064947 0.495054 0.585769 0.045207
C118  C     C_R   0.016468 0.424702 0.449517 0.040643
C119  C     C_R   0.068890 0.376535 0.565063 -0.123658
C120  C     C_3   0.971938 0.564917 0.030189 -0.122880
C121  C     C_R   0.045219 0.341954 0.497908 -0.153452
C122  C     C_R   0.568961 0.876601 0.565080 -0.123655
C123  C     C_R   0.545295 0.841996 0.497927 -0.153417
C124  C     C_R   0.745832 0.932708 0.580880 0.019817
C125  C     C_R   0.241368 0.916710 0.428319 0.009700
C126  C     C_R   0.245821 0.432736 0.580888 0.019795
C127  C     C_R   0.741366 0.416711 0.428319 0.009699
C128  C     C_R   0.770904 0.045715 0.559760 0.017390
C129  C     C_R   0.182734 0.943704 0.471292 0.027256
C130  C     C_R   0.270913 0.545728 0.559763 0.017376
C131  C     C_3   0.027728 0.564096 0.970833 -0.119073
C132  C     C_R   0.682733 0.443700 0.471294 0.027258
C133  C     C_R   0.776380 0.069383 0.486480 -0.000569
C134  C     C_R   0.193091 0.015523 0.530173 0.037830
C135  C     C_R   0.276386 0.569391 0.486481 -0.000556
C136  C     C_R   0.693090 0.515521 0.530174 0.037826
C137  C     C_R   0.711000 0.885165 0.461289 -0.132878
C138  C     C_R   0.320269 0.993003 0.518850 -0.162292
C139  C     C_R   0.210952 0.385217 0.461303 -0.132895
C140  C     C_R   0.820267 0.493013 0.518848 -0.162307
C141  C     C_R   0.741628 0.970348 0.148385 0.558583
C142  C     C_R   0.749998 0.912455 0.925505 0.039681
C143  C     C_R   0.258316 0.970137 0.851619 0.560391
C144  C     C_R   0.241628 0.470348 0.148385 0.558587
C145  C     C_R   0.758316 0.470137 0.851619 0.560394
C146  C     C_R   0.719994 0.852070 0.530780 -0.165615
C147  C     C_R   0.308895 0.950894 0.450214 -0.152110
C148  C     C_R   0.219944 0.352122 0.530794 -0.165563
C149  C     C_R   0.808892 0.450906 0.450211 -0.152119
C150  C     C_R   0.799886 0.127278 0.609639 -0.079556
C151  C     C_R   0.113277 0.905770 0.455597 -0.068828
C152  C     C_R   0.299910 0.627283 0.609638 -0.079545
Cr1   Cr    Cr6+3 0.772820 0.169820 0.252640 1.032261
Cr2   Cr    Cr6+3 0.383280 0.011130 0.749340 1.013492
Cr3   Cr    Cr6+3 0.116720 0.511130 0.250660 1.036586
Cr4   Cr    Cr6+3 0.883280 0.511130 0.749340 1.013503
Cr5   Cr    Cr6+3 0.227180 0.169820 0.747360 1.034326
Cr6   Cr    Cr6+3 0.272820 0.669820 0.252640 1.032232
Cr7   Cr    Cr6+3 0.727180 0.669820 0.747360 1.034302
Cr8   Cr    Cr6+3 0.615040 0.323610 0.249150 1.047218
Cr9   Cr    Cr6+3 0.384960 0.323610 0.750850 1.029765
Cr10  Cr    Cr6+3 0.115040 0.823610 0.249150 1.047214
Cr11  Cr    Cr6+3 0.884960 0.823610 0.750850 1.029772
Cr12  Cr    Cr6+3 0.616720 0.011130 0.250660 1.036592
H1    H     H_    0.437888 0.309933 0.415703 0.138978
H2    H     H_    0.373537 0.002662 0.539612 0.136220
H3    H     H_    0.187326 0.320904 0.424978 0.164986
H4    H     H_    0.873536 0.502678 0.539608 0.136224
H5    H     H_    0.789907 0.118684 0.665988 0.141258
H6    H     H_    0.104323 0.830940 0.422305 0.160983
H7    H     H_    0.289935 0.618695 0.665989 0.141238
H8    H     H_    0.604323 0.330935 0.422308 0.160974
H9    H     H_    0.709052 0.761202 0.544830 0.117217
H10   H     H_    0.352486 0.937244 0.416046 0.105967
H11   H     H_    0.208980 0.261262 0.544844 0.117236
H12   H     H_    0.420679 0.322231 0.545770 0.150511
H13   H     H_    0.852480 0.437268 0.416041 0.105979
H14   H     H_    0.876640 0.266248 0.626987 0.146193
H15   H     H_    0.003227 0.953409 0.461014 0.134205
H16   H     H_    0.376673 0.766240 0.626978 0.146170
H17   H     H_    0.503225 0.453402 0.461017 0.134214
H18   H     H_    0.904466 0.284173 0.500385 0.133688
H19   H     H_    0.020248 0.091454 0.558561 0.115863
H20   H     H_    0.404491 0.784155 0.500374 0.133683
H21   H     H_    0.520249 0.591478 0.558548 0.115885
H22   H     H_    0.838204 0.176535 0.411476 0.192343
H23   H     H_    0.937895 0.809949 0.415705 0.138973
H24   H     H_    0.136330 0.141060 0.598641 0.142097
H25   H     H_    0.338212 0.676528 0.411471 0.192319
H26   H     H_    0.636334 0.641077 0.598632 0.142073
H27   H     H_    0.449609 0.985845 0.057261 0.152694
H28   H     H_    0.549555 0.984159 0.944985 0.157101
H29   H     H_    0.949609 0.485845 0.057261 0.152694
H30   H     H_    0.049555 0.484159 0.944986 0.157100
H31   H     H_    0.839189 0.044371 0.060060 0.162656
H32   H     H_    0.160995 0.044316 0.939346 0.160337
H33   H     H_    0.339188 0.544371 0.060060 0.162655
H34   H     H_    0.920699 0.822249 0.545775 0.150515
H35   H     H_    0.660995 0.544316 0.939346 0.160336
H36   H     H_    0.625752 0.811199 0.873258 0.165038
H37   H     H_    0.374559 0.813215 0.127526 0.150557
H38   H     H_    0.125751 0.311199 0.873258 0.165045
H39   H     H_    0.874560 0.313215 0.127526 0.150562
H40   H     H_    0.844800 0.018863 0.935630 0.134915
H41   H     H_    0.155571 0.019137 0.063773 0.138200
H42   H     H_    0.344800 0.518863 0.935630 0.134916
H43   H     H_    0.655571 0.519137 0.063773 0.138200
H44   H     H_    0.048249 0.185493 0.940564 0.109210
H45   H     H_    0.090997 0.311818 0.601417 0.145402
H46   H     H_    0.951846 0.187842 0.061264 0.113613
H47   H     H_    0.548249 0.685493 0.940564 0.109208
H48   H     H_    0.451846 0.687842 0.061264 0.113611
H49   H     H_    0.063894 0.163017 0.071251 0.099995
H50   H     H_    0.935848 0.164404 0.930807 0.094129
H51   H     H_    0.563894 0.663017 0.071251 0.099994
H52   H     H_    0.435848 0.664404 0.930807 0.094128
H53   H     H_    0.656996 0.767604 0.133619 0.148689
H54   H     H_    0.342412 0.767479 0.867736 0.141245
H55   H     H_    0.156996 0.267604 0.133619 0.148689
H56   H     H_    0.049362 0.249965 0.482756 0.168300
H57   H     H_    0.842412 0.267479 0.867736 0.141248
H58   H     H_    0.671420 0.165789 0.072182 0.102431
H59   H     H_    0.328871 0.165304 0.927603 0.102477
H60   H     H_    0.171420 0.665789 0.072183 0.102433
H61   H     H_    0.828871 0.665304 0.927603 0.102476
H62   H     H_    0.609684 0.129185 0.662357 0.112729
H63   H     H_    0.446125 0.930845 0.351797 0.124825
H64   H     H_    0.109693 0.629084 0.662344 0.112699
H65   H     H_    0.946099 0.430893 0.351762 0.124836
H66   H     H_    0.545097 0.457596 0.951375 0.044342
H67   H     H_    0.591098 0.811909 0.601431 0.145442
H68   H     H_    0.455278 0.458758 0.042899 0.044959
H69   H     H_    0.045097 0.957596 0.951375 0.044343
H70   H     H_    0.955278 0.958758 0.042899 0.044959
H71   H     H_    0.549472 0.750013 0.482775 0.168299
H72   H     H_    0.687399 0.820839 0.424957 0.164974
O1    O     O_R   0.788190 0.043000 0.172520 -0.492767
O2    O     O_R   0.454170 0.051610 0.669840 -0.510983
O3    O     O_R   0.045830 0.551610 0.330160 -0.529233
O4    O     O_R   0.954170 0.551610 0.669840 -0.510975
O5    O     O_R   0.681920 0.959720 0.327070 -0.488840
O6    O     O_R   0.318080 0.959720 0.672930 -0.505920
O7    O     O_R   0.181920 0.459720 0.327070 -0.488848
O8    O     O_R   0.818080 0.459720 0.672930 -0.505926
O9    O     O_3   0.668190 0.168190 0.250820 -0.297103
O10   O     O_3   0.331810 0.168190 0.749180 -0.302355
O11   O     O_3   0.168190 0.668190 0.250820 -0.297101
O12   O     O_R   0.211810 0.043000 0.827480 -0.496861
O13   O     O_3   0.831810 0.668190 0.749180 -0.302355
O14   O     O_R   0.766240 0.292300 0.176860 -0.521636
O15   O     O_R   0.233760 0.292300 0.823140 -0.507074
O16   O     O_R   0.266240 0.792300 0.176860 -0.521638
O17   O     O_R   0.733760 0.792300 0.823140 -0.507076
O18   O     O_R   0.670310 0.409160 0.168720 -0.523682
O19   O     O_R   0.329690 0.409160 0.831280 -0.535149
O20   O     O_R   0.170310 0.909160 0.168720 -0.523680
O21   O     O_R   0.829690 0.909160 0.831280 -0.535145
O22   O     O_R   0.556160 0.251900 0.173380 -0.480824
O23   O     O_R   0.288190 0.543000 0.172520 -0.492769
O24   O     O_R   0.443840 0.251900 0.826620 -0.485965
O25   O     O_R   0.056160 0.751900 0.173380 -0.480824
O26   O     O_R   0.943840 0.751900 0.826620 -0.485966
O27   O     O_R   0.545410 0.050140 0.168240 -0.526817
O28   O     O_R   0.454590 0.050140 0.831760 -0.513203
O29   O     O_R   0.045410 0.550140 0.168240 -0.526817
O30   O     O_R   0.954590 0.550140 0.831760 -0.513199
O31   O     O_R   0.681530 0.958350 0.176970 -0.524871
O32   O     O_R   0.318470 0.958350 0.823030 -0.528985
O33   O     O_R   0.181530 0.458350 0.176970 -0.524869
O34   O     O_R   0.711810 0.543000 0.827480 -0.496865
O35   O     O_R   0.818470 0.458350 0.823030 -0.528983
O36   O     O_R   0.788610 0.044480 0.334450 -0.515065
O37   O     O_R   0.211390 0.044480 0.665550 -0.521679
O38   O     O_R   0.288610 0.544480 0.334450 -0.515070
O39   O     O_R   0.711390 0.544480 0.665550 -0.521676
O40   O     O_R   0.766630 0.293670 0.326970 -0.533808
O41   O     O_R   0.233370 0.293670 0.673030 -0.505954
O42   O     O_R   0.266630 0.793670 0.326970 -0.533823
O43   O     O_R   0.733370 0.793670 0.673030 -0.505991
O44   O     O_R   0.670730 0.410640 0.330640 -0.511313
O45   O     O_R   0.556550 0.253260 0.323480 -0.507267
O46   O     O_R   0.329270 0.410640 0.669360 -0.532563
O47   O     O_R   0.170730 0.910640 0.330640 -0.511317
O48   O     O_R   0.829270 0.910640 0.669360 -0.532555
O49   O     O_2   0.685175 0.167485 0.967263 -0.499493
O50   O     O_2   0.315153 0.169398 0.032479 -0.503019
O51   O     O_2   0.185175 0.667485 0.967264 -0.499499
O52   O     O_2   0.815153 0.669397 0.032479 -0.503020
O53   O     O_2   0.618316 0.962397 0.699007 -0.506699
O54   O     O_2   0.486267 0.769744 0.368531 -0.536934
O55   O     O_2   0.118273 0.462285 0.698992 -0.506695
O56   O     O_R   0.443450 0.253260 0.676520 -0.495117
O57   O     O_2   0.986202 0.269763 0.368495 -0.536942
O58   O     O_2   0.587822 0.356846 0.876338 -0.462228
O59   O     O_2   0.415230 0.360631 0.121566 -0.462817
O60   O     O_2   0.087822 0.856847 0.876338 -0.462230
O61   O     O_2   0.915230 0.860631 0.121566 -0.462817
O62   O     O_R   0.056550 0.753260 0.323480 -0.507269
O63   O     O_R   0.943450 0.753260 0.676520 -0.495114
O64   O     O_R   0.545830 0.051610 0.330160 -0.529230

loop_
_geom_bond_atom_site_label_1
_geom_bond_atom_site_label_2
_ccdc_geom_bond_type
C94   O28   A    
C105  C110  A    
C34   C56   S    
C24   C61   A    
C10   H20   S    
C25   O43   A    
C110  C118  A    
C22   O41   A    
C75   H36   S    
C50   H60   S    
C151  H6    S    
C141  O31   A    
C99   C143  S    
C117  C119  A    
C40   C98   S    
C106  C107  A    
Cr6   O23   S    
C5    H15   S    
C38   C45   S    
C80   C86   A    
Cr2   O10   S    
C30   O5    A    
C70   C74   A    
C112  H12   S    
C27   O56   A    
Cr5   O10   S    
Cr10  O62   S    
C98   C109  S    
C17   C30   S    
C19   C32   S    
C23   O42   A    
C96   O30   A    
C139  C148  A    
Cr12  O31   S    
C137  C146  A    
Cr9   O56   S    
Cr10  O20   S    
C100  C144  S    
C41   C131  S    
Cr9   O46   S    
Cr10  O25   S    
C47   C131  S    
C37   C38   S    
C54   O55   D    
Cr11  O63   S    
C48   O49   D    
C36   C40   S    
C68   C72   A    
C139  H3    S    
Cr3   O29   S    
C20   C33   S    
C45   C120  S    
C128  C150  A    
C13   C73   A    
C82   C84   A    
C130  C152  A    
C121  H56   S    
C76   O16   A    
C21   O40   A    
C1    O18   A    
C52   C115  S    
C56   O58   D    
C96   O26   A    
C57   C78   A    
C46   C77   A    
C85   C90   A    
Cr3   O11   S    
C4    C150  A    
C5    C151  A    
C106  C115  A    
C53   H63   S    
C48   H58   S    
C65   O19   A    
Cr5   O12   S    
C81   C88   A    
C58   H68   S    
Cr5   O41   S    
C69   C100  A    
C125  C129  A    
C95   O25   A    
Cr4   O30   S    
C19   C139  A    
C126  C130  A    
C103  C107  A    
C18   C31   S    
C64   C91   A    
C29   O63   A    
C27   O2    A    
C116  C123  A    
C50   O51   D    
Cr7   O43   S    
C31   O6    A    
C111  C112  A    
Cr8   O44   S    
C52   O53   D    
C87   O21   A    
C147  H10   S    
Cr4   O35   S    
Cr10  O47   S    
C122  H67   S    
C101  C145  S    
C105  C113  A    
C28   O3    A    
C78   C80   A    
C13   C57   A    
C40   C49   S    
C143  O12   A    
Cr10  O11   S    
C63   C99   A    
Cr4   O8    S    
C94   O24   A    
C59   O60   D    
C26   O45   A    
C111  H1    S    
C37   C47   S    
C8    C12   A    
C15   H25   S    
C66   C101  A    
C59   H69   S    
Cr5   O15   S    
C28   O62   A    
C74   H43   S    
C119  C121  A    
C71   H40   S    
C49   O50   D    
C7    H17   S    
C34   C39   S    
C30   O36   A    
Cr7   O13   S    
C22   O46   A    
C66   C92   A    
C124  C146  A    
C93   O22   A    
C29   C104  S    
C145  O34   A    
C5    C9    A    
C62   C97   A    
C39   C109  S    
C132  C136  A    
C20   C136  A    
Cr12  O9    S    
C37   C59   S    
C38   C60   S    
C52   H62   S    
C80   H44   S    
Cr6   O11   S    
C45   C95   S    
C44   C94   S    
C41   C45   S    
C6    H16   S    
C108  C117  A    
C4    H14   S    
C98   H27   S    
C77   H37   S    
C17   C137  A    
C75   C82   A    
C23   O47   A    
Cr1   O14   S    
Cr11  O21   S    
C27   C102  S    
C120  H29   S    
C46   C63   A    
C138  H2    S    
C127  C149  A    
C58   O59   D    
C42   C120  S    
C61   C79   A    
C60   O61   D    
C108  C110  A    
C18   C134  A    
C34   C36   S    
C37   C41   S    
C76   O20   A    
C107  C116  A    
C90   H54   S    
Cr2   O28   S    
C55   O57   D    
C35   C142  A    
C40   C44   S    
Cr11  O48   S    
C1    C24   S    
C114  H34   S    
C54   C117  S    
C140  C149  A    
C16   C136  A    
C120  C131  S    
C102  C112  A    
C130  C135  A    
Cr8   O9    S    
C92   H57   S    
Cr6   O16   S    
C129  C151  A    
C3    C7    A    
C86   C91   A    
Cr5   O37   S    
C3    H8    S    
C95   O29   A    
Cr12  O5    S    
C109  H28   S    
C19   C135  A    
C113  H23   S    
C62   C89   A    
C103  C111  A    
C143  O32   A    
Cr8   O18   S    
C18   C138  A    
C144  O23   A    
Cr6   O42   S    
Cr1   O9    S    
C47   C96   S    
C69   C73   A    
C29   O4    A    
C83   H48   S    
C84   H51   S    
C124  C128  A    
C6    C152  A    
C44   C109  S    
C81   H46   S    
Cr3   O3    S    
C49   H59   S    
C2    C72   A    
C70   C101  A    
C119  H45   S    
C3    C132  A    
C60   H70   S    
C125  C147  A    
C85   H52   S    
C126  C148  A    
C33   O39   A    
Cr4   O4    S    
Cr8   O45   S    
C9    C14   A    
C9    H19   S    
C26   C103  S    
C14   H24   S    
C11   C16   A    
C51   O52   D    
C28   C105  S    
C12   H22   S    
Cr8   O22   S    
C26   O64   A    
C68   H32   S    
C137  H72   S    
C97   C141  S    
C16   H26   S    
C123  H71   S    
Cr9   O24   S    
C83   C85   A    
Cr1   O36   S    
Cr7   O17   S    
C31   O37   A    
C41   C50   S    
C104  C108  A    
C2    C76   S    
C113  C114  A    
C8    H18   S    
Cr2   O2    S    
Cr4   O13   S    
C73   H42   S    
C6    C10   A    
C72   H41   S    
C36   C58   S    
C20   C140  A    
C144  O33   A    
Cr11  O26   S    
C43   C93   S    
C67   C71   A    
C87   C142  S    
C53   O54   D    
C86   H49   S    
C67   C97   A    
C129  C134  A    
C64   C100  A    
C36   C43   S    
C39   C48   S    
C55   C118  S    
C140  H4    S    
Cr2   O6    S    
C70   H35   S    
C55   H65   S    
C43   C98   S    
C4    C8    A    
C13   C65   S    
C2    C46   A    
C7    C11   A    
C35   C75   A    
C88   H50   S    
C38   C42   S    
Cr2   O32   S    
C10   C15   A    
C22   C126  S    
C150  H5    S    
C15   C135  A    
C77   C83   A    
Cr12  O27   S    
C127  C132  A    
C61   C66   A    
C88   C92   A    
C51   H61   S    
C21   C127  S    
C53   C116  S    
C42   C51   S    
C23   C125  S    
Cr7   O34   S    
C115  C122  A    
C69   H33   S    
C67   H31   S    
Cr3   O33   S    
Cr6   O38   S    
C148  H11   S    
C56   H66   S    
Cr11  O13   S    
C34   C44   S    
C21   O44   A    
C79   C81   A    
C152  H7    S    
C1    O14   A    
C39   C43   S    
C14   C134  A    
C118  C121  A    
C146  H9    S    
C138  C147  A    
C54   H64   S    
C149  H13   S    
C25   O48   A    
C71   C142  A    
C104  C114  A    
C79   H39   S    
C12   C133  A    
C65   O15   A    
C32   O7    A    
C131  H30   S    
C84   C89   A    
Cr9   O19   S    
C57   C64   A    
C82   H47   S    
C141  O1    A    
C11   H21   S    
C78   H38   S    
Cr1   O1    S    
C145  O35   A    
Cr7   O39   S    
C68   C99   A    
Cr9   O10   S    
C128  C133  A    
C17   C133  A    
C24   C74   A    
C63   C90   A    
Cr1   O40   S    
C102  C106  A    
C35   C62   A    
C42   C47   S    
C91   H55   S    
C25   C124  S    
Cr12  O64   S    
C32   O38   A    
C89   H53   S    
C87   O17   A    
C33   O8    A    
C122  C123  A    
Cr3   O7    S    
C93   O27   A    
