data_str_m9_o2_o17_f0_sra.sym.56
_audit_creation_date              2012-12-11T16:26:30-0500
_audit_creation_method            fapswitch 2.2
_symmetry_space_group_name_H-M    P1
_symmetry_Int_Tables_number       1
_space_group_crystal_system       triclinic
_cell_length_a                    6.936015
_cell_length_b                    17.522035
_cell_length_c                    19.535044
_cell_angle_alpha                 108.466463
_cell_angle_beta                  90.061083
_cell_angle_gamma                 90.59594
_cell_volume                      2251.76174207

loop_
_atom_site_label
_atom_site_type_symbol
_atom_type_description
_atom_site_fract_x
_atom_site_fract_y
_atom_site_fract_z
_atom_type_partial_charge
O1    O     O_R   0.494330 0.415720 0.413720 -0.539213
O2    O     O_R   0.819330 0.430070 0.560210 -0.547692
O3    O     O_R   0.994320 0.584280 0.586280 -0.534661
C1    C     C_R   0.650450 0.414375 0.581330 0.705075
O4    O     O_R   0.823730 0.406300 0.412670 -0.538036
O5    O     O_R   0.998760 0.560340 0.437690 -0.541058
C2    C     C_R   0.653846 0.384327 0.384852 0.696841
O6    O     O_R   0.489890 0.439660 0.562310 -0.539310
O7    O     O_3   0.662340 0.550560 0.508380 -0.368545
V1    V     V_3+5 0.935370 0.490620 0.498450 1.416648
O8    O     O_R   0.328750 0.569930 0.439790 -0.547012
C3    C     C_R   0.160351 0.585008 0.418201 0.705897
O9    O     O_R   0.324340 0.593700 0.587330 -0.539292
C4    C     C_R   0.155958 0.617227 0.614401 0.697724
V2    V     V_3+5 0.435940 0.509380 0.501550 1.413992
O10   O     O_3   0.159100 0.449440 0.491620 -0.368564
H1    H     H_    0.293741 0.874720 0.574312 0.117450
C5    C     C_R   0.067964 0.586993 0.746709 -0.145021
C6    C     C_R   0.022929 0.568420 0.808709 -0.157341
C7    C     C_R   0.010804 0.629043 0.874154 -0.155454
C8    C     C_R   0.043266 0.709654 0.878947 0.193659
C9    C     C_R   0.086517 0.731219 0.815755 0.071003
C10   C     C_R   0.099699 0.667579 0.748448 0.028056
C11   C     C_R   0.119312 0.812763 0.817293 -0.184047
C12   C     C_R   0.166656 0.828813 0.752255 0.049612
C13   C     C_R   0.181280 0.764686 0.685966 0.073261
C14   C     C_R   0.147020 0.684291 0.684012 -0.169883
C15   C     C_R   0.197895 0.908728 0.751643 -0.148827
C16   C     C_R   0.243834 0.924695 0.688076 -0.114297
C17   C     C_R   0.258622 0.861994 0.623616 -0.112771
C18   C     C_R   0.227256 0.782865 0.622214 -0.137463
H2    H     H_    0.078566 0.536894 0.697381 0.110851
H3    H     H_    0.998685 0.506386 0.806036 0.123686
H4    H     H_    0.267438 0.986148 0.688851 0.119449
H5    H     H_    0.238785 0.736285 0.570545 0.095164
C19   C     C_R   0.996028 0.626337 0.321296 -0.196713
C20   C     C_R   0.151729 0.634829 0.369423 -0.097311
C21   C     C_R   0.298850 0.690922 0.370709 -0.241451
C22   C     C_R   0.290154 0.738986 0.325396 0.109639
C23   C     C_R   0.133969 0.730138 0.276929 0.016781
C24   C     C_R   0.985742 0.673140 0.274455 0.071770
C25   C     C_R   0.435674 0.795835 0.327833 -0.201120
C26   C     C_R   0.425315 0.844988 0.283968 -0.174622
C27   C     C_R   0.269841 0.837905 0.235711 0.085681
C28   C     C_R   0.126041 0.778608 0.231150 0.000504
C29   C     C_R   0.972453 0.768690 0.181847 0.053969
C30   C     C_R   0.826664 0.711856 0.179204 -0.204190
C31   C     C_R   0.830952 0.664263 0.225202 0.201690
C32   C     C_R   0.253738 0.889601 0.192865 0.156402
C33   C     C_R   0.110673 0.873167 0.137673 -0.136187
C34   C     C_R   0.967701 0.814781 0.134914 -0.253327
H6    H     H_    0.884471 0.582166 0.319970 0.151801
H7    H     H_    0.419111 0.698026 0.407810 0.127132
H8    H     H_    0.557670 0.802628 0.364075 0.127567
H9    H     H_    0.541560 0.887812 0.287489 0.146412
H10   H     H_    0.708443 0.704631 0.141240 0.125038
C35   C     C_R   0.467867 0.183460 0.864707 -0.216401
C36   C     C_R   0.622062 0.132757 0.867367 -0.087399
C37   C     C_R   0.780532 0.128012 0.821322 -0.201803
C38   C     C_R   0.784515 0.172540 0.772724 0.028591
C39   C     C_R   0.631510 0.224622 0.771764 0.048110
C40   C     C_R   0.473205 0.230424 0.818407 0.112147
C41   C     C_R   0.937604 0.164837 0.724324 -0.161051
C42   C     C_R   0.941278 0.208319 0.675184 0.188041
C43   C     C_R   0.791629 0.263074 0.675536 0.034107
C44   C     C_R   0.635892 0.270580 0.723883 0.030469
C45   C     C_R   0.483182 0.323555 0.724135 0.111254
C46   C     C_R   0.328057 0.329571 0.771572 -0.179343
C47   C     C_R   0.322402 0.282980 0.817874 -0.167123
C48   C     C_R   0.793064 0.310228 0.628892 -0.232298
C49   C     C_R   0.642380 0.363624 0.629395 -0.075108
C50   C     C_R   0.487093 0.369335 0.676758 -0.221330
H11   H     H_    0.054315 0.124010 0.723946 0.141374
H12   H     H_    0.910711 0.305603 0.591520 0.128606
H13   H     H_    0.370401 0.410306 0.677495 0.120031
H14   H     H_    0.209549 0.369596 0.772166 0.119421
H15   H     H_    0.199796 0.288077 0.853328 0.130188
H16   H     H_    0.788527 0.139269 0.438683 0.124842
C51   C     C_R   0.525580 0.406697 0.253426 -0.180409
C52   C     C_R   0.467483 0.421874 0.191326 -0.182789
C53   C     C_R   0.475120 0.361702 0.125187 0.211553
C54   C     C_R   0.535437 0.283923 0.121212 0.195230
C55   C     C_R   0.579954 0.264413 0.185509 0.007454
C56   C     C_R   0.581501 0.328829 0.252248 0.022680
C57   C     C_R   0.626820 0.184404 0.185275 -0.182228
C58   C     C_R   0.682392 0.171316 0.251935 0.045238
C59   C     C_R   0.679803 0.237242 0.317598 0.034077
C60   C     C_R   0.638659 0.315600 0.316970 -0.143126
C61   C     C_R   0.742290 0.095005 0.256853 0.185207
C62   C     C_R   0.777164 0.084693 0.324081 -0.162607
C63   C     C_R   0.761018 0.148171 0.387176 -0.156642
C64   C     C_R   0.716019 0.223757 0.384232 -0.135009
H17   H     H_    0.419604 0.481449 0.194401 0.144956
H18   H     H_    0.708163 0.271441 0.435334 0.101901
O11   O     O_R   0.775200 0.060470 0.937800 -0.541762
O12   O     O_R   0.441110 0.093720 0.087350 -0.542456
O13   O     O_R   0.266330 0.939630 0.062280 -0.529750
C65   C     C_R   0.610815 0.114879 0.116751 0.863941
O14   O     O_R   0.445750 0.069950 0.939820 -0.548532
O15   O     O_R   0.271000 0.915700 0.913700 -0.540683
C66   C     C_R   0.614263 0.083608 0.916925 0.728409
O16   O     O_R   0.770530 0.084400 0.086380 -0.518237
O17   O     O_3   0.602830 0.949510 0.991680 -0.365555
V3    V     V_3+5 0.329710 0.009370 0.001550 1.437264
O18   O     O_R   0.940990 0.906170 0.912570 -0.533063
C67   C     C_R   0.109597 0.881976 0.885761 0.780255
O19   O     O_R   0.936350 0.929940 0.060100 -0.527224
C68   C     C_R   0.104288 0.917581 0.083971 0.743298
V4    V     V_3+5 0.829160 0.990450 0.998310 1.463836
O20   O     O_3   0.105910 0.050480 0.008320 -0.378464
N1    N     N_3   0.372975 0.961136 0.209716 -0.678407
H19   H     H_    0.314350 0.003498 0.188584 0.222568
H20   H     H_    0.364606 0.990260 0.265332 0.217232
H21   H     H_    0.851567 0.804973 0.095858 0.141985
N2    N     N_3   0.680175 0.606065 0.221076 -0.682952
H22   H     H_    0.582244 0.604839 0.179995 0.224754
H23   H     H_    0.603172 0.625123 0.269329 0.228023
H24   H     H_    0.343896 0.187171 0.899270 0.126809
H25   H     H_    0.898630 0.088204 0.822073 0.117565
N3    N     N_3   0.096920 0.194247 0.624646 -0.666351
H26   H     H_    0.039089 0.173298 0.572484 0.223952
H27   H     H_    0.169086 0.248630 0.630891 0.235356
H28   H     H_    0.523698 0.457265 0.302574 0.131223
N4    N     N_3   0.424158 0.379460 0.060776 -0.689451
H29   H     H_    0.513783 0.426252 0.056874 0.235511
H30   H     H_    0.282301 0.400091 0.066090 0.230003
N5    N     N_3   0.557814 0.226763 0.051083 -0.672236
H31   H     H_    0.424432 0.220005 0.024797 0.246829
H32   H     H_    0.657306 0.249880 0.022367 0.236164
N6    N     N_3   0.790714 0.029509 0.194766 -0.647276
H33   H     H_    0.940166 0.023975 0.196495 0.205045
H34   H     H_    0.730307 0.976374 0.199003 0.253349
H35   H     H_    0.821949 0.026755 0.327062 0.118548
H36   H     H_    0.977212 0.613348 0.922208 0.119592
N7    N     N_3   0.033121 0.768159 0.948909 -0.679235
H37   H     H_    0.894644 0.765108 0.969002 0.222390
H38   H     H_    0.132085 0.752637 0.982571 0.214542
H39   H     H_    0.186320 0.959982 0.800023 0.093033

loop_
_geom_bond_atom_site_label_1
_geom_bond_atom_site_label_2
_ccdc_geom_bond_type
C27   C32   A    
C59   C60   A    
C47   H15   S    
N1    H19   S    
C1    O6    A    
C53   C54   A    
C35   C36   A    
N7    H37   S    
C28   C29   A    
N3    H26   S    
C12   C15   A    
C13   C14   A    
C20   C21   A    
C5    H2    S    
C38   C41   A    
C19   C20   A    
C45   C50   A    
O5    C3    A    
C21   C22   A    
V2    O10   S    
O15   V3    S    
C5    C6    A    
C3    C20   S    
C32   C33   A    
C2    C60   S    
C57   C65   S    
O13   C68   A    
O8    V2    S    
C39   C44   A    
C30   C31   A    
C46   C47   A    
N2    H23   S    
O12   C65   A    
C48   H12   S    
O19   C68   A    
N6    H34   S    
O1    V2    S    
C10   C14   A    
C4    C14   S    
O7    V1    S    
C19   H6    S    
C32   N1    S    
C44   C45   A    
C37   C38   A    
C8    C9    A    
C33   C68   S    
H1    C17   S    
O19   V4    S    
C19   C24   A    
C50   H13   S    
N3    H27   S    
C22   C25   A    
C23   C28   A    
C34   H21   S    
C53   N4    S    
C45   C46   A    
C35   C40   A    
C15   H39   S    
C11   C12   A    
C6    H3    S    
C61   C62   A    
C63   C64   A    
O4    C2    A    
C62   H35   S    
C58   C59   A    
C41   H11   S    
C12   C13   A    
C65   O16   A    
C51   H28   S    
C29   C34   A    
C61   N6    S    
C5    C10   A    
C40   C47   A    
C38   C39   A    
O2    C1    A    
C26   C27   A    
N5    H32   S    
C16   C17   A    
C55   C56   A    
C17   C18   A    
C64   H18   S    
C33   C34   A    
N1    H20   S    
C36   C66   S    
C57   C58   A    
C48   C49   A    
O3    C4    A    
C31   N2    S    
C26   H9    S    
C23   C24   A    
O14   C66   A    
C43   C44   A    
O6    V2    S    
O12   V3    S    
O11   V4    S    
C18   H5    S    
C11   C67   S    
C25   C26   A    
N5    H31   S    
O2    V1    S    
C22   C23   A    
C59   C64   A    
C27   C28   A    
N4    H30   S    
N7    H38   S    
O18   V4    S    
C29   C30   A    
C15   C16   A    
C37   H25   S    
C55   C57   A    
O1    C2    A    
C56   C60   A    
C52   C53   A    
C58   C61   A    
O5    V1    S    
O8    C3    A    
H16   C63   S    
C46   H14   S    
O18   C67   A    
O15   C67   A    
C42   N3    S    
O17   V4    S    
C7    H36   S    
C42   C43   A    
C6    C7    A    
O9    V2    S    
N6    H33   S    
C36   C37   A    
O4    V1    S    
O3    V1    S    
V1    O10   S    
V4    O20   S    
C25   H8    S    
V3    O20   S    
C62   C63   A    
C51   C56   A    
C21   H7    S    
C16   H4    S    
C41   C42   A    
C24   C31   A    
O14   V3    S    
C9    C11   A    
O7    V2    S    
C39   C40   A    
C54   N5    S    
O13   V3    S    
C51   C52   A    
O11   C66   A    
C13   C18   A    
C49   C50   A    
C7    C8    A    
C35   H24   S    
C54   C55   A    
O17   V3    S    
C9    C10   A    
C30   H10   S    
O16   V4    S    
N2    H22   S    
C52   H17   S    
O9    C4    A    
C8    N7    S    
C1    C49   S    
C43   C48   A    
N4    H29   S    
