data_str_m2_o14_o24_f0_pcu.sym.229
_audit_creation_date              2013-03-05T15:51:40-0500
_audit_creation_method            fapswitch 2.2
_symmetry_space_group_name_H-M    P1
_symmetry_Int_Tables_number       1
_space_group_crystal_system       triclinic
_cell_length_a                    10.649183
_cell_length_b                    10.865055
_cell_length_c                    9.617837
_cell_angle_alpha                 90.9045
_cell_angle_beta                  89.033725
_cell_angle_gamma                 94.133372
_cell_volume                      1109.65104321

loop_
_atom_site_label
_atom_site_type_symbol
_atom_site_description
_atom_site_fract_x
_atom_site_fract_y
_atom_site_fract_z
_atom_type_partial_charge
O1    O     O_R   0.499990 0.319640 0.618810 -0.543751
O2    O     O_R   0.500000 0.319660 0.381240 -0.592726
C1    C     C_R   0.486351 0.262333 0.499227 0.837746
O3    O     O_R   0.316850 0.499960 0.618770 -0.567251
O4    O     O_R   0.316860 0.499980 0.381190 -0.581981
C2    C     C_R   0.259476 0.499123 0.501002 0.815134
Cu1   Cu    Cu3+1 0.499990 0.499990 0.640660 0.996394
Cu2   Cu    Cu3+1 0.500010 0.500010 0.359340 0.975054
O5    O     O_R   0.500000 0.680340 0.618760 -0.540871
O6    O     O_R   0.500010 0.680360 0.381190 -0.617523
O7    O     O_R   0.683140 0.500020 0.618810 -0.600230
O8    O     O_R   0.683150 0.500040 0.381230 -0.565887
C3    C     C_R   0.489782 0.736937 0.503039 0.789197
C4    C     C_R   0.740531 0.501969 0.498730 0.796448
C5    C     C_3   0.036948 0.502325 0.632459 -0.099822
C6    C     C_3   0.947350 0.401386 0.563473 -0.198558
H1    H     H_    0.899421 0.320265 0.615970 0.159690
H2    H     H_    0.068611 0.502052 0.741776 0.165716
C7    C     C_3   0.877425 0.502981 0.495959 -0.070132
C8    C     C_3   0.965169 0.604134 0.564458 -0.236577
C9    C     C_3   0.053519 0.602183 0.434469 -0.231078
C10   C     C_3   0.965021 0.500395 0.369231 0.423272
C11   C     C_3   0.035787 0.398290 0.433708 -0.226995
C12   C     C_3   0.122687 0.499920 0.502386 -0.053362
H3    H     H_    0.934676 0.688108 0.618069 0.207619
H4    H     H_    0.099085 0.683903 0.380920 0.172588
H5    H     H_    0.066686 0.314724 0.378914 0.150672
H6    H     H_    0.515266 0.105754 0.283948 0.172933
C13   C     C_R   0.354621 0.127335 0.728051 0.433527
C14   C     C_R   0.368048 0.089637 0.863536 -0.366681
H7    H     H_    0.341821 0.147032 0.950787 0.178085
C15   C     C_R   0.413412 0.975172 0.884989 0.413144
C16   C     C_R   0.416110 0.890830 0.773290 0.400812
C17   C     C_R   0.432804 0.937161 0.633909 -0.129737
C18   C     C_R   0.415494 0.064805 0.619045 -0.068311
C19   C     C_R   0.459534 0.127401 0.498349 -0.067412
C20   C     C_R   0.488067 0.059782 0.379780 -0.188033
H8    H     H_    0.508746 0.883632 0.289911 0.193771
C21   C     C_R   0.486919 0.932699 0.384601 -0.174076
C22   C     C_R   0.468348 0.869654 0.510336 -0.044136
H9    H     H_    0.348661 0.366069 0.129490 0.139970
C23   C     C_R   0.672280 0.662350 0.143610 -0.157251
H10   H     H_    0.678863 0.670008 0.253498 0.202181
C24   C     C_R   0.756082 0.742899 0.071838 -0.221693
H11   H     H_    0.820131 0.805269 0.130140 0.192735
C25   C     C_R   0.754972 0.746410 0.927699 0.324124
C26   C     C_R   0.670056 0.665421 0.856050 -0.182850
H12   H     H_    0.673419 0.673348 0.746355 0.217576
C27   C     C_R   0.584888 0.580053 0.925209 0.208867
C28   C     C_R   0.585143 0.579552 0.074525 0.245452
N1    N     N_R   0.501210 0.501210 0.147910 -0.189954
C29   C     C_R   0.416998 0.426435 0.074325 -0.050762
H13   H     H_    0.345154 0.371151 0.873630 0.192823
C30   C     C_R   0.416228 0.427698 0.926925 -0.058365
N2    N     N_R   0.501250 0.501290 0.852040 -0.179878
O9    O     O_3   0.454804 0.944043 0.013786 -0.556324
C31   C     C_3   0.578789 0.999248 0.025641 -0.289082
H14   H     H_    0.577675 0.100862 0.041139 0.169202
H15   H     H_    0.639186 0.979202 0.933441 0.195658
H16   H     H_    0.624815 0.961766 0.116249 0.170920
O10   O     O_3   0.394089 0.768481 0.806662 -0.543397
C32   C     C_3   0.263087 0.738252 0.803626 -0.185723
H17   H     H_    0.226722 0.744895 0.696353 0.131848
H18   H     H_    0.210863 0.797181 0.876971 0.182507
H19   H     H_    0.244521 0.641547 0.837620 0.191760
N3    N     N_R   0.837582 0.834594 0.853966 0.099585
O11   O     O_R   0.933909 0.890766 0.915535 -0.376715
O12   O     O_R   0.812691 0.865238 0.727607 -0.428059
N4    N     N_R   0.926593 0.497333 0.224518 0.115887
O13   O     O_R   0.975312 0.579575 0.138692 -0.378905
O14   O     O_R   0.854927 0.404587 0.177216 -0.359080
O15   O     O_3   0.279304 0.222159 0.702580 -0.586127
C33   C     C_3   0.165276 0.170440 0.647379 -0.304804
H20   H     H_    0.127579 0.085651 0.702554 0.193547
H21   H     H_    0.176675 0.150706 0.534297 0.161215
H22   H     H_    0.094040 0.238303 0.661688 0.196441

loop_
_geom_bond_atom_site_label_1
_geom_bond_atom_site_label_2
_geom_bond_distance
_ccdc_geom_bond_type
C5    H2    1.109649 S    
N3    O12   1.301698 A    
C9    H4    1.110386 S    
C33   H20   1.116411 S    
C7    C8    1.537816 S    
Cu1   N2    2.033109 S    
Cu1   Cu2   2.705690 S    
C26   C27   1.415351 A    
H13   C30   1.071999 S    
Cu1   O7    1.958136 S    
C32   H17   1.113336 S    
C17   C22   1.446071 A    
H6    C20   1.080544 S    
C19   C20   1.388014 A    
C25   N3    1.440040 S    
O4    C2    1.295052 A    
O7    C4    1.297260 A    
C31   H15   1.114595 S    
C8    H3    1.107239 S    
C5    C6    1.549488 S    
O9    C31   1.415917 S    
C17   C18   1.421901 A    
N4    O14   1.300478 A    
O5    C3    1.289988 A    
C3    C22   1.476492 S    
C32   H18   1.113859 S    
C25   C26   1.397888 A    
C18   C19   1.410893 A    
C24   C25   1.387702 A    
C6    H1    1.110314 S    
C11   C12   1.536961 S    
C11   H5    1.110178 S    
H9    C29   1.081865 S    
C13   O15   1.377849 S    
N3    O11   1.301632 A    
C9    C10   1.533862 S    
C33   H21   1.111541 S    
N4    O13   1.300391 A    
C23   C24   1.387290 A    
O3    Cu1   1.965126 S    
C29   C30   1.418122 A    
C28   N1    1.381883 A    
C5    C8    1.548286 S    
N1    C29   1.365060 A    
C7    C10   1.523453 S    
H8    C21   1.078443 S    
O3    C2    1.295587 A    
C21   C22   1.403304 A    
C31   H16   1.104494 S    
C27   N2    1.383155 A    
O1    C1    1.304443 A    
C13   C14   1.384845 A    
C26   H12   1.059679 S    
Cu2   O8    1.965125 S    
C2    C12   1.457180 S    
C16   C17   1.443061 A    
Cu2   N1    2.033566 S    
C23   C28   1.411888 A    
C16   O10   1.375181 S    
C5    C12   1.537301 S    
O8    C4    1.292925 A    
C6    C11   1.552201 S    
C33   H22   1.100911 S    
C23   H10   1.061941 S    
C24   H11   1.083114 S    
Cu1   O5    1.974095 S    
C30   N2    1.367355 A    
C10   N4    1.456553 S    
C32   H19   1.108464 S    
O1    Cu1   1.967448 S    
C4    C7    1.456851 S    
O2    Cu2   1.974097 S    
O15   C33   1.409296 S    
O6    C3    1.321263 A    
O4    Cu2   1.958137 S    
C13   C18   1.413869 A    
C15   C16   1.402269 A    
O2    C1    1.304033 A    
C20   C21   1.381445 A    
C14   C15   1.385911 A    
C31   H14   1.112611 S    
C14   H7    1.082478 S    
C1    C19   1.473179 S    
C6    C7    1.533630 S    
O10   C32   1.410652 S    
C8    C9    1.552755 S    
Cu2   O6    1.967448 S    
C27   C28   1.436241 A    
C9    C12   1.536518 S    
C10   C11   1.530089 S    
C15   O9    1.377060 S    
