data_str_m12_o9_o22_f0_bcu.sym.74
_audit_creation_date              2012-12-11T17:45:33-0500
_audit_creation_method            fapswitch 2.2
_symmetry_space_group_name_H-M    P1
_symmetry_Int_Tables_number       1
_space_group_crystal_system       triclinic
_cell_length_a                    14.968245
_cell_length_b                    14.867822
_cell_length_c                    14.911548
_cell_angle_alpha                 109.396686
_cell_angle_beta                  109.18651
_cell_angle_gamma                 109.586197
_cell_volume                      2562.22615065

loop_
_atom_site_label
_atom_site_type_symbol
_atom_type_description
_atom_site_fract_x
_atom_site_fract_y
_atom_site_fract_z
_atom_type_partial_charge
C1    C     C_R   0.979776 0.257495 0.070731 -0.118855
C2    C     C_R   0.324624 0.794167 0.329253 0.054806
C3    C     C_R   0.299824 0.501031 0.930236 0.053418
C4    C     C_R   0.921412 0.495140 0.293837 0.072297
C5    C     C_R   0.686201 0.407952 0.931658 -0.146230
C6    C     C_R   0.027708 0.593700 0.779776 -0.108424
C7    C     C_R   0.793577 0.194414 0.702780 -0.147965
C8    C     C_R   0.998810 0.801037 0.094704 -0.145955
C9    C     C_R   0.093088 0.806979 0.007496 -0.143545
C10   C     C_R   0.705741 0.193794 0.796787 -0.133569
C11   C     C_R   0.777033 0.592045 0.023248 -0.142812
C12   C     C_R   0.315469 0.762090 0.225647 -0.133227
C13   C     C_R   0.940316 0.409942 0.684925 -0.109402
C14   C     C_R   0.674809 0.500133 0.947025 0.015955
C15   C     C_R   0.957151 0.503953 0.674874 0.053130
C16   C     C_R   0.705211 0.127321 0.705756 0.068600
C17   C     C_R   0.060105 0.868994 0.068748 0.065328
C18   C     C_R   0.602839 0.161980 0.087903 -0.109561
C19   C     C_R   0.670843 0.267484 0.179941 -0.160681
C20   C     C_R   0.751800 0.285353 0.275678 0.112973
C21   C     C_R   0.762139 0.195329 0.278170 -0.163502
C22   C     C_R   0.692985 0.089954 0.186671 -0.117546
C23   C     C_R   0.207982 0.409326 0.901770 -0.128577
C24   C     C_R   0.613549 0.073296 0.091509 -0.100870
C25   C     C_R   0.838148 0.406458 0.474472 -0.237436
C26   C     C_R   0.914442 0.506597 0.571812 0.072327
C27   C     C_R   0.955189 0.603575 0.565020 0.036437
C28   C     C_R   0.927974 0.595697 0.463915 -0.238371
C29   C     C_R   0.881551 0.493867 0.372032 0.047773
C30   C     C_R   0.824042 0.397005 0.373717 0.034956
C31   C     C_R   0.016048 0.786985 0.712909 -0.179941
C32   C     C_R   0.098510 0.884169 0.809491 -0.147487
C33   C     C_R   0.207644 0.909320 0.848961 -0.137553
C34   C     C_R   0.987406 0.588309 0.295004 -0.133386
C35   C     C_R   0.234256 0.836758 0.791872 -0.119320
C36   C     C_R   0.151676 0.738066 0.696388 -0.148204
C37   C     C_R   0.042175 0.712013 0.658330 0.089772
C38   C     C_R   0.269713 0.065368 0.541882 -0.126419
C39   C     C_R   0.334686 0.023656 0.517427 -0.126856
C40   C     C_R   0.341417 0.940773 0.539786 0.103810
C41   C     C_R   0.280962 0.899077 0.585363 -0.183380
C42   C     C_R   0.213072 0.938546 0.606021 -0.120415
C43   C     C_R   0.208938 0.022754 0.586066 -0.118675
C44   C     C_R   0.524346 0.975545 0.630510 -0.211644
C45   C     C_R   0.299677 0.591984 0.994714 -0.135739
C46   C     C_R   0.621759 0.010427 0.627498 0.046129
C47   C     C_R   0.622694 0.946367 0.533752 0.031938
C48   C     C_R   0.522867 0.867372 0.438367 -0.238588
C49   C     C_R   0.425041 0.857943 0.435052 0.068918
C50   C     C_R   0.426553 0.913716 0.533670 0.019164
C51   C     C_R   0.744348 0.001366 0.458285 -0.205935
C52   C     C_R   0.849555 0.047338 0.472799 -0.114472
C53   C     C_R   0.934873 0.055127 0.556224 -0.106389
C54   C     C_R   0.915002 0.015244 0.624346 -0.130668
C55   C     C_R   0.810573 0.972209 0.612386 -0.143585
C56   C     C_R   0.901788 0.406392 0.205614 -0.153825
C57   C     C_R   0.725219 0.967734 0.531027 0.120858
C58   C     C_3   0.470913 0.386506 0.844892 -0.395527
C59   C     C_3   0.367051 0.388720 0.835908 -0.387445
C60   C     C_3   0.579645 0.533503 0.046225 -0.393964
C61   C     C_3   0.558730 0.586007 0.899154 -0.448554
C62   C     C_3   0.572897 0.501234 0.932968 0.352820
C63   C     C_3   0.396539 0.501878 0.924771 0.307349
C64   C     C_3   0.473362 0.525139 0.038840 -0.453099
C65   C     C_3   0.458864 0.593445 0.903759 0.073892
C66   C     C_R   0.338509 0.200776 0.946500 -0.131830
C67   C     C_R   0.220198 0.755490 0.314766 -0.120089
C68   C     C_R   0.247789 0.164989 0.960179 -0.204546
C69   C     C_R   0.259717 0.203985 0.065379 0.123584
C70   C     C_R   0.362893 0.285253 0.156250 -0.121944
C71   C     C_R   0.453430 0.322881 0.142136 -0.121635
C72   C     C_R   0.441392 0.278261 0.037479 -0.107113
C73   C     C_R   0.166826 0.046413 0.083460 -0.245826
C74   C     C_R   0.092677 0.986573 0.107409 0.063414
C75   C     C_R   0.045989 0.039571 0.159248 0.023528
C76   C     C_R   0.058041 0.138005 0.164443 -0.230946
C77   C     C_R   0.106190 0.179598 0.110559 0.061261
C78   C     C_R   0.071886 0.257135 0.979567 -0.142529
C79   C     C_R   0.173695 0.142332 0.083468 0.015233
C80   C     C_R   0.861946 0.936644 0.135377 -0.149996
C81   C     C_R   0.795980 0.881387 0.168953 -0.174799
C82   C     C_R   0.843536 0.880940 0.266474 -0.102351
C83   C     C_R   0.957022 0.940354 0.333412 -0.122450
C84   C     C_R   0.023269 0.998926 0.302109 -0.173052
C85   C     C_R   0.976120 0.992859 0.200414 0.111036
C86   C     C_R   0.060358 0.235345 0.060246 0.061642
H1    H     H_    0.948070 0.249384 0.124363 0.098718
H2    H     H_    0.054819 0.678850 0.808533 0.137815
H3    H     H_    0.825740 0.171808 0.650008 0.132051
H4    H     H_    0.974104 0.820504 0.154368 0.132900
H5    H     H_    0.154862 0.837881 0.986642 0.109692
H6    H     H_    0.659758 0.168178 0.834835 0.086746
H7    H     H_    0.796528 0.676803 0.059293 0.113190
H8    H     H_    0.890274 0.324884 0.620881 0.093231
H9    H     H_    0.560528 0.991739 0.020424 0.108628
H10   H     H_    0.542100 0.148599 0.013374 0.108936
H11   H     H_    0.663314 0.336102 0.176173 0.103389
H12   H     H_    0.380434 0.778124 0.205978 0.091191
H13   H     H_    0.824264 0.206782 0.350643 0.110262
H14   H     H_    0.701164 0.021282 0.189568 0.117767
H15   H     H_    0.795666 0.333196 0.476942 0.123631
H16   H     H_    0.961811 0.671436 0.462427 0.124152
H17   H     H_    0.931793 0.767204 0.684309 0.125028
H18   H     H_    0.076228 0.937189 0.854985 0.126863
H19   H     H_    0.271775 0.983827 0.924586 0.130988
H20   H     H_    0.318496 0.856194 0.822438 0.130163
H21   H     H_    0.172338 0.680597 0.653917 0.152634
H22   H     H_    0.159564 0.055732 0.606037 0.094367
H23   H     H_    0.175979 0.324585 0.843498 0.089718
H24   H     H_    0.268089 0.132143 0.528505 0.109399
H25   H     H_    0.383634 0.059293 0.485769 0.112839
H26   H     H_    0.287354 0.837124 0.605529 0.129891
H27   H     H_    0.165246 0.905913 0.639644 0.146246
H28   H     H_    0.522097 0.016670 0.703884 0.122794
H29   H     H_    0.522691 0.820163 0.365138 0.122837
H30   H     H_    0.680160 0.000161 0.396187 0.119819
H31   H     H_    0.865406 0.078903 0.420625 0.128026
H32   H     H_    0.016486 0.093019 0.568456 0.098106
H33   H     H_    0.981247 0.021178 0.688746 0.105810
H34   H     H_    0.008851 0.672268 0.343627 0.092686
H35   H     H_    0.797393 0.947381 0.669574 0.114128
H36   H     H_    0.473768 0.322744 0.866722 0.151445
H37   H     H_    0.467298 0.361716 0.764106 0.164538
H38   H     H_    0.314913 0.371873 0.752774 0.188653
H39   H     H_    0.320640 0.320682 0.845846 0.154414
H40   H     H_    0.599586 0.481584 0.078833 0.160951
H41   H     H_    0.433044 0.459079 0.054453 0.201521
H42   H     H_    0.632832 0.668622 0.954217 0.142953
H43   H     H_    0.547222 0.560257 0.815311 0.196658
H44   H     H_    0.355685 0.677214 0.025365 0.094947
H45   H     H_    0.489937 0.675563 0.972863 0.091342
H46   H     H_    0.646600 0.619844 0.106908 0.155420
H47   H     H_    0.492325 0.603595 0.104854 0.152416
H48   H     H_    0.511521 0.303422 0.026303 0.092064
H49   H     H_    0.329191 0.166786 0.865448 0.117902
H50   H     H_    0.168693 0.105300 0.888781 0.108035
H51   H     H_    0.374172 0.314922 0.238219 0.114538
H52   H     H_    0.533245 0.384169 0.212592 0.112529
H53   H     H_    0.216784 0.016707 0.060154 0.129220
H54   H     H_    0.018218 0.174238 0.200416 0.129164
H55   H     H_    0.847579 0.320709 0.172104 0.119971
H56   H     H_    0.824483 0.932867 0.057521 0.120703
H57   H     H_    0.708088 0.837272 0.118545 0.110127
H58   H     H_    0.792407 0.835563 0.290814 0.119278
H59   H     H_    0.993552 0.939539 0.408637 0.122609
H60   H     H_    0.110989 0.042486 0.352770 0.120947
H61   H     H_    0.194485 0.757938 0.374446 0.118044
H62   H     H_    0.125848 0.249694 0.948879 0.112848
H63   H     H_    0.623917 0.322312 0.880727 0.097521
N1    N     N_R   0.947080 0.293830 0.002870 -0.042299
N2    N     N_R   0.054040 0.556820 0.847890 -0.040865
N3    N     N_R   0.848290 0.293830 0.791110 -0.043353
N4    N     N_R   0.995680 0.706170 0.053910 -0.041140
N5    N     N_R   0.052920 0.706170 0.997130 -0.043605
N6    N     N_R   0.791050 0.293830 0.847890 -0.038874
N7    N     N_R   0.846330 0.556820 0.053910 -0.037827
N8    N     N_R   0.997640 0.443180 0.791110 -0.039660
N9    N     N_R   0.208950 0.706170 0.152110 -0.040317
N10   N     N_R   0.153670 0.443180 0.946090 -0.039436
N11   N     N_R   0.002360 0.556820 0.208890 -0.041119
N12   N     N_R   0.210070 0.556820 0.002870 -0.036949
N13   N     N_R   0.945960 0.443180 0.152110 -0.040911
N14   N     N_R   0.151710 0.706170 0.208890 -0.043412
N15   N     N_R   0.004320 0.293830 0.946090 -0.041024
N16   N     N_R   0.789930 0.443180 0.997130 -0.037473
Ni1   Ni    Ni4+2 0.869690 0.369690 0.000000 0.208622
Ni2   Ni    Ni4+2 0.130310 0.630310 0.000000 0.222665
Ni3   Ni    Ni4+2 0.000970 0.369690 0.869780 0.219294
Ni4   Ni    Ni4+2 0.999030 0.630310 0.130220 0.212747
I1    I     I_    0.356130 0.588631 0.759303 -0.526105

loop_
_geom_bond_atom_site_label_1
_geom_bond_atom_site_label_2
_ccdc_geom_bond_type
C58   C62   S    
C66   C68   A    
C55   H35   S    
C1    H1    S    
N16   Ni1   S    
C18   H10   S    
C73   C74   A    
C3    C23   A    
C35   C36   A    
C2    C12   A    
C60   H46   S    
C63   C65   S    
C81   C82   A    
C19   H11   S    
C6    H2    S    
C20   C30   S    
C53   C54   A    
C78   N15   A    
C26   C27   A    
C80   C85   A    
C18   C24   A    
N2    N8    A    
C36   C37   A    
C38   C39   A    
C21   H13   S    
C11   C14   A    
N2    Ni2   S    
C66   H49   S    
N6    Ni1   S    
C14   C62   S    
C56   N13   A    
N7    Ni4   S    
C25   C30   A    
C5    H63   S    
N10   Ni3   S    
C60   C62   S    
C18   C19   A    
C41   C42   A    
C45   N12   A    
C65   H45   S    
C6    C15   A    
C83   H59   S    
C75   C85   S    
C66   C72   A    
C83   C84   A    
C68   C69   A    
C41   H26   S    
C23   N10   A    
N11   Ni4   S    
C32   H18   S    
C70   C71   A    
C51   C57   A    
C5    N16   A    
C38   H24   S    
C12   H12   S    
C4    C29   S    
C78   H62   S    
C52   H31   S    
C78   C86   A    
C39   H25   S    
C10   H6    S    
C45   H44   S    
N13   Ni1   S    
C21   C22   A    
C4    C56   A    
C36   H21   S    
C9    H5    S    
C61   C62   S    
N8    Ni3   S    
C13   N8    A    
N3    Ni3   S    
C44   C46   A    
N9    Ni2   S    
C71   H52   S    
C77   C79   A    
C34   H34   S    
C23   H23   S    
C4    C34   A    
C58   H36   S    
N1    Ni1   S    
C22   H14   S    
C74   C75   A    
C51   C52   A    
C34   N11   A    
C68   H50   S    
C33   H19   S    
C76   C77   A    
C28   H16   S    
C82   H58   S    
C2    C67   A    
C24   H9    S    
C16   C46   S    
C39   C40   A    
C11   H7    S    
C53   H32   S    
C15   C26   S    
C73   H53   S    
C58   C59   S    
C3    C45   A    
C7    N3    A    
C31   H17   S    
C75   C76   A    
C29   C30   A    
C2    C49   S    
C67   N14   A    
C47   C57   S    
C42   H27   S    
C72   H48   S    
C47   C48   A    
N3    N6    A    
N15   Ni3   S    
C64   H41   S    
N10   N12   A    
C58   H37   S    
C1    N1    A    
C46   C47   A    
C84   C85   A    
C8    N4    A    
C5    C14   A    
N12   Ni2   S    
C11   N7    A    
C48   H29   S    
C6    N2    A    
N9    N14   A    
C9    C17   A    
C48   C49   A    
C77   C86   S    
C82   C83   A    
C3    C63   S    
C55   C57   A    
C67   H61   S    
C17   C74   S    
C59   H38   S    
C22   C24   A    
N5    Ni2   S    
C69   C79   S    
C8    H4    S    
C42   C43   A    
C56   H55   S    
C76   H54   S    
C52   C53   A    
C64   H47   S    
C44   C50   A    
C1    C86   A    
C54   C55   A    
C28   C29   A    
C59   C63   S    
C31   C32   A    
C7    C16   A    
C51   H30   S    
C80   C81   A    
C73   C79   A    
C10   N6    A    
C9    N5    A    
C61   H43   S    
C59   H39   S    
N1    N15   A    
C13   H8    S    
C80   H56   S    
C8    C17   A    
C65   I1    S    
C60   C64   S    
C32   C33   A    
C19   C20   A    
C13   C15   A    
C25   C26   A    
C38   C43   A    
C35   H20   S    
C10   C16   A    
C25   H15   S    
N7    N16   A    
C27   C37   S    
C40   C50   S    
C60   H40   S    
C33   C35   A    
C61   H42   S    
C43   H22   S    
C61   C65   S    
C69   C70   A    
N14   Ni4   S    
C44   H28   S    
C63   C64   S    
C31   C37   A    
C81   H57   S    
C71   C72   A    
C20   C21   A    
C70   H51   S    
C49   C50   A    
N4    Ni4   S    
C27   C28   A    
C40   C41   A    
C84   H60   S    
C12   N9    A    
N4    N5    A    
C54   H33   S    
N11   N13   A    
C7    H3    S    
