data_str_m2_o5_o29_f0_pcu.sym.51
_audit_creation_date              2013-03-05T16:36:14-0500
_audit_creation_method            fapswitch 2.2
_symmetry_space_group_name_H-M    P1
_symmetry_Int_Tables_number       1
_space_group_crystal_system       triclinic
_cell_length_a                    27.87132
_cell_length_b                    9.075213
_cell_length_c                    7.777156
_cell_angle_alpha                 90.014017
_cell_angle_beta                  90.219032
_cell_angle_gamma                 89.97945
_cell_volume                      1967.12501352

loop_
_atom_site_label
_atom_site_type_symbol
_atom_site_description
_atom_site_fract_x
_atom_site_fract_y
_atom_site_fract_z
_atom_type_partial_charge
O1    O     O_R   0.500000 0.288390 0.642760 -0.575115
O2    O     O_R   0.500000 0.711610 0.357240 -0.575123
O3    O     O_R   0.500000 0.711610 0.642760 -0.574704
O4    O     O_R   0.500000 0.288390 0.357240 -0.574698
C1    C     C_R   0.500001 0.220018 0.499987 0.854382
C2    C     C_R   0.499999 0.779982 0.500013 0.854364
O5    O     O_R   0.430260 0.500000 0.642770 -0.585296
O6    O     O_R   0.569740 0.500000 0.357230 -0.585321
O7    O     O_R   0.569740 0.500000 0.642770 -0.585995
O8    O     O_R   0.430260 0.500000 0.357230 -0.585966
C3    C     C_R   0.407210 0.500141 0.499628 0.799492
C4    C     C_R   0.592791 0.499872 0.500372 0.799558
Cu1   Cu    Cu3+1 0.500000 0.500000 0.669080 1.012463
Cu2   Cu    Cu3+1 0.500000 0.500000 0.330920 1.012463
C5    C     C_R   0.178430 0.382706 0.432167 0.601651
C6    C     C_R   0.821605 0.617617 0.567229 0.601484
C7    C     C_R   0.178512 0.625612 0.549021 0.599412
C8    C     C_R   0.821527 0.374272 0.451641 0.599240
O9    O     O_2   0.204177 0.264705 0.381820 -0.429062
O10   O     O_2   0.795877 0.735962 0.616593 -0.428917
O11   O     O_2   0.204406 0.741996 0.603815 -0.432677
O12   O     O_2   0.795646 0.257527 0.397838 -0.432548
N1    N     N_R   0.202218 0.503529 0.492396 -0.491414
N2    N     N_R   0.797808 0.496566 0.507633 -0.491294
C9    C     C_R   0.279169 0.507898 0.339791 -0.079507
C10   C     C_R   0.721394 0.500714 0.348640 -0.076351
C11   C     C_R   0.278604 0.496542 0.651324 -0.076594
C12   C     C_R   0.720835 0.495018 0.660278 -0.079248
C13   C     C_R   0.329170 0.506884 0.341421 -0.197962
C14   C     C_R   0.671351 0.501547 0.346638 -0.199363
C15   C     C_R   0.328648 0.495690 0.653322 -0.199201
C16   C     C_R   0.670835 0.496023 0.658633 -0.198126
C17   C     C_R   0.253724 0.502677 0.494597 0.330771
C18   C     C_R   0.746290 0.497413 0.505425 0.330184
C19   C     C_R   0.102225 0.504230 0.489994 -0.150997
C20   C     C_R   0.897811 0.495894 0.510037 -0.151086
C21   C     C_R   0.127809 0.380656 0.425857 -0.091765
C22   C     C_R   0.872222 0.619579 0.573823 -0.091722
C23   C     C_R   0.127847 0.629623 0.549655 -0.094585
C24   C     C_R   0.872193 0.370378 0.450721 -0.094544
C25   C     C_R   0.101858 0.260624 0.356753 0.450622
C26   C     C_R   0.898163 0.739661 0.642848 0.450786
C27   C     C_R   0.101867 0.754505 0.605291 0.447069
C28   C     C_R   0.898181 0.245480 0.395160 0.447203
C29   C     C_R   0.354381 0.500814 0.498260 -0.041521
C30   C     C_R   0.645621 0.499242 0.501743 -0.041565
H1    H     H_    0.347129 0.490781 0.775989 0.162007
H2    H     H_    0.651977 0.494035 0.780117 0.162443
H3    H     H_    0.348031 0.511190 0.219981 0.162453
H4    H     H_    0.652868 0.504125 0.223922 0.161979
H5    H     H_    0.259099 0.492094 0.771428 0.149770
H6    H     H_    0.739879 0.492081 0.781881 0.149149
H7    H     H_    0.260117 0.513061 0.218262 0.149014
H8    H     H_    0.740887 0.502946 0.228470 0.149854
C31   C     C_R   0.974489 0.373646 0.442938 0.018512
C32   C     C_R   0.025549 0.626475 0.557186 0.018517
C33   C     C_R   0.974470 0.622840 0.566453 0.019695
C34   C     C_R   0.025563 0.377341 0.433506 0.019699
C35   C     C_R   0.949052 0.497612 0.506037 0.080077
C36   C     C_R   0.050984 0.502530 0.494002 0.080093
C37   C     C_R   0.947952 0.247831 0.394486 -0.239938
C38   C     C_R   0.052096 0.752213 0.605858 -0.239842
C39   C     C_R   0.947920 0.739424 0.639398 -0.238739
C40   C     C_R   0.052101 0.260842 0.360334 -0.238729
H9    H     H_    0.964747 0.146123 0.357261 0.176131
H10   H     H_    0.035313 0.853903 0.643204 0.176136
H11   H     H_    0.964694 0.832655 0.700042 0.177337
H12   H     H_    0.035313 0.167683 0.299581 0.177378
C41   C     C_1   0.500000 0.065402 0.499982 -0.162329
C42   C     C_1   0.499999 0.934598 0.500018 -0.162326
N3    N     N_1   0.500000 0.500000 0.076820 -0.048437
N4    N     N_1   0.500000 0.500000 0.923180 -0.048437
Cl1   Cl    Cl    0.128405 0.106383 0.255410 -0.448681
Cl2   Cl    Cl    0.871596 0.893859 0.744215 -0.448667
Cl3   Cl    Cl    0.128354 0.921168 0.675875 -0.446539
Cl4   Cl    Cl    0.871707 0.078828 0.324478 -0.446454

loop_
_geom_bond_atom_site_label_1
_geom_bond_atom_site_label_2
_geom_bond_distance
_ccdc_geom_bond_type
C31   C35   1.418080 A    
Cu2   N3    1.976175 S    
C19   C23   1.420564 A    
C20   C35   1.428703 A    
C13   H3    1.083371 S    
C11   C17   1.401148 A    
O5    C3    1.283182 A    
C7    N1    1.363619 A    
O1    C1    1.271843 A    
C40   H12   1.074868 S    
C19   C21   1.420143 A    
C9    H7    1.083339 S    
C22   C26   1.412731 A    
C33   C35   1.418443 A    
C34   C36   1.418407 A    
O7    Cu1   1.955261 S    
C32   C33   1.426126 A    
C7    C23   1.412584 A    
C28   Cl4   1.769539 S    
C8    C24   1.412628 A    
C5    C21   1.411674 A    
C20   C24   1.420537 A    
C1    C41   1.403173 S    
C10   C18   1.400950 A    
N1    C17   1.435592 S    
C8    N2    1.363765 A    
O3    Cu1   1.931334 S    
C6    O10   1.347747 S    
O3    C2    1.271935 A    
C5    N1    1.363504 A    
C14   H4    1.083059 S    
C12   C18   1.400256 A    
C6    N2    1.363631 A    
C15   H1    1.083362 S    
Cu1   Cu2   2.629924 S    
C21   C25   1.412764 A    
C16   H2    1.083068 S    
O2    C2    1.271844 A    
C10   H8    1.083014 S    
C11   H5    1.083295 S    
C33   C39   1.411085 A    
C9    C13   1.393630 A    
C39   H11   1.074835 S    
C26   Cl2   1.769522 S    
C38   H10   1.074910 S    
C11   C15   1.394838 A    
C12   C16   1.393616 A    
C4    C30   1.472452 S    
O8    Cu2   1.955264 S    
C23   C27   1.413339 A    
C34   C40   1.411056 A    
N2    C18   1.435927 S    
C32   C36   1.418125 A    
C13   C29   1.406425 A    
C19   C36   1.428702 A    
C5    O9    1.347761 S    
O5    Cu1   1.953708 S    
O6    C4    1.283190 A    
C10   C14   1.394829 A    
C32   C38   1.411068 A    
C3    C29   1.472425 S    
O1    Cu1   1.931235 S    
C27   Cl3   1.769543 S    
C2    C42   1.403172 S    
O6    Cu2   1.953705 S    
C8    O12   1.347567 S    
C16   C30   1.406035 A    
C14   C30   1.405859 A    
O4    C1    1.271935 A    
Cu1   N4    1.976175 S    
C28   C37   1.387385 A    
C20   C22   1.420042 A    
N3    N4    1.194883 T    
C12   H6    1.083060 S    
C31   C37   1.411041 A    
O4    Cu2   1.931335 S    
C41   C42   1.187070 T    
O2    Cu2   1.931234 S    
O7    C4    1.282437 A    
C7    O11   1.347597 S    
O8    C3    1.282431 A    
C25   Cl1   1.769514 S    
C37   H9    1.074944 S    
C24   C28   1.413379 A    
C15   C29   1.406243 A    
C31   C34   1.426067 A    
C9    C17   1.400451 A    
C25   C40   1.387172 A    
C26   C39   1.387170 A    
C27   C38   1.387385 A    
C6    C22   1.411628 A    
