data_str_m2_o10_o29_f0_pcu.sym.86
_audit_creation_date              2012-10-26T20:17:42-0400
_audit_creation_method            fapswitch 2.2
_symmetry_space_group_name_H-M    P1
_symmetry_Int_Tables_number       1
_space_group_crystal_system       triclinic
_cell_length_a                    27.78517
_cell_length_b                    8.68832
_cell_length_c                    7.615276
_cell_angle_alpha                 103.72413
_cell_angle_beta                  96.4449
_cell_angle_gamma                 96.167138
_cell_volume                      1757.40680091

loop_
_atom_site_label
_atom_site_type_symbol
_atom_type_description
_atom_site_fract_x
_atom_site_fract_y
_atom_site_fract_z
_atom_type_partial_charge
C1    C     C_R   0.498470 0.199699 0.452476 0.558443
C2    C     C_R   0.866351 0.358176 0.473182 0.025001
C3    C     C_R   0.354401 0.496935 0.495200 0.008894
C4    C     C_R   0.645601 0.503097 0.504819 0.009021
C5    C     C_R   0.968082 0.352803 0.465539 0.018732
C6    C     C_R   0.031917 0.647300 0.534478 0.018713
C7    C     C_R   0.980888 0.648652 0.538408 0.019839
C8    C     C_R   0.019106 0.351445 0.461456 0.019834
C9    C     C_R   0.949307 0.501386 0.503757 0.034873
C10   C     C_R   0.050690 0.498714 0.496191 0.034873
C11   C     C_R   0.934826 0.210108 0.432708 -0.145220
C12   C     C_R   0.501530 0.800301 0.547524 0.558469
C13   C     C_R   0.065182 0.790004 0.567550 -0.145253
C14   C     C_R   0.885122 0.213153 0.436595 -0.108245
C15   C     C_R   0.114890 0.786963 0.563768 -0.108247
C16   C     C_R   0.407576 0.498881 0.498400 0.560068
C17   C     C_R   0.592424 0.501123 0.501602 0.560107
C18   C     C_R   0.039940 0.207291 0.423458 -0.145179
C19   C     C_R   0.960046 0.792797 0.576166 -0.145136
C20   C     C_2   0.497794 0.030671 0.427219 -0.136302
C21   C     C_2   0.502206 0.969329 0.572781 -0.136312
C22   C     C_R   0.171631 0.353032 0.453999 0.399415
C23   C     C_R   0.101753 0.497395 0.492775 -0.026524
C24   C     C_R   0.828359 0.647062 0.545736 0.399462
C25   C     C_R   0.183938 0.638030 0.524287 0.402611
C26   C     C_R   0.816071 0.362083 0.475991 0.402616
C27   C     C_R   0.283507 0.510543 0.655181 -0.053997
C28   C     C_R   0.716588 0.491920 0.345286 -0.053932
C29   C     C_R   0.333777 0.511780 0.657886 -0.132216
C30   C     C_R   0.666314 0.490599 0.342557 -0.132206
C31   C     C_R   0.323705 0.480027 0.329820 -0.129960
C32   C     C_R   0.676209 0.517686 0.669801 -0.129738
C33   C     C_R   0.273396 0.478606 0.327607 -0.052151
C34   C     C_R   0.898245 0.502706 0.507193 -0.026530
C35   C     C_R   0.726518 0.519090 0.672022 -0.052036
C36   C     C_R   0.253282 0.494151 0.490256 0.246825
C37   C     C_R   0.746721 0.505949 0.509796 0.246953
C38   C     C_2   0.446777 0.331234 0.950010 0.712585
C39   C     C_2   0.553225 0.668757 0.049989 0.712413
C40   C     C_R   0.121098 0.351559 0.455389 0.023718
C41   C     C_R   0.878892 0.648535 0.544360 0.023717
C42   C     C_R   0.089815 0.207777 0.420759 -0.118660
C43   C     C_R   0.910168 0.792309 0.578804 -0.118617
C44   C     C_R   0.133655 0.641934 0.527026 0.025010
Cu1   Cu    Cu3+1 0.505380 0.517380 0.684380 1.074275
Cu2   Cu    Cu3+1 0.494620 0.482620 0.315620 1.074267
H1    H     H_    0.103765 0.094025 0.391087 0.160044
H2    H     H_    0.054350 0.907482 0.597404 0.106841
H3    H     H_    0.493680 0.956600 0.288192 0.149401
H4    H     H_    0.506319 0.043400 0.711808 0.149388
H5    H     H_    0.338481 0.468140 0.202316 0.146359
H6    H     H_    0.661361 0.527678 0.796970 0.145616
H7    H     H_    0.403564 0.188966 0.727765 0.316005
H8    H     H_    0.596434 0.811038 0.272236 0.315960
H9    H     H_    0.250035 0.466064 0.199828 0.127896
H10   H     H_    0.749810 0.529783 0.799473 0.127627
H11   H     H_    0.018920 0.090587 0.394570 0.103646
H12   H     H_    0.896211 0.906055 0.608302 0.159944
H13   H     H_    0.981058 0.909494 0.604847 0.103566
H14   H     H_    0.643763 0.479603 0.213426 0.142866
H15   H     H_    0.356399 0.524633 0.787339 0.142604
H16   H     H_    0.732187 0.481752 0.219601 0.123706
H17   H     H_    0.267980 0.522569 0.781193 0.123952
H18   H     H_    0.861351 0.100371 0.410168 0.180845
H19   H     H_    0.138667 0.899754 0.590386 0.180836
H20   H     H_    0.945666 0.092639 0.403032 0.106747
N1    N     N_R   0.201774 0.494984 0.488582 -0.402343
N2    N     N_R   0.798227 0.505119 0.511444 -0.402371
N3    N     N_2   0.486510 0.456430 0.038510 -0.162034
N4    N     N_2   0.513490 0.543570 0.961490 -0.162063
O1    O     O_R   0.503500 0.286120 0.619780 -0.473442
O2    O     O_2   0.809415 0.786075 0.580284 -0.474271
O3    O     O_2   0.785200 0.224228 0.443296 -0.467510
O4    O     O_2   0.214815 0.775897 0.557223 -0.467633
O5    O     O_2   0.424402 0.264285 0.046225 -0.502970
O6    O     O_R   0.432143 0.278645 0.763503 -0.670830
O7    O     O_2   0.575608 0.735682 0.953771 -0.502698
O8    O     O_R   0.567852 0.721371 0.236498 -0.671050
O9    O     O_R   0.496500 0.713880 0.380220 -0.473374
O10   O     O_R   0.494410 0.256780 0.308360 -0.477013
O11   O     O_R   0.505590 0.743220 0.691640 -0.477059
O12   O     O_R   0.434810 0.514700 0.655690 -0.477042
O13   O     O_R   0.565190 0.485300 0.344310 -0.477068
O14   O     O_R   0.425720 0.485350 0.344280 -0.486522
O15   O     O_R   0.574280 0.514650 0.655720 -0.486431
O16   O     O_2   0.190566 0.214007 0.419225 -0.474399

loop_
_geom_bond_atom_site_label_1
_geom_bond_atom_site_label_2
_ccdc_geom_bond_type
C33   H9    S    
C37   N2    S    
Cu1   O1    S    
Cu1   O12   S    
C25   N1    A    
C26   O3    S    
C36   N1    S    
C38   O6    S    
Cu1   Cu2   S    
C1    O1    A    
C17   O15   A    
C39   O7    D    
C35   C37   A    
C15   C44   A    
C5    C11   A    
C18   C42   A    
Cu2   O9    S    
C11   C14   A    
C27   C29   A    
C23   C40   A    
C15   H19   S    
C12   O9    A    
C16   O14   A    
C33   C36   A    
C25   O4    S    
C3    C29   A    
C32   H6    S    
Cu2   N3    S    
C43   H12   S    
C30   H14   S    
C31   C33   A    
C11   H20   S    
C2    C34   A    
C40   C42   A    
C35   H10   S    
C38   N3    S    
C22   C40   A    
C24   C41   A    
C41   C43   A    
C34   C41   A    
C25   C44   A    
C21   H4    S    
C19   C43   A    
C38   O5    D    
C29   H15   S    
C39   O8    S    
C19   H13   S    
C12   C21   S    
C8    C18   A    
C23   C44   A    
C17   O13   A    
Cu1   O15   S    
C32   C35   A    
C5    C9    A    
C20   H3    S    
C13   H2    S    
C18   H11   S    
C14   H18   S    
C16   O12   A    
C2    C26   A    
C3    C31   A    
C4    C32   A    
C27   H17   S    
Cu2   O14   S    
C4    C17   S    
C7    C19   A    
C13   C15   A    
C9    C34   A    
C10   C23   A    
H7    O6    S    
C24   O2    S    
C7    C9    A    
C1    C20   S    
Cu1   N4    S    
Cu1   O11   S    
C31   H5    S    
C6    C10   A    
C5    C8    A    
C6    C7    A    
C27   C36   A    
C26   N2    A    
C28   C30   A    
C6    C13   A    
Cu2   O10   S    
C28   C37   A    
C39   N4    S    
C12   O11   A    
C42   H1    S    
C22   O16   S    
N3    N4    D    
C2    C14   A    
C22   N1    A    
C24   N2    A    
Cu2   O13   S    
C20   C21   D    
C8    C10   A    
C1    O10   A    
C4    C30   A    
C3    C16   S    
H8    O8    S    
C28   H16   S    
