data_str_m4_o22_o22_f0_acs.sym.92
_audit_creation_date              2012-12-11T15:07:11-0500
_audit_creation_method            fapswitch 2.2
_symmetry_space_group_name_H-M    P1
_symmetry_Int_Tables_number       1
_space_group_crystal_system       triclinic
_cell_length_a                    19.647669
_cell_length_b                    11.365731
_cell_length_c                    18.69602
_cell_angle_alpha                 89.99989
_cell_angle_beta                  90.188293
_cell_angle_gamma                 89.999335
_cell_volume                      4174.98793623

loop_
_atom_site_label
_atom_site_type_symbol
_atom_type_description
_atom_site_fract_x
_atom_site_fract_y
_atom_site_fract_z
_atom_type_partial_charge
C1    C     C_R   0.761107 0.524926 0.639601 0.541935
C2    C     C_R   0.238893 0.524931 0.360398 0.541884
C3    C     C_R   0.261107 0.024932 0.639603 0.541855
C4    C     C_R   0.738894 0.024931 0.360397 0.541907
C5    C     C_3   0.810334 0.133359 0.449400 -0.282957
C6    C     C_3   0.189665 0.133360 0.550600 -0.282971
C7    C     C_3   0.310333 0.633356 0.449400 -0.282968
C8    C     C_3   0.689663 0.633350 0.550599 -0.282979
C9    C     C_3   0.746533 0.060054 0.436282 0.041783
C10   C     C_3   0.253470 0.060059 0.563718 0.041769
C11   C     C_3   0.246529 0.560056 0.436283 0.041760
C12   C     C_3   0.753465 0.560042 0.563716 0.041783
C13   C     C_3   0.758908 0.093026 0.574128 0.082912
C14   C     C_3   0.241082 0.093018 0.425873 0.082896
C15   C     C_3   0.258917 0.593019 0.574128 0.082898
C16   C     C_3   0.741083 0.593010 0.425871 0.082892
C17   C     C_3   0.748696 0.962420 0.561454 -0.254731
C18   C     C_3   0.251309 0.962419 0.438547 -0.254756
C19   C     C_3   0.248689 0.462419 0.561455 -0.254756
C20   C     C_3   0.751305 0.462408 0.438545 -0.254742
C21   C     C_3   0.822955 0.132916 0.530541 -0.269687
C22   C     C_3   0.177034 0.132899 0.469460 -0.269704
C23   C     C_3   0.322964 0.632897 0.530540 -0.269713
C24   C     C_3   0.677035 0.632897 0.469458 -0.269688
C25   C     C_3   0.004686 0.201814 0.458923 -0.230868
C26   C     C_3   0.995306 0.201815 0.541073 -0.230857
C27   C     C_3   0.504683 0.701808 0.458921 -0.230873
C28   C     C_3   0.495297 0.701796 0.541072 -0.230893
C29   C     C_3   0.064173 0.402842 0.474741 -0.207083
C30   C     C_3   0.935821 0.402852 0.525254 -0.207072
C31   C     C_3   0.564182 0.902833 0.474751 -0.207059
C32   C     C_3   0.435833 0.902844 0.525261 -0.207057
C33   C     C_3   0.941365 0.383978 0.444395 -0.259036
C34   C     C_3   0.058630 0.383975 0.555601 -0.259060
C35   C     C_3   0.441376 0.883992 0.444400 -0.259027
C36   C     C_3   0.558646 0.883909 0.555607 -0.259058
C37   C     C_3   0.010671 0.330042 0.430896 0.049750
C38   C     C_3   0.989323 0.330045 0.569101 0.049755
C39   C     C_3   0.510677 0.830043 0.430899 0.049750
C40   C     C_3   0.489329 0.830023 0.569105 0.049722
C41   C     C_3   0.819293 0.026214 0.046678 -0.234596
C42   C     C_3   0.180707 0.026215 0.953323 -0.234597
C43   C     C_3   0.319293 0.526214 0.046678 -0.234598
C44   C     C_3   0.680707 0.526215 0.953323 -0.234599
C45   C     C_R   0.773854 0.121323 0.649590 0.559583
C46   C     C_R   0.226143 0.121322 0.350410 0.559585
C47   C     C_R   0.273857 0.621322 0.649590 0.559591
C48   C     C_R   0.726144 0.621319 0.350409 0.559599
C49   C     C_3   0.818519 0.022319 0.965924 -0.235457
C50   C     C_3   0.181483 0.022318 0.034076 -0.235456
C51   C     C_3   0.318519 0.522319 0.965924 -0.235453
C52   C     C_3   0.681483 0.522318 0.034076 -0.235457
C53   C     C_3   0.691031 0.015638 0.031340 -0.224528
C54   C     C_3   0.308969 0.015637 0.968660 -0.224526
C55   C     C_3   0.191031 0.515638 0.031340 -0.224527
C56   C     C_3   0.808969 0.515637 0.968660 -0.224529
C57   C     C_3   0.744439 0.202070 0.061101 -0.254679
C58   C     C_3   0.255559 0.202070 0.938899 -0.254676
C59   C     C_3   0.244439 0.702070 0.061101 -0.254677
C60   C     C_3   0.755559 0.702070 0.938898 -0.254678
C61   C     C_3   0.749008 0.071187 0.075404 0.063138
C62   C     C_3   0.250991 0.071186 0.924596 0.063136
C63   C     C_3   0.249008 0.571187 0.075404 0.063137
C64   C     C_3   0.750991 0.571187 0.924596 0.063132
C65   C     C_3   0.760748 0.103741 0.936090 0.061722
C66   C     C_3   0.239253 0.103741 0.063909 0.061726
C67   C     C_3   0.260748 0.603741 0.936090 0.061725
C68   C     C_3   0.739253 0.603741 0.063909 0.061725
C69   C     C_3   0.693588 0.042442 0.950126 -0.252773
C70   C     C_3   0.306414 0.042444 0.049874 -0.252775
C71   C     C_3   0.193587 0.542442 0.950126 -0.252775
C72   C     C_3   0.806414 0.542444 0.049874 -0.252774
C73   C     C_3   0.758252 0.219061 0.980273 -0.231227
C74   C     C_3   0.241747 0.219061 0.019727 -0.231227
C75   C     C_3   0.258252 0.719061 0.980273 -0.231227
C76   C     C_3   0.741747 0.719061 0.019727 -0.231226
C77   C     C_3   0.998526 0.480169 0.040649 -0.236130
C78   C     C_3   0.001472 0.480168 0.959350 -0.236128
C79   C     C_3   0.498526 0.980169 0.040649 -0.236133
C80   C     C_3   0.501472 0.980168 0.959350 -0.236123
C81   C     C_3   0.067357 0.292392 0.026429 -0.227070
C82   C     C_3   0.932644 0.292389 0.973570 -0.227068
C83   C     C_3   0.567357 0.792392 0.026429 -0.227068
C84   C     C_3   0.432644 0.792389 0.973570 -0.227068
C85   C     C_3   0.946647 0.281489 0.054508 -0.256569
C86   C     C_3   0.053353 0.281489 0.945492 -0.256572
C87   C     C_3   0.446647 0.781489 0.054508 -0.256568
C88   C     C_3   0.553353 0.781489 0.945492 -0.256573
C89   C     C_R   0.968949 0.341667 0.645044 0.534649
C90   C     C_R   0.031047 0.341666 0.354953 0.534651
C91   C     C_R   0.468953 0.841662 0.645047 0.534630
C92   C     C_R   0.531052 0.841667 0.354957 0.534648
C93   C     C_3   0.010192 0.352409 0.069560 0.063838
C94   C     C_3   0.989807 0.352407 0.930439 0.063840
C95   C     C_3   0.510192 0.852409 0.069560 0.063839
C96   C     C_3   0.489807 0.852407 0.930440 0.063833
C97   C     C_R   0.760001 0.534917 0.848236 0.535961
C98   C     C_R   0.239998 0.534917 0.151764 0.535950
C99   C     C_R   0.260001 0.034917 0.848236 0.535933
C100  C     C_R   0.739998 0.034917 0.151764 0.535962
C101  C     C_R   0.774326 0.132669 0.858897 0.537517
C102  C     C_R   0.225674 0.132669 0.141103 0.537504
C103  C     C_R   0.274326 0.632669 0.858897 0.537501
C104  C     C_R   0.725674 0.632669 0.141103 0.537516
C105  C     C_R   0.968489 0.353492 0.853861 0.537819
C106  C     C_R   0.031511 0.353492 0.146139 0.537825
C107  C     C_R   0.468489 0.853492 0.853861 0.537815
C108  C     C_R   0.531511 0.853492 0.146139 0.537822
C109  C     C_3   0.686305 0.134445 0.464074 -0.200350
C110  C     C_3   0.313698 0.134448 0.535918 -0.200376
C111  C     C_3   0.186301 0.634446 0.464084 -0.200403
C112  C     C_3   0.813692 0.634432 0.535918 -0.200372
C113  C     C_3   0.694402 0.157197 0.545037 0.157579
C114  C     C_3   0.305573 0.157209 0.454964 0.157566
C115  C     C_3   0.194426 0.657212 0.545040 0.157538
C116  C     C_3   0.805574 0.657196 0.454963 0.157540
C117  C     C_3   0.754292 0.944270 0.480598 -0.233647
C118  C     C_3   0.245716 0.944273 0.519404 -0.233637
C119  C     C_3   0.254283 0.444271 0.480598 -0.233643
C120  C     C_3   0.745701 0.444255 0.519401 -0.233688
Cr1   Cr    Cr6+3 0.885690 0.492860 0.745310 0.987166
Cr2   Cr    Cr6+3 0.114310 0.492860 0.254690 0.987203
Cr3   Cr    Cr6+3 0.385690 0.992860 0.745310 0.987303
Cr4   Cr    Cr6+3 0.614310 0.992860 0.254690 0.987139
Cr5   Cr    Cr6+3 0.729880 0.332270 0.748190 0.987396
Cr6   Cr    Cr6+3 0.270120 0.332270 0.251810 0.987529
Cr7   Cr    Cr6+3 0.229880 0.832270 0.748190 0.987604
Cr8   Cr    Cr6+3 0.770120 0.832270 0.251810 0.987434
Cr9   Cr    Cr6+3 0.888120 0.178590 0.753010 0.985136
Cr10  Cr    Cr6+3 0.111880 0.178590 0.246990 0.985099
Cr11  Cr    Cr6+3 0.388120 0.678590 0.753010 0.985093
Cr12  Cr    Cr6+3 0.611880 0.678590 0.246990 0.985129
H1    H     H_    0.638280 0.091392 0.452481 0.147954
H2    H     H_    0.361723 0.091381 0.547486 0.147896
H3    H     H_    0.138278 0.591376 0.452515 0.147924
H4    H     H_    0.861717 0.591373 0.547494 0.147930
H5    H     H_    0.862404 0.065154 0.540594 0.134333
H6    H     H_    0.137586 0.065133 0.459413 0.134339
H7    H     H_    0.362407 0.565121 0.540586 0.134332
H8    H     H_    0.637585 0.565136 0.459408 0.134354
H9    H     H_    0.807561 0.915829 0.471707 0.122439
H10   H     H_    0.192447 0.915835 0.528295 0.122407
H11   H     H_    0.307552 0.415830 0.471708 0.122413
H12   H     H_    0.692425 0.415830 0.528283 0.122431
H13   H     H_    0.788262 0.910197 0.589835 0.106426
H14   H     H_    0.211748 0.910185 0.410166 0.106397
H15   H     H_    0.288249 0.410183 0.589837 0.106419
H16   H     H_    0.711748 0.410179 0.410157 0.106435
H17   H     H_    0.047968 0.149138 0.443072 0.132147
H18   H     H_    0.952023 0.149146 0.556924 0.132082
H19   H     H_    0.547964 0.649130 0.443072 0.132093
H20   H     H_    0.452010 0.649143 0.556920 0.132104
H21   H     H_    0.961136 0.156575 0.433225 0.104977
H22   H     H_    0.038854 0.156567 0.566772 0.105063
H23   H     H_    0.461133 0.656576 0.433217 0.105019
H24   H     H_    0.538837 0.656522 0.566771 0.105150
H25   H     H_    0.615690 0.889024 0.455635 0.116145
H26   H     H_    0.384322 0.889021 0.544363 0.116143
H27   H     H_    0.115682 0.389017 0.455634 0.116138
H28   H     H_    0.884309 0.389036 0.544359 0.116141
H29   H     H_    0.599822 0.826338 0.575670 0.105027
H30   H     H_    0.400185 0.826478 0.424306 0.105051
H31   H     H_    0.099815 0.326443 0.575688 0.105042
H32   H     H_    0.900179 0.326448 0.424308 0.105046
H33   H     H_    0.937173 0.467609 0.415289 0.194849
H34   H     H_    0.062826 0.467610 0.584703 0.194808
H35   H     H_    0.437195 0.967639 0.415307 0.194837
H36   H     H_    0.562870 0.967493 0.584747 0.194841
H37   H     H_    0.948501 0.496438 0.534717 0.126362
H38   H     H_    0.051498 0.496425 0.465271 0.126284
H39   H     H_    0.448511 0.996424 0.534738 0.126229
H40   H     H_    0.551507 0.996427 0.465308 0.126378
H41   H     H_    0.834758 0.937670 0.065029 0.138672
H42   H     H_    0.165242 0.937671 0.934971 0.138670
H43   H     H_    0.334758 0.437670 0.065029 0.138670
H44   H     H_    0.665242 0.437671 0.934971 0.138676
H45   H     H_    0.683594 0.219487 0.435083 0.066370
H46   H     H_    0.316424 0.219486 0.564912 0.066362
H47   H     H_    0.183574 0.719482 0.435088 0.066433
H48   H     H_    0.816413 0.719470 0.564913 0.066374
H49   H     H_    0.859874 0.085883 0.065860 0.114988
H50   H     H_    0.140125 0.085884 0.934141 0.114989
H51   H     H_    0.359874 0.585883 0.065860 0.114989
H52   H     H_    0.640125 0.585884 0.934141 0.114986
H53   H     H_    0.870477 0.043214 0.947802 0.134089
H54   H     H_    0.129525 0.043211 0.052199 0.134091
H55   H     H_    0.370477 0.543214 0.947802 0.134093
H56   H     H_    0.629525 0.543211 0.052199 0.134090
H57   H     H_    0.809517 0.931103 0.947349 0.117164
H58   H     H_    0.190486 0.931103 0.052651 0.117166
H59   H     H_    0.309517 0.431103 0.947349 0.117169
H60   H     H_    0.690486 0.431103 0.052651 0.117164
H61   H     H_    0.700210 0.924260 0.039461 0.108965
H62   H     H_    0.299790 0.924259 0.960541 0.108961
H63   H     H_    0.200210 0.424260 0.039461 0.108964
H64   H     H_    0.799790 0.424259 0.960541 0.108964
H65   H     H_    0.689191 0.960212 0.918342 0.102103
H66   H     H_    0.310812 0.960215 0.081659 0.102100
H67   H     H_    0.189191 0.460212 0.918342 0.102101
H68   H     H_    0.810812 0.460215 0.081659 0.102103
H69   H     H_    0.692841 0.234836 0.075104 0.120243
H70   H     H_    0.307156 0.234836 0.924895 0.120253
H71   H     H_    0.192841 0.734836 0.075104 0.120245
H72   H     H_    0.807156 0.734836 0.924895 0.120244
H73   H     H_    0.782179 0.250984 0.094066 0.100563
H74   H     H_    0.217818 0.250984 0.905934 0.100562
H75   H     H_    0.282179 0.750984 0.094066 0.100562
H76   H     H_    0.717818 0.750984 0.905934 0.100561
H77   H     H_    0.808913 0.250970 0.976850 0.110615
H78   H     H_    0.191086 0.250970 0.023150 0.110616
H79   H     H_    0.308913 0.750970 0.976850 0.110614
H80   H     H_    0.691086 0.750970 0.023150 0.110616
H81   H     H_    0.720984 0.280672 0.957157 0.126044
H82   H     H_    0.279015 0.280671 0.042842 0.126041
H83   H     H_    0.220984 0.780672 0.957157 0.126040
H84   H     H_    0.779015 0.780671 0.042842 0.126042
H85   H     H_    0.641359 0.041908 0.052974 0.129821
H86   H     H_    0.358641 0.041904 0.947025 0.129824
H87   H     H_    0.141359 0.541908 0.052974 0.129820
H88   H     H_    0.858641 0.541904 0.947025 0.129824
H89   H     H_    0.704652 0.247981 0.554613 0.131336
H90   H     H_    0.295263 0.247974 0.445402 0.131299
H91   H     H_    0.204731 0.747979 0.554597 0.131326
H92   H     H_    0.795270 0.747966 0.445405 0.131298
H93   H     H_    0.651176 0.101924 0.934595 0.118874
H94   H     H_    0.348823 0.101927 0.065402 0.118864
H95   H     H_    0.151176 0.601924 0.934595 0.118866
H96   H     H_    0.848823 0.601927 0.065402 0.118870
H97   H     H_    0.034881 0.546634 0.060466 0.133379
H98   H     H_    0.965117 0.546635 0.939533 0.133380
H99   H     H_    0.534881 0.046634 0.060466 0.133379
H100  H     H_    0.465117 0.046635 0.939533 0.133384
H101  H     H_    0.948196 0.511608 0.058674 0.116300
H102  H     H_    0.051803 0.511606 0.941327 0.116295
H103  H     H_    0.448195 0.011608 0.058674 0.116294
H104  H     H_    0.551803 0.011607 0.941327 0.116302
H105  H     H_    0.608392 0.851846 0.033314 0.109014
H106  H     H_    0.391607 0.851838 0.966683 0.109011
H107  H     H_    0.108392 0.351846 0.033314 0.109013
H108  H     H_    0.891607 0.351839 0.966683 0.109013
H109  H     H_    0.597126 0.814599 0.913837 0.100556
H110  H     H_    0.402873 0.814599 0.086162 0.100553
H111  H     H_    0.097126 0.314599 0.913836 0.100554
H112  H     H_    0.902873 0.314599 0.086162 0.100557
H113  H     H_    0.955692 0.188024 0.069187 0.119794
H114  H     H_    0.044310 0.188024 0.930814 0.119795
H115  H     H_    0.455692 0.688024 0.069187 0.119795
H116  H     H_    0.544310 0.688024 0.930814 0.119792
H117  H     H_    0.920531 0.205417 0.951326 0.134442
H118  H     H_    0.079473 0.205422 0.048674 0.134445
H119  H     H_    0.420531 0.705417 0.951326 0.134444
H120  H     H_    0.579473 0.705422 0.048674 0.134445
H121  H     H_    0.719367 0.875743 0.462774 0.094643
H122  H     H_    0.280642 0.875748 0.537228 0.094640
H123  H     H_    0.219358 0.375747 0.462774 0.094639
H124  H     H_    0.780616 0.375713 0.537230 0.094669
H125  H     H_    0.698553 0.933308 0.581585 0.153183
H126  H     H_    0.301454 0.933325 0.418416 0.153162
H127  H     H_    0.198542 0.433329 0.581585 0.153156
H128  H     H_    0.801453 0.433314 0.418421 0.153156
H129  H     H_    0.854610 0.094738 0.421118 0.131966
H130  H     H_    0.145391 0.094748 0.578891 0.131990
H131  H     H_    0.354606 0.594740 0.421110 0.131981
H132  H     H_    0.645387 0.594743 0.578888 0.132017
H133  H     H_    0.802974 0.224145 0.429285 0.105636
H134  H     H_    0.197027 0.224151 0.570706 0.105627
H135  H     H_    0.302973 0.724148 0.429293 0.105630
H136  H     H_    0.697032 0.724138 0.570707 0.105621
H137  H     H_    0.842259 0.218168 0.548789 0.113073
H138  H     H_    0.157729 0.218151 0.451210 0.113074
H139  H     H_    0.342269 0.718149 0.548789 0.113071
H140  H     H_    0.657733 0.718153 0.451210 0.113076
O1    O     O_R   0.957210 0.449410 0.665480 -0.534237
O2    O     O_R   0.042790 0.449410 0.334520 -0.534227
O3    O     O_R   0.457210 0.949410 0.665480 -0.534064
O4    O     O_R   0.542790 0.949410 0.334520 -0.534263
O5    O     O_R   0.736260 0.212010 0.826560 -0.511721
O6    O     O_R   0.263740 0.212010 0.173440 -0.511781
O7    O     O_R   0.236260 0.712010 0.826560 -0.511766
O8    O     O_R   0.763740 0.712010 0.173440 -0.511772
O9    O     O_R   0.832520 0.095300 0.836000 -0.534758
O10   O     O_R   0.167480 0.095300 0.164000 -0.534750
O11   O     O_R   0.332520 0.595300 0.836000 -0.534744
O12   O     O_R   0.667480 0.595300 0.164000 -0.534756
O13   O     O_R   0.946380 0.253940 0.826940 -0.513921
O14   O     O_R   0.053620 0.253940 0.173060 -0.513927
O15   O     O_R   0.446380 0.753940 0.826940 -0.513944
O16   O     O_R   0.553620 0.753940 0.173060 -0.513917
O17   O     O_3   0.834560 0.334570 0.748840 -0.275344
O18   O     O_3   0.165440 0.334570 0.251160 -0.275376
O19   O     O_3   0.334560 0.834570 0.748840 -0.275395
O20   O     O_3   0.665440 0.834570 0.251160 -0.275357
O21   O     O_R   0.820730 0.541240 0.668250 -0.516029
O22   O     O_R   0.179270 0.541240 0.331750 -0.516065
O23   O     O_R   0.320730 0.041240 0.668250 -0.516112
O24   O     O_R   0.679270 0.041240 0.331750 -0.516070
O25   O     O_R   0.714240 0.455060 0.663710 -0.544282
O26   O     O_R   0.285760 0.455060 0.336290 -0.543732
O27   O     O_R   0.214240 0.955060 0.663710 -0.543734
O28   O     O_R   0.785760 0.955060 0.336290 -0.543891
O29   O     O_R   0.736780 0.204870 0.675910 -0.489139
O30   O     O_R   0.263220 0.204870 0.324090 -0.489071
O31   O     O_R   0.236780 0.704870 0.675910 -0.488969
O32   O     O_R   0.763220 0.704870 0.324090 -0.489196
O33   O     O_R   0.833070 0.087590 0.673490 -0.539168
O34   O     O_R   0.166930 0.087590 0.326510 -0.539178
O35   O     O_R   0.333070 0.587590 0.673490 -0.539180
O36   O     O_R   0.666930 0.587590 0.326510 -0.539165
O37   O     O_R   0.946890 0.246800 0.676300 -0.511895
O38   O     O_R   0.053110 0.246800 0.323700 -0.511907
O39   O     O_R   0.446890 0.746800 0.676300 -0.511939
O40   O     O_R   0.553110 0.746800 0.323700 -0.511885
O41   O     O_R   0.956650 0.457120 0.827980 -0.532313
O42   O     O_R   0.043350 0.457120 0.172020 -0.532298
O43   O     O_R   0.456650 0.957120 0.827980 -0.532250
O44   O     O_R   0.543350 0.957120 0.172020 -0.532320
O45   O     O_R   0.820220 0.548390 0.818890 -0.510224
O46   O     O_R   0.179780 0.548390 0.181110 -0.510236
O47   O     O_R   0.320220 0.048390 0.818890 -0.510229
O48   O     O_R   0.679780 0.048390 0.181110 -0.510229
O49   O     O_R   0.713680 0.462770 0.826210 -0.536954
O50   O     O_R   0.286320 0.462770 0.173790 -0.536979
O51   O     O_R   0.213680 0.962770 0.826210 -0.536973
O52   O     O_R   0.786320 0.962770 0.173790 -0.536980
O53   O     O_3   0.635054 0.127237 0.583658 -0.591056
C121  C     C_3   0.581429 0.208934 0.570990 -0.010051
H141  H     H_    0.536849 0.159830 0.550227 0.121941
H142  H     H_    0.593216 0.277938 0.530389 0.097238
C122  C     C_3   0.561099 0.268098 0.641047 -0.240619
H143  H     H_    0.545823 0.199835 0.680430 0.174797
H144  H     H_    0.605316 0.317013 0.663097 0.198081
C123  C     C_3   0.501982 0.353412 0.629627 -0.483099
H145  H     H_    0.516367 0.423010 0.590770 0.133900
H146  H     H_    0.488715 0.395958 0.681188 0.151265
H147  H     H_    0.456540 0.305642 0.609228 0.138366
O54   O     O_3   0.364918 0.127325 0.416317 -0.591054
C124  C     C_3   0.418501 0.209122 0.428944 -0.009646
H148  H     H_    0.462897 0.160275 0.450367 0.121307
H149  H     H_    0.406464 0.278837 0.469020 0.097570
C125  C     C_3   0.439368 0.267085 0.358683 -0.240427
H150  H     H_    0.455201 0.198147 0.319969 0.174779
H151  H     H_    0.395235 0.315235 0.335811 0.197781
C126  C     C_3   0.498167 0.353082 0.370111 -0.482559
H152  H     H_    0.483028 0.423812 0.407889 0.134203
H153  H     H_    0.512183 0.394052 0.318299 0.151138
H154  H     H_    0.543380 0.306264 0.391852 0.137750
O55   O     O_3   0.135086 0.627338 0.583698 -0.590998
C127  C     C_3   0.081480 0.709063 0.571013 -0.009625
H155  H     H_    0.037110 0.660140 0.549614 0.121359
H156  H     H_    0.093501 0.778719 0.530905 0.097406
C128  C     C_3   0.060574 0.767131 0.641221 -0.240437
H157  H     H_    0.044891 0.698247 0.680025 0.174920
H158  H     H_    0.104638 0.815580 0.664007 0.197537
C129  C     C_3   0.001617 0.852773 0.629728 -0.482681
H159  H     H_    0.016584 0.923405 0.591813 0.134208
H160  H     H_    0.987606 0.893909 0.681490 0.151187
H161  H     H_    0.956458 0.805624 0.608121 0.137811
O56   O     O_3   0.864927 0.627318 0.416323 -0.591044
C130  C     C_3   0.918502 0.709124 0.428976 -0.009769
H162  H     H_    0.962983 0.660222 0.450155 0.121352
H163  H     H_    0.906525 0.778554 0.469254 0.097547
C131  C     C_3   0.939173 0.767560 0.358793 -0.240436
H164  H     H_    0.955250 0.698892 0.320000 0.174350
H165  H     H_    0.894862 0.815338 0.335967 0.198331
C132  C     C_3   0.997682 0.854182 0.370348 -0.482410
H166  H     H_    0.982253 0.924704 0.408159 0.134134
H167  H     H_    0.011600 0.895433 0.318587 0.151196
H168  H     H_    0.043059 0.807786 0.392115 0.137657

loop_
_geom_bond_atom_site_label_1
_geom_bond_atom_site_label_2
_ccdc_geom_bond_type
C83   H105  S    
C5    H133  S    
C82   C94   S    
C119  H11   S    
C82   H117  S    
C120  H12   S    
C45   O33   A    
C53   C69   S    
C104  O8    A    
C124  H148  S    
C43   C63   S    
C44   C64   S    
Cr6   O6    S    
C102  O10   A    
C80   H100  S    
C63   C98   S    
Cr2   O2    S    
C19   H127  S    
C31   H40   S    
C28   C40   S    
C36   H36   S    
C30   C38   S    
Cr9   O33   S    
C56   C72   S    
C121  H141  S    
C21   H5    S    
C8    H132  S    
C18   C118  S    
C81   C86   S    
C5    H129  S    
C83   C88   S    
C48   O32   A    
C74   H82   S    
C89   O1    A    
C41   C49   S    
C111  H3    S    
C54   H86   S    
Cr1   O45   S    
Cr2   O42   S    
Cr3   O47   S    
Cr4   O48   S    
C125  H150  S    
C88   H109  S    
C26   C38   S    
Cr10  O34   S    
C14   C114  S    
Cr11  O39   S    
C60   C76   S    
C24   H8    S    
Cr8   O52   S    
C69   H93   S    
C30   H37   S    
C54   C70   S    
C48   O36   A    
C68   C72   S    
C75   H79   S    
C121  C122  S    
C97   O45   A    
C13   C21   S    
C87   H115  S    
C113  H89   S    
C31   H25   S    
C102  O6    A    
C64   C97   S    
C36   H29   S    
C15   C115  S    
C20   C120  S    
C124  C125  S    
C101  O5    A    
C59   C63   S    
C70   H94   S    
C125  H151  S    
O54   C124  S    
Cr4   O20   S    
C57   C61   S    
C82   C85   S    
Cr6   O50   S    
C77   H97   S    
Cr11  O19   S    
C60   C64   S    
Cr9   O13   S    
C132  H166  S    
C13   C45   S    
C66   C70   S    
C78   C94   S    
C43   H51   S    
C127  H155  S    
C127  C128  S    
C95   C108  S    
C115  H91   S    
C62   C99   S    
C107  O43   A    
C5    C21   S    
C58   H70   S    
C130  H162  S    
C110  H46   S    
C31   C36   S    
C47   O35   A    
C4    O28   A    
Cr5   O17   S    
C90   O38   A    
C54   H62   S    
Cr1   O21   S    
C80   H104  S    
C128  H157  S    
Cr2   O18   S    
C125  C126  S    
C65   C101  S    
Cr10  O14   S    
Cr3   O23   S    
Cr11  O11   S    
C128  C129  S    
C67   C103  S    
C115  O55   S    
C131  H165  S    
C37   C90   S    
C24   H140  S    
C73   H77   S    
C131  H164  S    
C66   C74   S    
C25   H17   S    
C57   C73   S    
C85   C93   S    
C60   H72   S    
C56   H88   S    
C87   C95   S    
C6    H134  S    
C56   C64   S    
C7    H131  S    
C45   O29   A    
C42   C62   S    
C78   H102  S    
C112  H48   S    
Cr5   O29   S    
C76   H80   S    
C70   H66   S    
C56   H64   S    
C84   H119  S    
C85   H113  S    
C122  H144  S    
C1    C12   S    
C43   H43   S    
C112  H4    S    
C2    C11   S    
C77   H101  S    
Cr3   O3    S    
C7    C11   S    
C53   H85   S    
C123  H145  S    
C6    H130  S    
C42   H42   S    
C132  H168  S    
Cr9   O37   S    
C55   H87   S    
C25   C26   S    
C85   H112  S    
C105  O13   A    
C107  O15   A    
C5    C9    S    
C108  O16   A    
C109  H45   S    
C93   C106  S    
C88   H116  S    
C8    C12   S    
C90   O2    A    
C51   C67   S    
C7    H135  S    
C42   C50   S    
Cr2   O46   S    
C126  H153  S    
Cr3   O43   S    
C110  H2    S    
C61   C100  S    
C67   C75   S    
C17   H125  S    
C91   O3    A    
C50   H54   S    
C112  C116  S    
C51   H59   S    
C58   C74   S    
Cr10  O38   S    
C59   H75   S    
C41   H41   S    
C33   H33   S    
C44   H44   S    
C68   C76   S    
C129  H160  S    
C1    O21   A    
C98   O46   A    
C14   C22   S    
C3    O23   A    
C7    C23   S    
C8    C24   S    
C130  C131  S    
C40   C91   S    
C101  O9    A    
Cr7   O27   S    
C99   O51   A    
Cr8   O20   S    
C49   H53   S    
C129  H159  S    
C57   H69   S    
C121  H142  S    
C52   H56   S    
Cr7   O7    S    
C4    C9    S    
Cr4   O24   S    
Cr8   O8    S    
C58   C62   S    
C111  H47   S    
C88   C96   S    
C94   C105  S    
C59   C75   S    
C83   H120  S    
C53   H61   S    
C79   H99   S    
C123  H147  S    
C12   C112  S    
C81   H118  S    
C41   H49   S    
C21   H137  S    
C14   C46   S    
C77   C78   S    
C42   H50   S    
C15   C19   S    
C23   H139  S    
C1    O25   A    
C114  O54   S    
C58   H74   S    
C6    C22   S    
C2    O22   A    
Cr11  O35   S    
Cr6   O18   S    
C86   H111  S    
Cr8   O28   S    
Cr2   O22   S    
C103  O7    A    
Cr3   O19   S    
C46   O34   A    
C17   C117  S    
C19   C119  S    
C27   H23   S    
C73   H81   S    
Cr12  O36   S    
C16   C116  S    
C124  H149  S    
C9    C109  S    
C25   H21   S    
C26   H18   S    
C105  O41   A    
O55   C127  S    
C60   H76   S    
C87   H110  S    
C54   C62   S    
C18   H14   S    
C109  H1    S    
C29   C34   S    
C108  O44   A    
C33   C37   S    
C41   C61   S    
C81   H107  S    
C116  H92   S    
C117  H9    S    
C79   C95   S    
Cr5   O25   S    
C76   H84   S    
Cr6   O30   S    
C127  H156  S    
C114  H90   S    
Cr12  O12   S    
C32   H39   S    
C91   O39   A    
C100  O52   A    
C39   C92   S    
C27   H19   S    
C106  O14   A    
C14   C18   S    
C84   H106  S    
C68   C104  S    
C119  H123  S    
C17   H13   S    
C6    C10   S    
C128  H158  S    
C71   H67   S    
C13   C17   S    
C78   H98   S    
C22   H6    S    
Cr5   O49   S    
C116  O56   S    
C19   H15   S    
C104  O12   A    
C43   C51   S    
Cr5   O5    S    
C65   C69   S    
C77   C93   S    
C10   C110  S    
C67   C71   S    
O53   C121  S    
C50   H58   S    
Cr1   O1    S    
C18   H126  S    
C51   H55   S    
C3    O27   A    
C79   H103  S    
C59   H71   S    
C72   H96   S    
C29   C37   S    
C11   C111  S    
C34   H34   S    
C131  C132  S    
C55   H63   S    
C126  H152  S    
C9    C117  S    
C122  H143  S    
C66   C102  S    
C35   C39   S    
C84   C87   S    
C15   C47   S    
C8    H136  S    
C11   C119  S    
C16   C48   S    
C29   H27   S    
C30   H28   S    
C38   C89   S    
C49   C65   S    
C74   H78   S    
C23   H7    S    
C123  H146  S    
C132  H167  S    
Cr7   O31   S    
Cr8   O32   S    
C49   H57   S    
Cr1   O41   S    
C57   H73   S    
C65   C73   S    
C52   H60   S    
Cr4   O44   S    
C113  O53   S    
C118  H122  S    
C25   C37   S    
C12   C120  S    
C27   C39   S    
C82   H108  S    
C35   H35   S    
Cr12  O20   S    
C55   C71   S    
C29   H38   S    
C80   C96   S    
C86   C94   S    
C44   H52   S    
C52   C68   S    
C16   C20   S    
C22   H138  S    
C15   C23   S    
Cr9   O17   S    
C86   H114  S    
C69   H65   S    
C53   C61   S    
C2    O26   A    
C103  O11   A    
C32   H26   S    
C35   H30   S    
C117  H121  S    
C120  H124  S    
C32   C35   S    
C36   C40   S    
C33   H32   S    
C34   H31   S    
C97   O49   A    
Cr7   O19   S    
C55   C63   S    
C99   O47   A    
C46   O30   A    
C10   C118  S    
C72   H68   S    
C81   C93   S    
C83   C95   S    
Cr10  O18   S    
C20   H16   S    
C130  H163  S    
Cr12  O40   S    
Cr9   O9    S    
C50   C66   S    
C100  O48   A    
C20   H128  S    
C28   H20   S    
Cr7   O51   S    
C122  C123  S    
C26   H22   S    
C92   O4    A    
C84   C96   S    
C106  O42   A    
C92   O40   A    
C110  C114  S    
C30   C33   S    
C34   C38   S    
C71   H95   S    
C96   C107  S    
C47   O31   A    
C4    O24   A    
C118  H10   S    
C89   O37   A    
Cr6   O26   S    
C109  C113  S    
C129  H161  S    
Cr1   O17   S    
Cr10  O10   S    
C3    C10   S    
Cr11  O15   S    
Cr4   O4    S    
C44   C52   S    
Cr12  O16   S    
C75   H83   S    
C31   C39   S    
C32   C40   S    
O56   C130  S    
C79   C80   S    
C98   O50   A    
C16   C24   S    
C126  H154  S    
C27   C28   S    
C28   H24   S    
C111  C115  S    
C13   C113  S    
