data_str_m2_o1_o18_f0_pcu.sym.60
_audit_creation_date              2012-10-26T20:21:17-0400
_audit_creation_method            fapswitch 2.2
_symmetry_space_group_name_H-M    P1
_symmetry_Int_Tables_number       1
_space_group_crystal_system       triclinic
_cell_length_a                    9.559158
_cell_length_b                    10.816079
_cell_length_c                    15.308178
_cell_angle_alpha                 88.638546
_cell_angle_beta                  75.029767
_cell_angle_gamma                 89.302047
_cell_volume                      1528.5725084

loop_
_atom_site_label
_atom_site_type_symbol
_atom_type_description
_atom_site_fract_x
_atom_site_fract_y
_atom_site_fract_z
_atom_type_partial_charge
C1    C     C_R   0.001245 0.262434 0.497805 0.540498
C2    C     C_R   0.099934 0.064348 0.534676 -0.158200
C3    C     C_R   0.997324 0.871459 0.506258 -0.005137
C4    C     C_R   0.001968 0.128446 0.496058 -0.001292
C5    C     C_R   0.549403 0.439433 0.566390 0.017618
C6    C     C_R   0.451148 0.560757 0.433794 0.004905
C7    C     C_R   0.399607 0.438460 0.567677 0.250313
C8    C     C_R   0.599728 0.561974 0.433605 0.246104
C9    C     C_R   0.918729 0.500286 0.672642 0.536894
C10   C     C_R   0.081541 0.503197 0.327409 0.542320
C11   C     C_R   0.874427 0.498483 0.772218 -0.036228
C12   C     C_R   0.998517 0.737510 0.502983 0.543882
C13   C     C_R   0.128446 0.523408 0.228770 -0.035942
C14   C     C_R   0.924351 0.449047 0.916832 0.146140
C15   C     C_R   0.095874 0.625917 0.092417 0.154688
C16   C     C_R   0.971878 0.465750 0.822886 -0.140646
C17   C     C_R   0.041056 0.587424 0.182498 -0.131134
C18   C     C_R   0.730132 0.523632 0.816478 -0.154637
C19   C     C_R   0.271937 0.495914 0.183889 -0.151442
C20   C     C_R   0.680231 0.516992 0.911332 0.003916
C21   C     C_R   0.333228 0.537776 0.094644 0.003414
C22   C     C_R   0.778121 0.475166 0.961634 0.080970
C23   C     C_R   0.583913 0.481052 0.099305 -0.161643
C24   C     C_R   0.241699 0.599398 0.047580 0.078739
C25   C     C_R   0.534308 0.546897 0.956984 0.033760
C26   C     C_R   0.482888 0.519849 0.051081 0.035646
C27   C     C_3   0.015310 0.272206 0.984414 -0.325746
C28   C     C_3   0.020683 0.827675 0.051515 -0.326570
C29   C     C_R   0.799024 0.126077 0.416159 0.052254
C30   C     C_R   0.649215 0.121518 0.455830 -0.103870
C31   C     C_R   0.553243 0.185787 0.415729 -0.115287
C32   C     C_R   0.606131 0.254598 0.335768 -0.102432
C33   C     C_R   0.755025 0.258744 0.295526 -0.102600
C34   C     C_R   0.439487 0.606482 0.912097 -0.164239
C35   C     C_R   0.851344 0.194445 0.335289 -0.057716
C36   C     C_R   0.200117 0.873312 0.586554 0.052454
C37   C     C_R   0.148399 0.797027 0.663597 -0.052009
C38   C     C_R   0.245596 0.731543 0.701981 -0.086933
C39   C     C_R   0.394673 0.743372 0.664799 -0.094859
C40   C     C_R   0.446913 0.821502 0.589807 -0.118188
C41   C     C_R   0.350198 0.886044 0.550509 -0.105733
C42   C     C_3   0.343881 0.320605 0.714816 -0.369473
C43   C     C_3   0.669215 0.745246 0.337503 -0.328730
C44   C     C_R   0.728561 0.461479 0.055614 -0.144536
C45   C     C_R   0.297327 0.633571 0.956763 -0.143640
C46   C     C_R   0.901072 0.063650 0.461487 -0.032136
C47   C     C_R   0.097855 0.936135 0.541402 -0.028349
C48   C     C_R   0.899259 0.935699 0.468048 -0.161588
Cu1   Cu    Cu3+1 0.140660 0.500020 0.500000 0.940449
Cu2   Cu    Cu3+1 0.859340 0.499980 0.500000 0.960308
H1    H     H_    0.801690 0.435217 0.096384 0.136985
H2    H     H_    0.175455 0.114309 0.562564 0.112033
H3    H     H_    0.589023 0.390224 0.617321 0.126168
H4    H     H_    0.415399 0.607637 0.380215 0.124109
H5    H     H_    0.129240 0.430655 0.936452 0.255798
H6    H     H_    0.047229 0.220360 0.920386 0.133745
H7    H     H_    0.903907 0.245392 0.022077 0.151551
H8    H     H_    0.090052 0.246359 0.026701 0.142182
H9    H     H_    0.897624 0.669530 0.068971 0.257021
H10   H     H_    0.952699 0.874310 0.011585 0.141529
H11   H     H_    0.135045 0.855132 0.021994 0.153555
H12   H     H_    0.230301 0.680182 0.918850 0.143304
H13   H     H_    0.985014 0.859045 0.122527 0.135485
H14   H     H_    0.607331 0.070599 0.518741 0.096244
H15   H     H_    0.438002 0.183347 0.447146 0.114819
H16   H     H_    0.531797 0.305127 0.305262 0.099667
H17   H     H_    0.796005 0.312463 0.233902 0.091027
H18   H     H_    0.966587 0.199446 0.304024 0.090787
H19   H     H_    0.033077 0.786166 0.692475 0.094010
H20   H     H_    0.205323 0.670795 0.759984 0.103239
H21   H     H_    0.469984 0.691574 0.693568 0.099268
H22   H     H_    0.562456 0.830800 0.561610 0.111713
H23   H     H_    0.334086 0.441547 0.220584 0.117753
H24   H     H_    0.391964 0.943632 0.490867 0.096181
H25   H     H_    0.230235 0.315742 0.616742 0.283276
H26   H     H_    0.249131 0.280096 0.764715 0.138021
H27   H     H_    0.389683 0.393734 0.748889 0.145909
H28   H     H_    0.423983 0.245008 0.692466 0.133350
H29   H     H_    0.720043 0.563463 0.303966 0.224048
H30   H     H_    0.587247 0.747788 0.297558 0.115602
H31   H     H_    0.769720 0.789086 0.296039 0.141565
H32   H     H_    0.628544 0.799535 0.399620 0.143672
H33   H     H_    0.657091 0.544274 0.774999 0.120439
H34   H     H_    0.932818 0.614421 0.217260 0.121921
H35   H     H_    0.083728 0.447341 0.789153 0.144023
H36   H     H_    0.555796 0.470347 0.171943 0.091523
H37   H     H_    0.473756 0.638876 0.842988 0.095570
H38   H     H_    0.824264 0.885911 0.439993 0.127857
N1    N     N_R   0.352080 0.500030 0.499980 -0.233179
N2    N     N_R   0.647920 0.499970 0.500020 -0.223740
N3    N     N_2   0.023930 0.403944 0.965245 -0.517494
N4    N     N_2   0.004907 0.695094 0.048530 -0.520167
N5    N     N_2   0.298450 0.372861 0.638369 -0.499393
N6    N     N_2   0.700653 0.618770 0.359759 -0.465823
O1    O     O_R   0.118740 0.319660 0.500000 -0.531606
O2    O     O_R   0.881260 0.680340 0.500000 -0.486648
O3    O     O_R   0.881170 0.319630 0.500010 -0.486363
O4    O     O_R   0.118830 0.680370 0.499990 -0.486959
O5    O     O_R   0.055570 0.500030 0.629830 -0.479237
O6    O     O_R   0.944430 0.499970 0.370170 -0.469836
O7    O     O_R   0.818000 0.500000 0.629840 -0.521975
O8    O     O_R   0.182000 0.500000 0.370160 -0.516867

loop_
_geom_bond_atom_site_label_1
_geom_bond_atom_site_label_2
_ccdc_geom_bond_type
C21   C26   A    
C38   H20   S    
C11   C18   A    
C37   H19   S    
C42   N5    S    
C3    C48   A    
Cu2   O2    S    
C4    C46   A    
H25   N5    S    
C29   C30   A    
C24   C45   A    
C5    H3    S    
C36   C37   A    
C19   C21   A    
C30   H14   S    
C30   C31   A    
C20   C25   A    
C7    N1    A    
C45   H12   S    
C43   N6    S    
C36   C47   S    
C31   H15   S    
C23   C26   A    
H5    N3    S    
C3    C12   S    
C41   H24   S    
Cu2   N2    S    
C22   C44   A    
C23   H36   S    
C48   H38   S    
C27   N3    S    
C12   O4    A    
C5    N2    A    
C25   C34   A    
C15   N4    S    
C28   H11   S    
Cu1   O4    S    
C9    O5    A    
C36   C41   A    
C6    H4    S    
C28   H10   S    
C7    N5    S    
C46   C48   A    
C13   C19   A    
C10   O8    A    
C8    N6    S    
H29   N6    S    
C27   H7    S    
C1    O3    A    
C39   C40   A    
C5    C7    A    
C27   H6    S    
C6    C8    A    
C25   C26   A    
C27   H8    S    
C23   C44   A    
C2    C4    A    
C37   C38   A    
C34   H37   S    
Cu1   O5    S    
C11   C16   A    
C31   C32   A    
C19   H23   S    
C1    O1    A    
C18   H33   S    
C28   N4    S    
C34   C45   A    
Cu1   O1    S    
C10   O6    A    
C9    C11   S    
C2    H2    S    
C42   H27   S    
C44   H1    S    
C40   C41   A    
C20   C22   A    
C42   H28   S    
C16   H35   S    
C43   H31   S    
C14   C16   A    
C8    N2    A    
Cu1   O8    S    
C33   H17   S    
C32   H16   S    
C15   C17   A    
C15   C24   A    
Cu2   O3    S    
C40   H22   S    
Cu2   O6    S    
Cu1   N1    S    
C10   C13   S    
C2    C47   A    
C6    N1    A    
C29   C35   A    
C42   H26   S    
C13   C17   A    
C29   C46   S    
C17   H34   S    
C32   C33   A    
C1    C4    S    
C43   H30   S    
C14   C22   A    
C38   C39   A    
C35   H18   S    
C3    C47   A    
C33   C35   A    
C18   C20   A    
H9    N4    S    
C14   N3    S    
C28   H13   S    
Cu2   O7    S    
C9    O7    A    
Cu1   Cu2   S    
C21   C24   A    
C43   H32   S    
C39   H21   S    
C12   O2    A    
