data_str_m3_o16_o24_f0_pcu.sym.197
_audit_creation_date              2012-12-10T18:11:40-0500
_audit_creation_method            fapswitch 2.2
_symmetry_space_group_name_H-M    P1
_symmetry_Int_Tables_number       1
_space_group_crystal_system       triclinic
_cell_length_a                    10.5293
_cell_length_b                    12.792821
_cell_length_c                    13.184254
_cell_angle_alpha                 83.509104
_cell_angle_beta                  94.550776
_cell_angle_gamma                 101.903432
_cell_volume                      1723.71539994

loop_
_atom_site_label
_atom_site_type_symbol
_atom_type_description
_atom_site_fract_x
_atom_site_fract_y
_atom_site_fract_z
_atom_type_partial_charge
C1    C     C_R   0.483558 0.441125 0.692088 0.933023
C2    C     C_3   0.066785 0.587330 0.540198 0.063356
C3    C     C_3   0.967738 0.499886 0.595725 -0.003504
C4    C     C_3   0.875792 0.500867 0.500110 -0.091446
C5    C     C_R   0.501602 0.733130 0.057262 0.056960
C6    C     C_R   0.498119 0.594554 0.200190 -0.155470
C7    C     C_R   0.415425 0.300083 0.838996 0.013262
C8    C     C_R   0.356325 0.271381 0.933709 -0.060274
C9    C     C_R   0.333541 0.352611 0.990630 -0.041225
C10   C     C_R   0.394092 0.461012 0.963320 0.032668
C11   C     C_R   0.448414 0.489641 0.867045 -0.040956
C12   C     C_R   0.741444 0.500662 0.500366 0.946918
C13   C     C_R   0.417766 0.542596 0.032137 0.119415
C14   C     C_R   0.445269 0.652584 0.992964 0.013780
C15   C     C_R   0.449570 0.673471 0.887347 -0.145298
C16   C     C_R   0.500492 0.599959 0.841468 0.049574
C17   C     C_R   0.440533 0.516380 0.135894 -0.172063
C18   C     C_R   0.535962 0.703038 0.159997 -0.049966
C19   C     C_R   0.453370 0.409436 0.801697 -0.075335
C20   C     C_R   0.264322 0.080243 0.389263 -0.097527
C21   C     C_R   0.676571 0.808848 0.614894 0.269321
C22   C     C_R   0.696897 0.906751 0.657155 0.025085
C23   C     C_R   0.512447 0.559358 0.309064 0.845929
C24   C     C_R   0.612354 0.976139 0.627602 -0.212174
C25   C     C_R   0.519888 0.956823 0.545538 -0.023912
C26   C     C_R   0.490954 0.850903 0.513785 0.242334
C27   C     C_R   0.454282 0.038306 0.495051 -0.090218
C28   C     C_R   0.338132 0.005596 0.435230 0.101362
C29   C     C_R   0.304924 0.900433 0.411325 -0.232929
C30   C     C_R   0.385445 0.828032 0.439457 0.098276
C31   C     C_R   0.502175 0.151001 0.495700 0.081998
C32   C     C_R   0.316406 0.189652 0.392676 -0.002663
C33   C     C_R   0.258513 0.499202 0.500274 0.842202
C34   C     C_3   0.930599 0.411115 0.458709 -0.092425
C35   C     C_3   0.023803 0.412673 0.555259 0.127429
C36   C     C_3   0.124014 0.499588 0.499733 -0.117258
C37   C     C_3   0.031811 0.500633 0.403191 -0.110833
C38   C     C_3   0.975338 0.588002 0.444396 -0.000536
H1    H     H_    0.425889 0.432835 0.165282 0.160643
H2    H     H_    0.224904 0.876453 0.356694 0.171190
H3    H     H_    0.873217 0.338625 0.425783 0.183391
H4    H     H_    0.621046 0.044571 0.670103 0.182112
N1    N     N_R   0.432930 0.222190 0.444670 -0.161145
N2    N     N_R   0.566370 0.776980 0.554790 -0.114826
O1    O     O_R   0.467970 0.366730 0.627150 -0.546388
O2    O     O_R   0.510820 0.544830 0.662520 -0.601000
O3    O     O_R   0.664630 0.410960 0.482340 -0.605547
O4    O     O_R   0.707470 0.589060 0.517710 -0.592342
O5    O     O_R   0.489180 0.455170 0.337480 -0.653913
O6    O     O_R   0.532030 0.633270 0.372850 -0.620457
O7    O     O_R   0.292530 0.410940 0.482290 -0.604042
O8    O     O_R   0.335370 0.589040 0.517660 -0.595438
Zn1   Zn    Zn3+2 0.471390 0.381080 0.476380 0.996805
Zn2   Zn    Zn3+2 0.528610 0.618920 0.523620 0.999382
N3    N     N_3   0.053740 0.317346 0.615727 -0.407301
H5    H     H_    0.967813 0.275370 0.647567 0.207913
H6    H     H_    0.118395 0.343078 0.676410 0.166724
N4    N     N_3   0.437057 0.218275 0.779949 -0.382121
H7    H     H_    0.492797 0.169642 0.824771 0.203182
H8    H     H_    0.347379 0.171557 0.758409 0.175785
C39   C     C_2   0.230968 0.326253 0.066702 0.363324
H9    H     H_    0.198264 0.245037 0.100670 0.120333
O9    O     O_2   0.176262 0.395299 0.088702 -0.525372
C40   C     C_2   0.318088 0.155784 0.971181 0.331996
H10   H     H_    0.281390 0.096379 0.917962 0.074200
O10   O     O_2   0.333290 0.125067 0.061603 -0.603741
C41   C     C_2   0.642287 0.632912 0.828774 0.479959
H11   H     H_    0.688623 0.716640 0.831473 0.052541
O11   O     O_2   0.709494 0.567180 0.821487 -0.582841
C42   C     C_2   0.243928 0.270118 0.341341 0.452924
H12   H     H_    0.292761 0.338800 0.294657 0.095127
O12   O     O_2   0.127885 0.261004 0.352113 -0.545691
C43   C     C_2   0.135345 0.045614 0.334569 0.475823
H13   H     H_    0.111818 0.086677 0.261018 0.095796
O13   O     O_2   0.052926 0.973932 0.373387 -0.551988
C44   C     C_2   0.633209 0.194093 0.538625 0.424527
H14   H     H_    0.717474 0.178262 0.505337 0.039736
O14   O     O_2   0.647900 0.241414 0.615360 -0.545142
N5    N     N_3   0.775492 0.746023 0.627881 -0.391195
H15   H     H_    0.847673 0.782933 0.578070 0.199784
H16   H     H_    0.820022 0.748167 0.701318 0.179968
N6    N     N_3   0.803323 0.935596 0.729940 -0.483263
H17   H     H_    0.765341 0.948098 0.797481 0.198290
H18   H     H_    0.860139 0.008396 0.701386 0.205361
N7    N     N_3   0.364235 0.739738 0.379680 -0.374738
H19   H     H_    0.378487 0.770093 0.303558 0.137169
H20   H     H_    0.265799 0.703079 0.380135 0.175362
C45   C     C_2   0.069469 0.504173 0.295631 0.492078
H21   H     H_    0.150241 0.564684 0.267279 0.022479
O15   O     O_2   0.008958 0.439516 0.239339 -0.471167
N8    N     N_3   0.944738 0.683882 0.385347 -0.386679
H22   H     H_    0.029724 0.725666 0.352119 0.197564
H23   H     H_    0.878486 0.658582 0.325461 0.214847
N9    N     N_3   0.140501 0.682939 0.583674 -0.393926
H24   H     H_    0.073726 0.726959 0.602027 0.196150
H25   H     H_    0.186275 0.657523 0.652585 0.215178
N10   N     N_3   0.930179 0.498205 0.699856 -0.394314
H26   H     H_    0.012902 0.494495 0.748371 0.187868
H27   H     H_    0.906162 0.572329 0.706045 0.229059
C46   C     C_2   0.626437 0.782314 0.219023 0.409760
H28   H     H_    0.594073 0.816402 0.281445 0.090254
O16   O     O_2   0.739939 0.809987 0.197613 -0.558090
C47   C     C_2   0.415687 0.770349 0.828378 0.388872
H29   H     H_    0.378988 0.828369 0.865797 0.104304
O17   O     O_2   0.420442 0.782938 0.735699 -0.592337
N11   N     N_3   0.539387 0.842892 0.015182 -0.493241
H30   H     H_    0.640767 0.864725 0.018541 0.233741
H31   H     H_    0.502414 0.891826 0.058906 0.199868

loop_
_geom_bond_atom_site_label_1
_geom_bond_atom_site_label_2
_ccdc_geom_bond_type
N3    H5    S    
C34   C37   S    
C24   H4    S    
C43   H13   S    
C37   C45   S    
C35   C36   S    
C12   O4    A    
N10   H26   S    
C26   N2    A    
C7    C8    A    
N7    H19   S    
C33   O8    A    
O4    Zn2   S    
C11   C19   A    
C29   C30   A    
C31   N1    A    
C9    C39   S    
C22   N6    S    
C28   C29   A    
C44   O14   D    
C1    O2    A    
C23   O5    A    
N11   H30   S    
N4    H8    S    
C15   C16   A    
C33   C36   S    
C34   C35   S    
C17   H1    S    
C39   O9    D    
C2    C38   S    
N1    Zn1   S    
C8    C9    A    
C42   H12   S    
C4    C12   S    
C9    C10   A    
C7    N4    S    
O3    Zn1   S    
O1    Zn1   S    
C21   C22   A    
C43   O13   D    
O2    Zn2   S    
N9    H24   S    
C34   H3    S    
C18   C46   S    
C12   O3    A    
N10   H27   S    
O8    Zn2   S    
C5    N11   S    
N7    H20   S    
C6    C18   A    
C4    C34   S    
C1    C19   S    
C27   C31   A    
C41   H11   S    
C2    N9    S    
C24   C25   A    
N8    H22   S    
N5    H16   S    
C23   O6    A    
C32   C42   S    
C5    C18   A    
C20   C28   A    
C25   C26   A    
C35   N3    S    
C38   N8    S    
O7    Zn1   S    
C40   O10   D    
C37   C38   S    
N8    H23   S    
C21   N2    A    
C11   C16   A    
C3    N10   S    
C3    C35   S    
C21   N5    S    
C46   O16   D    
C47   O17   D    
C16   C41   S    
O6    Zn2   S    
C44   H14   S    
C30   N7    S    
N9    H25   S    
C5    C14   A    
C8    C40   S    
C4    C38   S    
C26   C30   A    
C7    C19   A    
N3    H6    S    
C22   C24   A    
C33   O7    A    
C3    C4    S    
C47   H29   S    
C20   C32   A    
C2    C36   S    
C6    C17   A    
C36   C37   S    
C45   O15   D    
C10   C13   A    
C25   C27   A    
N6    H18   S    
C13   C17   A    
C15   C47   S    
C40   H10   S    
C2    C3    S    
N4    H7    S    
C1    O1    A    
C31   C44   S    
N11   H31   S    
O5    Zn1   S    
C6    C23   S    
C29   H2    S    
C46   H28   S    
C32   N1    A    
C20   C43   S    
C39   H9    S    
C10   C11   A    
N5    H15   S    
N2    Zn2   S    
C45   H21   S    
N6    H17   S    
C27   C28   A    
C14   C15   A    
C42   O12   D    
C41   O11   D    
C13   C14   A    
