data_str_m9_o18_o22_f0_sra.sym.61
_audit_creation_date              2012-12-11T15:29:42-0500
_audit_creation_method            fapswitch 2.2
_symmetry_space_group_name_H-M    P1
_symmetry_Int_Tables_number       1
_space_group_crystal_system       triclinic
_cell_length_a                    21.518214
_cell_length_b                    7.241367
_cell_length_c                    14.895084
_cell_angle_alpha                 90.003061
_cell_angle_beta                  73.450651
_cell_angle_gamma                 89.999595
_cell_volume                      2224.82432677

loop_
_atom_site_label
_atom_site_type_symbol
_atom_type_description
_atom_site_fract_x
_atom_site_fract_y
_atom_site_fract_z
_atom_type_partial_charge
O1    O     O_R   0.464160 0.506670 0.130070 -0.535214
O2    O     O_R   0.535840 0.006670 0.869930 -0.535197
O3    O     O_R   0.589710 0.179080 0.006710 -0.561609
O4    O     O_R   0.410290 0.679080 0.993290 -0.561557
C1    C     C_R   0.616291 0.345982 0.002618 0.741872
C2    C     C_R   0.383704 0.845977 0.997410 0.742034
O5    O     O_R   0.467940 0.177220 0.138010 -0.537166
O6    O     O_R   0.532060 0.677220 0.861990 -0.537106
O7    O     O_R   0.413200 0.002810 0.002170 -0.521571
O8    O     O_R   0.586800 0.502810 0.997830 -0.521493
C3    C     C_R   0.456974 0.345721 0.174601 0.706299
C4    C     C_R   0.543035 0.845701 0.825402 0.706519
O9    O     O_3   0.482180 0.337850 0.955280 -0.383549
O10   O     O_3   0.517820 0.837850 0.044720 -0.383671
V1    V     V_3+5 0.503310 0.064600 0.008300 1.431538
V2    V     V_3+5 0.496690 0.564600 0.991700 1.431699
C5    C     C_R   0.568503 0.856476 0.722989 -0.042562
C6    C     C_R   0.431524 0.356608 0.277018 -0.042607
C7    C     C_R   0.927298 0.862042 0.275698 -0.044110
C8    C     C_R   0.072717 0.361967 0.724297 -0.044208
C9    C     C_R   0.557935 0.936495 0.570075 -0.161966
C10   C     C_R   0.442030 0.437746 0.429838 -0.161916
C11   C     C_R   0.529736 0.916247 0.666715 0.148854
C12   C     C_R   0.470243 0.417119 0.333222 0.148628
C13   C     C_R   0.634349 0.821284 0.682248 -0.267018
C14   C     C_R   0.365706 0.321081 0.317808 -0.267008
C15   C     C_R   0.665094 0.870661 0.588447 0.086278
C16   C     C_R   0.334922 0.370867 0.411544 0.086256
C17   C     C_R   0.624988 0.913699 0.530829 0.100129
C18   C     C_R   0.374994 0.414652 0.469110 0.100128
C19   C     C_R   0.734093 0.873280 0.549603 0.051003
C20   C     C_R   0.265920 0.373230 0.450376 0.051000
C21   C     C_R   0.760851 0.880220 0.449903 0.033951
C22   C     C_R   0.239151 0.380658 0.550066 0.033938
C23   C     C_R   0.718193 0.909462 0.394334 -0.178376
C24   C     C_R   0.281784 0.410669 0.605602 -0.178410
C25   C     C_R   0.652018 0.932595 0.434566 -0.197237
C26   C     C_R   0.347945 0.434043 0.565345 -0.197172
C27   C     C_R   0.777600 0.879487 0.606018 0.158923
C28   C     C_R   0.222415 0.378726 0.393945 0.158848
C29   C     C_R   0.843543 0.847404 0.565685 -0.203799
C30   C     C_R   0.156493 0.346375 0.434313 -0.203708
C31   C     C_R   0.869863 0.840935 0.469039 0.062704
C32   C     C_R   0.130174 0.340278 0.530969 0.062702
C33   C     C_R   0.829499 0.864549 0.409518 0.085317
C34   C     C_R   0.170515 0.364660 0.590467 0.085308
C35   C     C_R   0.937349 0.824149 0.431897 -0.195413
C36   C     C_R   0.062706 0.323028 0.568130 -0.195393
C37   C     C_R   0.966525 0.835517 0.335306 0.206923
C38   C     C_R   0.033520 0.334630 0.664713 0.206940
C39   C     C_R   0.859868 0.873826 0.311991 -0.267944
C40   C     C_R   0.140135 0.374270 0.687985 -0.267926
H1    H     H_    0.621526 0.961658 0.389508 0.125421
H2    H     H_    0.378413 0.463706 0.610366 0.125458
H3    H     H_    0.832877 0.890718 0.261744 0.096834
H4    H     H_    0.167111 0.391722 0.738215 0.096866
H5    H     H_    0.875655 0.844706 0.610242 0.133851
H6    H     H_    0.124386 0.343106 0.389756 0.133832
H7    H     H_    0.527876 0.974438 0.525613 0.121579
H8    H     H_    0.472058 0.476279 0.474252 0.121596
H9    H     H_    0.661293 0.759849 0.725719 0.158140
H10   H     H_    0.338804 0.259153 0.274409 0.158171
H11   H     H_    0.734376 0.920851 0.319228 0.117854
H12   H     H_    0.265587 0.422500 0.680691 0.117880
H13   H     H_    0.967545 0.806580 0.478464 0.115271
H14   H     H_    0.032527 0.304844 0.521581 0.115243
C41   C     C_3   0.227478 0.730990 0.922948 -0.360462
C42   C     C_3   0.772515 0.231083 0.077103 -0.360374
H15   H     H_    0.206088 0.590027 0.932744 0.167152
H16   H     H_    0.793929 0.090146 0.067405 0.167131
H17   H     H_    0.226127 0.778717 0.852515 0.139217
H18   H     H_    0.773820 0.278995 0.147529 0.139226
C43   C     C_3   0.298891 0.721081 0.925855 -0.469444
C44   C     C_3   0.701121 0.220996 0.074120 -0.469346
H19   H     H_    0.332204 0.744832 0.854846 0.157125
H20   H     H_    0.667768 0.244534 0.145127 0.157090
H21   H     H_    0.309113 0.577978 0.944449 0.153084
H22   H     H_    0.690966 0.077913 0.055415 0.153038
H23   H     H_    0.279697 0.652700 0.107093 0.130436
H24   H     H_    0.720254 0.153043 0.892751 0.130431
C45   C     C_3   0.193184 0.806707 0.096931 0.033518
C46   C     C_3   0.806805 0.306606 0.903103 0.033518
C47   C     C_3   0.218369 0.059732 0.976592 -0.423515
C48   C     C_3   0.781636 0.559774 0.023375 -0.423595
C49   C     C_3   0.187362 0.864884 0.999078 0.061172
C50   C     C_3   0.812635 0.364894 0.000939 0.061195
H25   H     H_    0.190325 0.157502 0.030719 0.146646
H26   H     H_    0.809640 0.657403 0.969144 0.146570
H27   H     H_    0.211760 0.109696 0.909193 0.131256
H28   H     H_    0.788318 0.609942 0.090700 0.131265
C51   C     C_3   0.312206 0.860370 0.998469 0.114955
C52   C     C_3   0.687786 0.360391 0.001574 0.115125
C53   C     C_3   0.266634 0.798253 0.096324 -0.013478
C54   C     C_3   0.733356 0.298488 0.903675 -0.013636
C55   C     C_3   0.291977 0.062227 0.973085 0.443817
C56   C     C_3   0.707996 0.562203 0.027053 0.443906
H29   H     H_    0.167301 0.913676 0.147664 0.114821
H30   H     H_    0.832768 0.413361 0.852311 0.114623
O11   O     O_R   0.913210 0.208550 0.002110 -0.518890
O12   O     O_R   0.086790 0.708550 0.997890 -0.518925
O13   O     O_R   0.032060 0.539960 0.861980 -0.550036
O14   O     O_R   0.967940 0.039960 0.138020 -0.550047
C57   C     C_R   0.044351 0.372270 0.825678 0.729473
C58   C     C_R   0.955657 0.872282 0.174320 0.729529
O15   O     O_R   0.910290 0.538020 0.993280 -0.558859
O16   O     O_R   0.089710 0.038020 0.006720 -0.558880
O17   O     O_R   0.964160 0.712340 0.130090 -0.529233
O18   O     O_R   0.035840 0.212340 0.869910 -0.529152
C59   C     C_R   0.883736 0.370374 0.000142 0.714670
C60   C     C_R   0.116263 0.870372 0.999861 0.714795
O19   O     O_3   0.017820 0.379210 0.044690 -0.375680
O20   O     O_3   0.982180 0.879210 0.955310 -0.375616
V3    V     V_3+5 0.996690 0.652500 0.991710 1.436119
V4    V     V_3+5 0.003310 0.152500 0.008290 1.436152
N1    N     N_3   0.159263 0.631010 0.125694 -0.650720
H31   H     H_    0.145943 0.620356 0.198419 0.241908
H32   H     H_    0.188566 0.518700 0.097049 0.220243
N2    N     N_3   0.840617 0.130707 0.874458 -0.650599
H33   H     H_    0.853840 0.119708 0.801749 0.241837
H34   H     H_    0.811262 0.018617 0.903278 0.220194
N3    N     N_3   0.331464 0.115732 0.878404 -0.699687
H35   H     H_    0.317408 0.041852 0.827164 0.222555
H36   H     H_    0.322602 0.254587 0.866937 0.216076
N4    N     N_3   0.668584 0.615426 0.121826 -0.699922
H37   H     H_    0.682740 0.541478 0.172954 0.222646
H38   H     H_    0.677411 0.754278 0.133362 0.216046
N5    N     N_3   0.301783 0.201721 0.040544 -0.667110
H39   H     H_    0.348194 0.258687 0.018141 0.266801
H40   H     H_    0.272311 0.316446 0.041534 0.179114
N6    N     N_3   0.698062 0.701846 0.959756 -0.666691
H41   H     H_    0.651680 0.758958 0.982409 0.266776
H42   H     H_    0.727613 0.816446 0.958612 0.178970
N7    N     N_3   0.278617 0.906647 0.173257 -0.666963
H43   H     H_    0.260405 0.833997 0.235697 0.226102
H44   H     H_    0.252503 0.029993 0.182829 0.253270
N8    N     N_3   0.721423 0.407339 0.826853 -0.666767
H45   H     H_    0.739569 0.334882 0.764338 0.226051
H46   H     H_    0.747607 0.530564 0.817388 0.253215
N9    N     N_3   0.035680 0.821271 0.297305 -0.679424
H47   H     H_    0.057343 0.792162 0.350270 0.221564
H48   H     H_    0.052908 0.950732 0.270305 0.210716
N10   N     N_3   0.964382 0.319792 0.702732 -0.679131
H49   H     H_    0.942751 0.290105 0.649795 0.221518
H50   H     H_    0.947005 0.449212 0.729617 0.210623
C61   C     C_3   0.458656 0.954559 0.708426 -0.796179
H51   H     H_    0.434925 0.995396 0.654250 0.210032
H52   H     H_    0.434200 0.828796 0.744210 0.191145
H53   H     H_    0.452377 0.068898 0.759817 0.238962
C62   C     C_3   0.541287 0.455884 0.291464 -0.795503
H54   H     H_    0.564990 0.497198 0.345600 0.209946
H55   H     H_    0.565857 0.330182 0.255759 0.191171
H56   H     H_    0.547457 0.570045 0.239997 0.239011
C63   C     C_3   0.760142 0.958757 0.703583 -0.839153
H57   H     H_    0.796855 0.063499 0.706354 0.203393
H58   H     H_    0.713852 0.035958 0.722150 0.222626
H59   H     H_    0.759823 0.849364 0.755856 0.214740
C64   C     C_3   0.239833 0.457466 0.296273 -0.839054
H60   H     H_    0.203064 0.561908 0.293349 0.203454
H61   H     H_    0.286080 0.534871 0.277604 0.222576
H62   H     H_    0.240215 0.347737 0.244144 0.214855

loop_
_geom_bond_atom_site_label_1
_geom_bond_atom_site_label_2
_ccdc_geom_bond_type
C47   H25   S    
C3    C6    S    
O12   C60   A    
C64   H60   S    
C46   C54   S    
C15   C17   A    
C21   C33   A    
C38   N10   S    
O1    C3    A    
O2    C4    A    
C30   H6    S    
O11   V4    S    
C61   H51   S    
C35   C37   A    
C8    C57   S    
O5    C3    A    
C11   C61   S    
C43   H19   S    
C5    C11   A    
C44   H20   S    
C27   C63   S    
C6    C12   A    
C10   C12   A    
C56   N6    S    
C23   C25   A    
C48   C50   S    
H23   C53   S    
C53   N7    S    
C62   H55   S    
C10   H8    S    
C41   H17   S    
C33   C39   A    
C42   C44   S    
C2    C51   S    
O11   C59   A    
C34   C40   A    
C52   C56   S    
C42   C50   S    
C18   C26   A    
C48   C56   S    
C44   C52   S    
N2    H33   S    
O17   V3    S    
C8    C38   A    
N1    H32   S    
C6    C14   A    
C4    C5    S    
C54   N8    S    
C19   C21   A    
C57   O18   A    
C22   C34   A    
C63   H58   S    
C39   H3    S    
O6    C4    A    
C25   H1    S    
C55   N3    S    
C36   C38   A    
C64   H61   S    
C29   C31   A    
C30   C32   A    
C2    O7    A    
O20   V3    S    
C61   H52   S    
C32   C34   A    
C9    C11   A    
C47   H27   S    
C41   C49   S    
C46   H30   S    
C15   C19   A    
C28   C64   S    
C16   C20   A    
C50   C59   S    
C43   C51   S    
C27   C29   A    
C49   C60   S    
C62   H56   S    
C56   N4    S    
O5    V1    S    
C46   C50   S    
C9    C17   A    
C41   H15   S    
C20   C22   A    
O4    V2    S    
N6    H42   S    
N5    H40   S    
O14   V4    S    
C7    C39   A    
C51   C53   S    
C45   C53   S    
C7    C58   S    
C7    C37   A    
C26   H2    S    
C42   H18   S    
C47   C55   S    
C45   N1    S    
C52   C54   S    
O1    V2    S    
C13   H9    S    
O18   V4    S    
C63   H59   S    
O14   C58   A    
O2    V1    S    
C31   C33   A    
N3    H35   S    
C41   C43   S    
N8    H46   S    
C47   C49   S    
O16   V4    S    
C64   H62   S    
C37   N9    S    
N7    H43   S    
N10   H50   S    
O4    C2    A    
C46   N2    S    
H24   C54   S    
N5    H39   S    
C61   H53   S    
O3    V1    S    
N4    H38   S    
O16   C60   A    
C48   H28   S    
O15   V3    S    
O15   C59   A    
C10   C18   A    
N10   H49   S    
O12   V3    S    
C48   H26   S    
N8    H45   S    
O3    C1    A    
N9    H47   S    
C9    H7    S    
C13   C15   A    
C14   C16   A    
O13   C57   A    
C5    C13   A    
C16   C18   A    
N6    H41   S    
C14   H10   S    
C29   H5    S    
C1    O8    A    
C8    C40   A    
C32   C36   A    
O8    V2    S    
C62   H54   S    
C24   C26   A    
N9    H48   S    
N1    H31   S    
C45   H29   S    
C28   C30   A    
C21   C23   A    
C19   C27   A    
O19   V4    S    
C22   C24   A    
C20   C28   A    
O7    V1    S    
O13   V3    S    
N2    H34   S    
N3    H36   S    
C1    C52   S    
C12   C62   S    
C51   C55   S    
C55   N5    S    
O6    V2    S    
C44   H22   S    
O9    V2    S    
C17   C25   A    
N7    H44   S    
C42   H16   S    
C43   H21   S    
O10   V1    S    
C23   H11   S    
C36   H14   S    
C63   H57   S    
C24   H12   S    
C31   C35   A    
C35   H13   S    
C58   O17   A    
C45   C49   S    
C40   H4    S    
N4    H37   S    
