data_str_m3_o14_o23_f0_pcu.sym.210
_audit_creation_date              2013-03-05T15:54:01-0500
_audit_creation_method            fapswitch 2.2
_symmetry_space_group_name_H-M    P1
_symmetry_Int_Tables_number       1
_space_group_crystal_system       triclinic
_cell_length_a                    15.752904
_cell_length_b                    10.7012
_cell_length_c                    9.920965
_cell_angle_alpha                 92.048168
_cell_angle_beta                  89.449177
_cell_angle_gamma                 92.174667
_cell_volume                      1670.09716285

loop_
_atom_site_label
_atom_site_type_symbol
_atom_site_description
_atom_site_fract_x
_atom_site_fract_y
_atom_site_fract_z
_atom_type_partial_charge
O1    O     O_R   0.500000 0.316780 0.614690 -0.643935
O2    O     O_R   0.499990 0.316750 0.385360 -0.620931
C1    C     C_R   0.506018 0.260896 0.497727 0.863947
O3    O     O_R   0.377150 0.500020 0.614720 -0.633931
O4    O     O_R   0.377140 0.499990 0.385380 -0.634611
C2    C     C_R   0.338574 0.499738 0.500605 0.880195
Zn1   Zn    Zn3+2 0.500010 0.500020 0.653130 0.958811
Zn2   Zn    Zn3+2 0.499990 0.499980 0.346870 0.965158
O5    O     O_R   0.500010 0.683250 0.614640 -0.633929
O6    O     O_R   0.500000 0.683220 0.385310 -0.623131
O7    O     O_R   0.622860 0.500010 0.614620 -0.591152
O8    O     O_R   0.622850 0.499980 0.385280 -0.603631
C3    C     C_R   0.493956 0.739994 0.503490 0.899816
C4    C     C_R   0.661466 0.500848 0.499472 0.898390
C5    C     C_3   0.044989 0.415475 0.615501 -0.167108
C6    C     C_3   0.047538 0.456253 0.362423 -0.107705
C7    C     C_3   0.949147 0.440722 0.373061 0.021424
H1    H     H_    0.916050 0.338104 0.614643 0.120225
H2    H     H_    0.052848 0.317142 0.579230 0.187678
H3    H     H_    0.064292 0.528269 0.288319 0.265040
H4    H     H_    0.932258 0.339336 0.384164 0.158564
C8    C     C_1   0.750160 0.504727 0.499094 -0.072816
C9    C     C_3   0.083318 0.502862 0.503956 0.045393
C10   C     C_3   0.946752 0.433586 0.626602 0.098501
C11   C     C_3   0.916932 0.511046 0.504781 -0.151538
C12   C     C_3   0.957527 0.648276 0.510450 0.075942
C13   C     C_3   0.054531 0.639937 0.535830 0.039728
C14   C     C_1   0.825369 0.508581 0.501223 0.119437
C15   C     C_1   0.174920 0.501479 0.502915 0.063437
C16   C     C_1   0.250031 0.500554 0.501933 -0.160100
H5    H     H_    0.065876 0.660934 0.644738 0.191191
H6    H     H_    0.948606 0.688848 0.410874 0.200123
H7    H     H_    0.440960 0.109694 0.309188 0.167902
C17   C     C_R   0.595703 0.132958 0.703666 -0.240516
H8    H     H_    0.626887 0.221839 0.681311 0.195792
C18   C     C_R   0.603407 0.088237 0.833465 0.352705
C19   C     C_R   0.561584 0.973753 0.863847 0.113309
C20   C     C_R   0.521012 0.902165 0.759824 -0.191843
H9    H     H_    0.486485 0.818385 0.788764 0.189061
C21   C     C_R   0.517228 0.945530 0.626454 0.029929
C22   C     C_R   0.543651 0.068957 0.606429 0.026866
C23   C     C_R   0.512044 0.128094 0.493985 -0.100341
C24   C     C_R   0.467668 0.061509 0.392308 -0.187517
C25   C     C_R   0.454209 0.934031 0.399328 0.159729
C26   C     C_R   0.484686 0.873983 0.512852 -0.113443
C27   C     C_R   0.387010 0.337475 0.135935 -0.141036
H10   H     H_    0.386768 0.330101 0.242588 0.196050
C28   C     C_R   0.330260 0.257414 0.063837 0.188665
C29   C     C_R   0.329565 0.259611 0.923955 -0.195286
H11   H     H_    0.286168 0.197785 0.866647 0.171304
C30   C     C_R   0.385275 0.339763 0.856175 -0.185510
H12   H     H_    0.381690 0.333463 0.749142 0.211850
C31   C     C_R   0.443084 0.421683 0.925890 0.163989
C32   C     C_R   0.443285 0.421413 0.070315 0.115631
N1    N     N_R   0.499210 0.498800 0.142780 -0.114084
C33   C     C_R   0.557947 0.570599 0.071508 0.200671
H13   H     H_    0.601728 0.628911 0.873727 0.175532
C34   C     C_R   0.556060 0.571678 0.928634 -0.088539
N2    N     N_R   0.499180 0.498720 0.857170 -0.137558
C35   C     C_3   0.092734 0.422096 0.751451 -0.732778
H14   H     H_    0.103827 0.519296 0.791115 0.270935
H15   H     H_    0.056930 0.367202 0.827683 0.272298
H16   H     H_    0.155772 0.379790 0.738742 0.216180
N3    N     N_R   0.918270 0.484683 0.758649 0.267462
O9    O     O_R   0.954888 0.583540 0.815960 -0.305834
O10   O     O_R   0.858211 0.425295 0.824104 -0.273378
N4    N     N_R   0.650647 0.162817 0.932856 0.216077
O11   O     O_R   0.715560 0.232616 0.895774 -0.304844
O12   O     O_R   0.622844 0.175136 0.056340 -0.380440
C36   C     C_3   0.560101 0.925879 0.004672 -0.825337
H17   H     H_    0.625874 0.921520 0.042873 0.273359
H18   H     H_    0.522796 0.988403 0.072156 0.270535
H19   H     H_    0.529602 0.830994 0.008183 0.207761
C37   C     C_3   0.401226 0.866813 0.290781 -0.800706
H20   H     H_    0.354982 0.799477 0.336646 0.261068
H21   H     H_    0.364086 0.933026 0.233783 0.228570
H22   H     H_    0.442501 0.816957 0.217286 0.246211
C38   C     C_3   0.629968 0.642858 0.140203 -0.716831
H23   H     H_    0.666486 0.701849 0.068446 0.216095
H24   H     H_    0.607083 0.706857 0.220900 0.246518
H25   H     H_    0.675807 0.577275 0.178862 0.288243
C39   C     C_3   0.270705 0.168217 0.134776 -0.884417
H26   H     H_    0.278493 0.175545 0.245993 0.231490
H27   H     H_    0.204100 0.188656 0.110628 0.263127
H28   H     H_    0.283011 0.070881 0.099775 0.254912
C40   C     C_3   0.086223 0.335614 0.302741 -0.871718
H29   H     H_    0.074320 0.254580 0.367688 0.255864
H30   H     H_    0.057836 0.311858 0.202555 0.281369
H31   H     H_    0.155719 0.349630 0.287107 0.253066
N5    N     N_R   0.907768 0.478519 0.249052 0.226708
O13   O     O_R   0.924215 0.587246 0.198103 -0.331123
O14   O     O_R   0.857078 0.399027 0.184268 -0.297979
N6    N     N_R   0.104005 0.735144 0.461552 0.220745
O15   O     O_R   0.154413 0.814413 0.527189 -0.358976
O16   O     O_R   0.096307 0.745137 0.331957 -0.369887
N7    N     N_R   0.919569 0.737301 0.608625 0.249766
O17   O     O_R   0.846122 0.714803 0.665708 -0.323043
O18   O     O_R   0.953615 0.849702 0.622379 -0.312861

loop_
_geom_bond_atom_site_label_1
_geom_bond_atom_site_label_2
_geom_bond_distance
_ccdc_geom_bond_type
C20   C21   1.420262 A    
N1    C33   1.385190 A    
C1    C23   1.427038 S    
C12   H6    1.105502 S    
N6    O15   1.301346 A    
C5    C35   1.548704 S    
C31   N2    1.377898 A    
C18   N4    1.440771 S    
C31   C32   1.432972 A    
C11   C14   1.442361 S    
C5    H2    1.110888 S    
C12   C13   1.557501 S    
C19   C20   1.406912 A    
C37   H21   1.109309 S    
C35   H16   1.111121 S    
H1    C10   1.116667 S    
C9    C15   1.443562 S    
C18   C19   1.409667 A    
O4    C2    1.289422 A    
O7    C4    1.289155 A    
C38   H24   1.101798 S    
C33   C38   1.503394 S    
C35   H15   1.110673 S    
C17   H8    1.082910 S    
C22   C23   1.406377 A    
O5    C3    1.283777 A    
O1    Zn1   1.984198 S    
C27   H10   1.063808 S    
C28   C39   1.501306 S    
C6    C7    1.555522 S    
C29   C30   1.389525 A    
C37   H22   1.108354 S    
N7    O18   1.301447 A    
C36   H17   1.109881 S    
C9    C13   1.572229 S    
C6    H3    1.106975 S    
C5    C9    1.575433 S    
N6    O16   1.301154 A    
C8    C14   1.184281 T    
C19   C36   1.504851 S    
C6    C40   1.544906 S    
C17   C22   1.413291 A    
O3    Zn1   1.976152 S    
Zn2   N1    2.024510 S    
Zn1   N2    2.024733 S    
C12   N7    1.476317 S    
C21   C26   1.427888 A    
C27   C28   1.398282 A    
C37   H20   1.110936 S    
C40   H30   1.111021 S    
C13   H5    1.110473 S    
N4    O11   1.301282 A    
H7    C24   1.084633 S    
C10   C11   1.574970 S    
O3    C2    1.289904 A    
C38   H23   1.110368 S    
C11   C12   1.578671 S    
O6    C3    1.305440 A    
C7    H4    1.116292 S    
C30   H12   1.063507 S    
C35   H14   1.107058 S    
C30   C31   1.408677 A    
N3    O10   1.301062 A    
Zn1   O7    1.968993 S    
C24   C25   1.376705 A    
C15   C16   1.183583 T    
N5    O14   1.301380 A    
Zn2   O8    1.976150 S    
N7    O17   1.301283 A    
C27   C32   1.409534 A    
C36   H19   1.108255 S    
C25   C37   1.513309 S    
Zn2   O6    1.984198 S    
C21   C22   1.390231 A    
C2    C16   1.395098 S    
O8    C4    1.290598 A    
C39   H26   1.111007 S    
C6    C9    1.575410 S    
C39   H27   1.109989 S    
C13   N6    1.473358 S    
C23   C24   1.392233 A    
N5    O13   1.301164 A    
C25   C26   1.413300 A    
N4    O12   1.300971 A    
Zn1   O5    2.010968 S    
C32   N1    1.375879 A    
C5    C10   1.569217 S    
C40   H29   1.107959 S    
O2    Zn2   2.010969 S    
C7    N5    1.474147 S    
C40   H31   1.109504 S    
O4    Zn2   1.968993 S    
C39   H28   1.109638 S    
C7    C11   1.574007 S    
N3    O9    1.300824 A    
C4    C8    1.396212 S    
O2    C1    1.289572 A    
C34   N2    1.354493 A    
C3    C26   1.446363 S    
C38   H25   1.106395 S    
H13   C34   1.082708 S    
C20   H9    1.077243 S    
C28   C29   1.388961 A    
C33   C34   1.418513 A    
C17   C18   1.397661 A    
C10   N3    1.473975 S    
C29   H11   1.083790 S    
C36   H18   1.109732 S    
O1    C1    1.290614 A    
