data_str_m3_o11_o17_f0_pcu.sym.206
_audit_creation_date              2012-12-10T17:04:31-0500
_audit_creation_method            fapswitch 2.2
_symmetry_space_group_name_H-M    P1
_symmetry_Int_Tables_number       1
_space_group_crystal_system       triclinic
_cell_length_a                    14.911774
_cell_length_b                    10.612511
_cell_length_c                    10.071909
_cell_angle_alpha                 90.11644
_cell_angle_beta                  90.073983
_cell_angle_gamma                 88.953516
_cell_volume                      1593.62295863

loop_
_atom_site_label
_atom_site_type_symbol
_atom_type_description
_atom_site_fract_x
_atom_site_fract_y
_atom_site_fract_z
_atom_type_partial_charge
C1    C     C_R   0.511941 0.263155 0.499894 0.914110
C2    C     C_R   0.903833 0.610962 0.495797 -0.038447
C3    C     C_R   0.960680 0.268212 0.549994 0.171152
C4    C     C_R   0.053887 0.273321 0.546942 -0.236173
C5    C     C_R   0.096597 0.386515 0.523357 0.116385
C6    C     C_R   0.046817 0.500027 0.508020 0.016085
C7    C     C_R   0.091106 0.616478 0.493669 0.048227
C8    C     C_R   0.041211 0.730953 0.485131 0.090792
C9    C     C_R   0.947177 0.727121 0.480028 0.487532
C10   C     C_R   0.189275 0.388116 0.520004 -0.242824
C11   C     C_R   0.232007 0.501230 0.500730 -0.048425
C12   C     C_R   0.327242 0.501224 0.499994 0.871967
C13   C     C_R   0.184759 0.614611 0.488380 -0.233336
C14   C     C_2   0.555906 0.925571 0.415173 -0.257482
C15   C     C_2   0.496511 0.873210 0.497367 0.330646
C16   C     C_2   0.553225 0.060636 0.394502 0.236512
C17   C     C_2   0.549910 0.136095 0.503348 0.078259
C18   C     C_2   0.572088 0.516098 0.924490 0.501364
C19   C     C_2   0.565355 0.539774 0.072774 -0.155594
C20   C     C_R   0.497076 0.738165 0.500151 0.783059
C21   C     C_R   0.672750 0.497580 0.499935 0.866577
C22   C     C_R   0.811194 0.607669 0.502186 -0.301364
C23   C     C_R   0.768324 0.493202 0.499668 -0.053494
C24   C     C_R   0.815747 0.377667 0.496040 0.148890
C25   C     C_R   0.909197 0.378730 0.518394 0.127457
C26   C     C_R   0.953306 0.496596 0.507824 -0.094532
H1    H     H_    0.771214 0.694139 0.503144 0.165114
H2    H     H_    0.441807 0.535295 0.891199 0.131610
H3    H     H_    0.619098 0.587844 0.122615 0.133272
H4    H     H_    0.093719 0.188766 0.566644 0.151733
H5    H     H_    0.228517 0.301702 0.532308 0.135277
H6    H     H_    0.222091 0.700031 0.474491 0.142717
H7    H     H_    0.604411 0.868848 0.359360 0.110458
N1    N     N_2   0.500970 0.501330 0.852150 -0.223141
N2    N     N_2   0.500990 0.501360 0.147810 -0.061324
O1    O     O_R   0.499990 0.319060 0.613040 -0.593894
O2    O     O_R   0.500010 0.319100 0.386900 -0.635532
O3    O     O_R   0.367830 0.499950 0.613080 -0.615719
O4    O     O_R   0.367860 0.499990 0.386940 -0.603083
O5    O     O_R   0.499990 0.680900 0.613100 -0.645622
O6    O     O_R   0.500010 0.680940 0.386960 -0.609732
O7    O     O_R   0.632140 0.500010 0.613060 -0.555361
O8    O     O_R   0.632170 0.500050 0.386920 -0.627976
Zn1   Zn    Zn3+2 0.499980 0.499970 0.650990 0.958825
Zn2   Zn    Zn3+2 0.500020 0.500030 0.349010 0.937396
O9    O     O_3   0.425039 0.944497 0.549426 -0.646653
C27   C     C_3   0.408819 0.917192 0.684866 0.075742
H8    H     H_    0.394189 0.008064 0.736067 0.157605
H9    H     H_    0.467900 0.875024 0.737555 0.141156
C28   C     C_3   0.325783 0.836160 0.699217 -0.334570
H10   H     H_    0.266985 0.889806 0.660457 0.212272
H11   H     H_    0.333723 0.748532 0.640369 0.231771
C29   C     C_3   0.308916 0.801814 0.843910 -0.934411
H12   H     H_    0.367210 0.748092 0.884909 0.256420
H13   H     H_    0.248556 0.742400 0.850497 0.267598
H14   H     H_    0.297419 0.888366 0.904185 0.258641
C30   C     C_3   0.539174 0.103948 0.253086 -0.886063
H15   H     H_    0.551044 0.025149 0.182030 0.229324
H16   H     H_    0.468997 0.137767 0.238738 0.250638
H17   H     H_    0.587227 0.178987 0.228078 0.248462
C31   C     C_3   0.590286 0.094521 0.635885 -0.924576
H18   H     H_    0.638352 0.165679 0.671284 0.245277
H19   H     H_    0.537665 0.088740 0.712734 0.248981
H20   H     H_    0.627652 0.003438 0.629852 0.234896
O10   O     O_3   0.655342 0.501510 0.864052 -0.602911
C32   C     C_3   0.711974 0.605221 0.887270 0.089256
H21   H     H_    0.776434 0.583895 0.835972 0.176347
H22   H     H_    0.730183 0.614747 0.993498 0.109503
C33   C     C_3   0.674325 0.729765 0.829451 -0.360680
H23   H     H_    0.668262 0.721439 0.719939 0.239373
H24   H     H_    0.606857 0.752024 0.870846 0.199262
C34   C     C_3   0.735611 0.838926 0.862194 -0.974796
H25   H     H_    0.738718 0.852249 0.971390 0.263921
H26   H     H_    0.708629 0.927103 0.817402 0.273593
H27   H     H_    0.804120 0.820407 0.822621 0.281667
C35   C     C_3   0.437338 0.408890 0.100861 -0.621834
H28   H     H_    0.413243 0.353310 0.185729 0.248712
H29   H     H_    0.376437 0.456418 0.060233 0.179784
H30   H     H_    0.468112 0.339835 0.030565 0.182212
C36   C     C_3   0.769403 0.260223 0.447290 -0.928017
H31   H     H_    0.812933 0.208924 0.375140 0.247920
H32   H     H_    0.752445 0.198398 0.531040 0.251163
H33   H     H_    0.706587 0.281880 0.392535 0.241341
C37   C     C_3   0.920652 0.149563 0.605508 -0.880320
H34   H     H_    0.868152 0.173929 0.679750 0.249079
H35   H     H_    0.893294 0.090128 0.525348 0.271559
H36   H     H_    0.971685 0.091027 0.658674 0.241113
C38   C     C_3   0.087454 0.856763 0.486308 -0.910686
H37   H     H_    0.127525 0.864607 0.578373 0.233046
H38   H     H_    0.131567 0.865185 0.398201 0.232026
H39   H     H_    0.040109 0.938324 0.486035 0.276100
O11   O     O_3   0.897567 0.838404 0.466910 -0.657869
C39   C     C_3   0.866510 0.852168 0.334361 0.047162
H40   H     H_    0.799915 0.900771 0.338504 0.165942
H41   H     H_    0.855866 0.760720 0.282118 0.131255
C40   C     C_3   0.930358 0.933584 0.253574 -0.360160
H42   H     H_    0.940102 0.025051 0.304906 0.229882
H43   H     H_    0.996379 0.884422 0.244167 0.231077
C41   C     C_3   0.894067 0.958960 0.114479 -0.956269
H44   H     H_    0.889018 0.868966 0.058814 0.266310
H45   H     H_    0.940507 0.021245 0.060344 0.273041
H46   H     H_    0.827094 0.006311 0.119680 0.267024

loop_
_geom_bond_atom_site_label_1
_geom_bond_atom_site_label_2
_ccdc_geom_bond_type
C32   H22   S    
C39   H40   S    
C31   H20   S    
C13   H6    S    
C37   H36   S    
C14   H7    S    
C20   O6    A    
C7    C8    A    
C27   H9    S    
C6    C26   A    
C29   H12   S    
C18   O10   S    
C35   H29   S    
C34   H27   S    
C5    C6    A    
C36   H31   S    
C30   H16   S    
C32   C33   S    
C40   C41   S    
C33   H24   S    
C18   C19   S    
C31   H19   S    
C17   C31   S    
C21   O8    A    
C10   H5    S    
C24   C36   S    
C27   H8    S    
C8    C9    A    
C40   H43   S    
C2    C22   A    
C28   H11   S    
C23   C24   A    
C35   H30   S    
C1    O2    A    
O4    Zn2   S    
C32   H21   S    
H2    N1    S    
C39   H41   S    
C33   H23   S    
O7    Zn1   S    
C36   H33   S    
C9    O11   S    
C27   C28   S    
C35   H28   S    
C29   H13   S    
C15   C20   S    
N2    C35   S    
C28   C29   S    
C3    C25   A    
N1    Zn1   S    
C24   C25   A    
C34   H26   S    
C34   H25   S    
C30   H17   S    
C25   C26   A    
C8    C38   S    
C33   C34   S    
O3    Zn1   S    
O8    Zn2   S    
C41   H44   S    
C38   H39   S    
C7    C13   A    
C40   H42   S    
C28   H10   S    
C2    C26   A    
C37   H34   S    
C18   N1    D    
C36   H32   S    
C41   H45   S    
C38   H38   S    
C39   C40   S    
C22   H1    S    
C21   C23   S    
C14   C16   S    
O1    Zn1   S    
O2    Zn2   S    
C3    C4    A    
N2    Zn2   S    
C29   H14   S    
O9    C27   S    
C14   C15   D    
C37   H35   S    
C4    C5    A    
C11   C12   S    
C6    C7    A    
C1    C17   S    
C12   O4    A    
C5    C10   A    
C19   N2    D    
C11   C13   A    
C30   H15   S    
C16   C17   D    
C20   O5    A    
O11   C39   S    
C16   C30   S    
C12   O3    A    
C31   H18   S    
C10   C11   A    
C21   O7    A    
O5    Zn1   S    
C41   H46   S    
C38   H37   S    
O10   C32   S    
C3    C37   S    
O6    Zn2   S    
C22   C23   A    
C15   O9    S    
C2    C9    A    
C4    H4    S    
C1    O1    A    
C19   H3    S    
