data_str_m12_o9_o12_f0_bcu.sym.126
_audit_creation_date              2012-12-11T17:41:21-0500
_audit_creation_method            fapswitch 2.2
_symmetry_space_group_name_H-M    P1
_symmetry_Int_Tables_number       1
_space_group_crystal_system       triclinic
_cell_length_a                    15.511383
_cell_length_b                    14.821538
_cell_length_c                    15.081804
_cell_angle_alpha                 109.478075
_cell_angle_beta                  121.475341
_cell_angle_gamma                 59.616518
_cell_volume                      2539.67573498

loop_
_atom_site_label
_atom_site_type_symbol
_atom_type_description
_atom_site_fract_x
_atom_site_fract_y
_atom_site_fract_z
_atom_type_partial_charge
C1    C     C_R   0.756877 0.992324 0.790854 -0.125797
C2    C     C_R   0.197511 0.061915 0.226715 -0.146917
C3    C     C_R   0.227151 0.299127 0.575936 0.173827
C4    C     C_R   0.863088 0.729131 0.522286 0.253674
C5    C     C_R   0.502209 0.300617 0.432279 0.063158
C6    C     C_R   0.496080 0.674936 0.444679 0.056506
C7    C     C_R   0.496142 0.931144 0.794788 0.056699
C8    C     C_R   0.496865 0.969152 0.174176 0.047154
C9    C     C_R   0.711324 0.599139 0.804154 -0.110901
C10   C     C_R   0.298553 0.309216 0.104477 -0.123118
C11   C     C_R   0.629075 0.687577 0.828416 -0.129646
C12   C     C_R   0.370969 0.206515 0.087834 -0.119992
C13   C     C_R   0.657669 0.746947 0.925824 0.116306
C14   C     C_R   0.329289 0.130957 0.023176 0.120197
C15   C     C_R   0.769964 0.715232 0.998761 -0.173337
C16   C     C_R   0.214304 0.159581 0.975137 -0.193492
C17   C     C_R   0.851879 0.626548 0.974228 -0.107872
C18   C     C_R   0.142422 0.261879 0.993981 -0.120609
C19   C     C_R   0.822616 0.568634 0.877004 -0.101971
C20   C     C_R   0.184529 0.336748 0.058485 -0.093406
C21   C     C_R   0.570131 0.858560 0.046859 -0.242139
C22   C     C_R   0.401904 0.005050 0.902396 -0.229610
C23   C     C_R   0.251726 0.289933 0.496004 -0.080533
C24   C     C_R   0.801365 0.727389 0.561675 -0.053224
C25   C     C_R   0.490328 0.950129 0.071796 0.066264
C26   C     C_R   0.487519 0.920078 0.880550 0.058447
C27   C     C_R   0.405246 0.024373 0.998753 0.012299
C28   C     C_R   0.570662 0.842680 0.950684 0.023406
C29   C     C_2   0.166019 0.396747 0.622955 -0.246658
C30   C     C_2   0.979918 0.661257 0.552520 -0.329860
C31   C     C_2   0.133722 0.487844 0.591873 0.387001
C32   C     C_2   0.014113 0.558580 0.552997 0.373089
C33   C     C_2   0.850186 0.117829 0.898620 -0.214659
C34   C     C_2   0.015993 0.047449 0.156344 -0.222268
C35   C     C_R   0.086402 0.727729 0.201342 -0.134950
C36   C     C_R   0.798969 0.114211 0.356750 -0.120089
C37   C     C_R   0.187144 0.660746 0.271688 -0.177384
C38   C     C_R   0.700873 0.203290 0.348656 -0.140924
C39   C     C_R   0.287508 0.634558 0.270679 0.103944
C40   C     C_R   0.703421 0.290129 0.424064 0.112251
C41   C     C_R   0.284875 0.678010 0.198918 -0.146045
C42   C     C_R   0.806049 0.286715 0.506775 -0.163625
C43   C     C_R   0.183874 0.745030 0.128809 -0.088813
C44   C     C_R   0.903998 0.197566 0.514282 -0.108323
C45   C     C_R   0.593041 0.218381 0.490007 -0.141632
C46   C     C_R   0.405420 0.769154 0.442807 -0.134339
C47   C     C_R   0.084690 0.769062 0.129393 -0.102160
C48   C     C_R   0.900455 0.111392 0.439414 -0.093914
C49   C     C_R   0.399009 0.464386 0.347303 -0.247901
C50   C     C_R   0.595069 0.482385 0.417939 -0.235876
C51   C     C_R   0.501180 0.381261 0.394479 0.055350
C52   C     C_R   0.494198 0.571684 0.394075 0.058650
C53   C     C_R   0.599112 0.384939 0.413816 0.024831
C54   C     C_R   0.394480 0.557846 0.339990 0.037031
C55   C     C_2   0.864085 0.105136 0.989715 -0.104734
C56   C     C_2   0.958886 0.115411 0.084660 -0.107114
C57   C     C_R   0.406304 0.982722 0.710474 -0.144908
C58   C     C_R   0.591658 0.955617 0.267879 -0.134528
C59   C     C_R   0.409679 0.289463 0.411439 -0.099183
C60   C     C_R   0.590211 0.694448 0.514926 -0.126807
C61   C     C_R   0.590052 0.913192 0.790071 -0.131161
C62   C     C_R   0.405818 0.023553 0.194890 -0.112760
C63   C     C_R   0.252285 0.199058 0.589180 -0.176377
C64   C     C_R   0.802561 0.818661 0.471542 -0.203518
C65   C     C_R   0.758077 0.084866 0.700573 -0.142841
C66   C     C_R   0.195599 0.970713 0.315912 -0.136311
C67   C     C_R   0.788815 0.068643 0.800575 0.149396
C68   C     C_R   0.132982 0.024178 0.227754 0.154802
H1    H     H_    0.769998 0.958345 0.852282 0.088767
H2    H     H_    0.170681 0.119101 0.178211 0.092201
H3    H     H_    0.980426 0.999606 0.154838 0.130192
H4    H     H_    0.895256 0.153940 0.896887 0.126910
H5    H     H_    0.886197 0.500142 0.858133 0.102221
H6    H     H_    0.128759 0.416339 0.071863 0.102381
H7    H     H_    0.688738 0.554275 0.728802 0.114603
H8    H     H_    0.330729 0.367801 0.151504 0.124380
H9    H     H_    0.543192 0.709937 0.771164 0.117401
H10   H     H_    0.459022 0.186345 0.123173 0.103391
H11   H     H_    0.794365 0.760053 0.073889 0.102175
H12   H     H_    0.180762 0.102545 0.923715 0.115207
H13   H     H_    0.938157 0.602981 0.030465 0.110813
H14   H     H_    0.054012 0.283429 0.957625 0.105437
H15   H     H_    0.632773 0.800947 0.103096 0.134058
H16   H     H_    0.339366 0.066004 0.849654 0.130779
H17   H     H_    0.036878 0.696254 0.577363 0.110003
H18   H     H_    0.117395 0.390114 0.650625 0.101851
H19   H     H_    0.006466 0.819728 0.074073 0.099066
H20   H     H_    0.976368 0.042487 0.445389 0.096080
H21   H     H_    0.238683 0.351450 0.461561 0.141678
H22   H     H_    0.832157 0.678973 0.620723 0.113089
H23   H     H_    0.009530 0.747099 0.202186 0.103669
H24   H     H_    0.796306 0.047468 0.298756 0.102217
H25   H     H_    0.186692 0.629613 0.326909 0.112566
H26   H     H_    0.622933 0.204584 0.283894 0.107019
H27   H     H_    0.360822 0.658721 0.196214 0.120032
H28   H     H_    0.810159 0.352509 0.565858 0.110505
H29   H     H_    0.182408 0.777721 0.073441 0.115990
H30   H     H_    0.982702 0.195269 0.578220 0.103437
H31   H     H_    0.321958 0.457712 0.316416 0.118257
H32   H     H_    0.671153 0.488741 0.442712 0.141444
H33   H     H_    0.679325 0.195099 0.513331 0.115078
H34   H     H_    0.318841 0.784780 0.401658 0.118849
H35   H     H_    0.320591 0.998318 0.683213 0.089749
H36   H     H_    0.677032 0.918838 0.279901 0.097437
H37   H     H_    0.325001 0.329895 0.356931 0.082428
H38   H     H_    0.675747 0.639047 0.538334 0.110660
H39   H     H_    0.675274 0.867167 0.839601 0.105223
H40   H     H_    0.319697 0.045521 0.140272 0.110878
H41   H     H_    0.241481 0.178155 0.643737 0.106619
H42   H     H_    0.833557 0.852529 0.447160 0.102289
H43   H     H_    0.771744 0.138370 0.680315 0.101295
H44   H     H_    0.164302 0.944857 0.347855 0.096311
H45   H     H_    0.992864 0.164232 0.085416 0.127470
H46   H     H_    0.819946 0.068726 0.992380 0.127108
N1    N     N_R   0.705410 0.966550 0.689210 -0.048227
N2    N     N_R   0.294590 0.033450 0.310790 -0.043971
N3    N     N_R   0.294590 0.188320 0.465660 -0.058683
N4    N     N_R   0.705410 0.811680 0.534340 -0.062899
N5    N     N_R   0.556610 0.157790 0.497330 -0.038619
N6    N     N_R   0.443390 0.842210 0.502670 -0.042011
N7    N     N_R   0.443390 0.997080 0.657540 -0.033864
N8    N     N_R   0.556610 0.002920 0.342460 -0.037423
N9    N     N_R   0.443390 0.203250 0.451380 -0.041483
N10   N     N_R   0.556610 0.796750 0.548620 -0.041892
N11   N     N_R   0.556610 0.951620 0.703500 -0.038316
N12   N     N_R   0.443390 0.048380 0.296500 -0.043081
N13   N     N_R   0.294590 0.131500 0.522480 -0.042636
N14   N     N_R   0.705410 0.868500 0.477520 -0.041980
N15   N     N_R   0.705410 0.023370 0.632390 -0.042919
N16   N     N_R   0.294590 0.976630 0.367610 -0.042992
Ni1   Ni    Ni4+2 0.629830 0.882720 0.617850 0.211843
Ni2   Ni    Ni4+2 0.370170 0.117280 0.382150 0.214182
Ni3   Ni    Ni4+2 0.629830 0.013030 0.487540 0.215549
Ni4   Ni    Ni4+2 0.370170 0.986970 0.512460 0.209968
O1    O     O_3   0.934857 0.518917 0.511770 -0.771337
H47   H     H_    0.967414 0.442649 0.491343 0.309347
O2    O     O_3   0.207620 0.504874 0.581103 -0.757952
H48   H     H_    0.165451 0.560298 0.533413 0.298122

loop_
_geom_bond_atom_site_label_1
_geom_bond_atom_site_label_2
_ccdc_geom_bond_type
C33   C55   D    
C66   C68   A    
C55   C56   S    
C34   C56   D    
N9    Ni2   S    
C3    C23   A    
N13   Ni4   S    
C35   C47   A    
C4    C30   S    
O1    H47   S    
C39   C41   A    
N1    Ni1   S    
C46   H34   S    
N5    Ni3   S    
C7    C26   S    
N4    N14   A    
C42   H28   S    
C35   C37   A    
C2    C68   A    
C4    C24   A    
C39   C54   S    
C62   H40   S    
C49   C54   A    
C6    C52   S    
C60   N10   A    
C3    C29   S    
N3    Ni2   S    
C65   H43   S    
N4    Ni1   S    
C11   H9    S    
C33   H4    S    
C8    C58   A    
C2    N2    A    
C9    C19   A    
C15   H11   S    
C21   H15   S    
C10   C20   A    
C49   C51   A    
C12   H10   S    
C50   C52   A    
C56   H45   S    
C48   H20   S    
C13   C28   S    
C14   C27   S    
C31   O2    S    
C17   H13   S    
N6    Ni4   S    
C36   H24   S    
C40   C42   A    
C38   C40   A    
C8    C25   S    
C41   C43   A    
N16   Ni4   S    
C42   C44   A    
C10   C12   A    
C52   C54   A    
C59   N9    A    
C57   H35   S    
C58   N8    A    
C50   C53   A    
C5    C59   A    
C46   N6    A    
C6    C60   A    
C19   H5    S    
C34   C68   S    
C62   N12   A    
C64   N14   A    
C5    C45   A    
C1    H1    S    
C1    C67   A    
N10   Ni1   S    
C51   C53   A    
C47   H19   S    
N8    N12   A    
N8    Ni3   S    
N7    N11   A    
C49   H31   S    
C9    C11   A    
N11   Ni1   S    
C64   H42   S    
C31   C32   S    
N2    Ni2   S    
N12   Ni2   S    
C38   H26   S    
C23   H21   S    
C37   H25   S    
C59   H37   S    
C30   H17   S    
N3    N13   A    
C29   H18   S    
C45   H33   S    
N15   Ni3   S    
C16   C18   A    
C21   C28   A    
C12   C14   A    
C18   H14   S    
C3    C63   A    
C22   C27   A    
C13   C15   A    
N7    Ni4   S    
C14   C16   A    
C58   H36   S    
C60   H38   S    
C33   C67   S    
N1    N15   A    
C15   C17   A    
C21   C25   A    
C44   H30   S    
C6    C46   A    
C10   H8    S    
C43   H29   S    
C24   H22   S    
C23   N3    A    
C32   O1    S    
C65   N15   A    
C20   H6    S    
C55   H46   S    
N5    N9    A    
C25   C27   A    
C1    N1    A    
O2    H48   S    
C4    C64   A    
C26   C28   A    
C65   C67   A    
C66   H44   S    
C36   C38   A    
C29   C31   D    
N14   Ni3   S    
C30   C32   D    
C11   C13   A    
C45   N5    A    
C41   H27   S    
C24   N4    A    
C17   C19   A    
C36   C48   A    
C18   C20   A    
C61   H39   S    
C63   N13   A    
C50   H32   S    
C57   N7    A    
C44   C48   A    
N2    N16   A    
C37   C39   A    
C40   C53   S    
C22   C26   A    
C8    C62   A    
C5    C51   S    
C61   N11   A    
C9    H7    S    
C16   H12   S    
C2    H2    S    
C43   C47   A    
C34   H3    S    
C7    C57   A    
C7    C61   A    
N6    N10   A    
C22   H16   S    
C63   H41   S    
C66   N16   A    
C35   H23   S    
