data_str_m9_o2_o20_f0_sra.sym.137
_audit_creation_date              2013-03-05T16:02:39-0500
_audit_creation_method            fapswitch 2.2
_symmetry_space_group_name_H-M    P1
_symmetry_Int_Tables_number       1
_space_group_crystal_system       triclinic
_cell_length_a                    6.960695
_cell_length_b                    17.405637
_cell_length_c                    18.664323
_cell_angle_alpha                 106.270551
_cell_angle_beta                  90.021241
_cell_angle_gamma                 90.601293
_cell_volume                      2170.58411459

loop_
_atom_site_label
_atom_site_type_symbol
_atom_site_description
_atom_site_fract_x
_atom_site_fract_y
_atom_site_fract_z
_atom_type_partial_charge
O1    O     O_R   0.494360 0.415680 0.413760 -0.582950
O2    O     O_R   0.818810 0.432910 0.557230 -0.578759
O3    O     O_R   0.994290 0.584320 0.586240 -0.582979
C1    C     C_R   0.649746 0.415668 0.580303 0.941717
O4    O     O_R   0.823740 0.406440 0.412520 -0.583954
O5    O     O_R   0.999250 0.557660 0.440500 -0.561205
C2    C     C_R   0.654322 0.383826 0.384815 0.946684
O6    O     O_R   0.489400 0.442340 0.559500 -0.588625
O7    O     O_3   0.662500 0.549650 0.509350 -0.258030
V1    V     V_3+5 0.935340 0.490790 0.498270 1.152748
O8    O     O_R   0.329270 0.567090 0.442770 -0.568662
C3    C     C_R   0.161000 0.584092 0.419473 0.963568
O9    O     O_R   0.324340 0.593560 0.587480 -0.597276
C4    C     C_R   0.157440 0.610718 0.619201 0.928596
V2    V     V_3+5 0.435970 0.509210 0.501730 1.149048
O10   O     O_3   0.158940 0.450350 0.490650 -0.272548
H1    H     H_    0.191737 0.847769 0.539778 0.130289
C5    C     C_R   0.177196 0.593141 0.779674 0.108674
C6    C     C_R   0.151408 0.588953 0.853253 -0.133622
C7    C     C_R   0.109490 0.655643 0.910634 -0.122269
C8    C     C_R   0.097976 0.729225 0.897049 -0.169892
C9    C     C_R   0.121402 0.738190 0.824396 0.108421
C10   C     C_R   0.151373 0.668704 0.762431 0.053562
C11   C     C_R   0.115678 0.816210 0.814702 -0.287490
C12   C     C_R   0.127497 0.826692 0.741634 -0.059329
C13   C     C_R   0.151352 0.757998 0.679394 0.125095
C14   C     C_R   0.154440 0.679301 0.688524 -0.266236
C15   C     C_R   0.113553 0.903643 0.727889 0.266232
C16   C     C_R   0.139401 0.912484 0.655411 0.078205
C17   C     C_R   0.171501 0.844337 0.596199 -0.196592
C18   C     C_R   0.173206 0.769115 0.607574 -0.182893
H2    H     H_    0.168267 0.532862 0.867018 0.135593
H3    H     H_    0.091036 0.650633 0.966774 0.153758
H4    H     H_    0.069477 0.779166 0.945121 0.096049
H5    H     H_    0.194598 0.719654 0.558354 0.116998
C19   C     C_1   0.112418 0.864183 0.132807 -0.316442
C20   C     C_1   0.120012 0.821717 0.176493 0.064282
C21   C     C_1   0.129357 0.771668 0.228545 0.012915
C22   C     C_1   0.137247 0.729487 0.272478 0.045629
C23   C     C_1   0.146289 0.679284 0.324398 0.136491
C24   C     C_1   0.153223 0.636459 0.367777 -0.291677
C25   C     C_1   0.640734 0.363447 0.632045 -0.335791
C26   C     C_1   0.636735 0.320753 0.675570 0.027072
C27   C     C_1   0.633388 0.270636 0.727560 -0.010611
C28   C     C_1   0.630749 0.228526 0.771589 -0.001485
C29   C     C_1   0.627218 0.178657 0.823821 0.083436
C30   C     C_1   0.623067 0.136344 0.867669 -0.202093
H6    H     H_    0.419729 0.143248 0.445935 0.119724
C31   C     C_R   0.758147 0.401967 0.240114 -0.306359
C32   C     C_R   0.810162 0.413426 0.171166 0.418308
C33   C     C_R   0.802966 0.348155 0.107256 -0.226724
C34   C     C_R   0.742337 0.273114 0.111563 -0.212119
C35   C     C_R   0.688089 0.260551 0.180379 0.134562
C36   C     C_R   0.697444 0.326134 0.246091 0.074393
C37   C     C_R   0.621678 0.184484 0.184134 -0.288604
C38   C     C_R   0.564979 0.174040 0.253838 0.112112
C39   C     C_R   0.576385 0.239440 0.319793 0.111355
C40   C     C_R   0.642752 0.315481 0.315982 -0.282424
C41   C     C_R   0.499423 0.098727 0.259556 -0.167766
C42   C     C_R   0.446757 0.088183 0.328246 -0.113883
C43   C     C_R   0.459098 0.151874 0.392619 -0.112168
C44   C     C_R   0.523163 0.226702 0.388784 -0.151185
H7    H     H_    0.764332 0.453095 0.288955 0.161936
H8    H     H_    0.841945 0.355289 0.053317 0.171686
H9    H     H_    0.736720 0.225329 0.060008 0.115367
H10   H     H_    0.489223 0.047084 0.211242 0.111359
H11   H     H_    0.397157 0.030130 0.331587 0.117047
H12   H     H_    0.531474 0.274124 0.440547 0.097790
O11   O     O_R   0.775690 0.057750 0.940570 -0.531253
O12   O     O_R   0.441200 0.093570 0.087490 -0.594657
O13   O     O_R   0.265840 0.942320 0.059480 -0.580485
C45   C     C_R   0.610490 0.116064 0.115351 0.914727
O14   O     O_R   0.446270 0.067110 0.942790 -0.552068
O15   O     O_R   0.270950 0.915660 0.913750 -0.577878
C46   C     C_R   0.615037 0.084432 0.919759 1.007126
O16   O     O_R   0.770580 0.084400 0.086300 -0.597066
O17   O     O_3   0.602640 0.950400 0.990690 -0.271977
V3    V     V_3+5 0.329740 0.009200 0.001730 1.209192
O18   O     O_R   0.940900 0.906360 0.912450 -0.570144
C47   C     C_R   0.108690 0.886050 0.882841 1.035111
O19   O     O_R   0.935830 0.932820 0.057160 -0.579760
C48   C     C_R   0.104158 0.916079 0.080688 0.932760
V4    V     V_3+5 0.829130 0.990680 0.998180 1.211719
O20   O     O_3   0.106100 0.049590 0.009310 -0.251314
N1    N     N_R   0.867963 0.491380 0.166016 0.237075
O21   O     O_R   0.932801 0.500726 0.103556 -0.406264
O22   O     O_R   0.851596 0.554104 0.223175 -0.420109
C49   C     C_3   0.244858 0.514861 0.727398 -0.489962
C50   C     C_3   0.078152 0.454406 0.707107 -0.241366
C51   C     C_3   0.143621 0.373511 0.657666 -0.823749
H13   H     H_    0.201922 0.379451 0.604302 0.278978
H14   H     H_    0.253389 0.348231 0.687302 0.250328
H15   H     H_    0.021536 0.330626 0.644705 0.241600
H16   H     H_    0.014021 0.444732 0.758449 0.194523
H17   H     H_    0.965261 0.479371 0.678870 0.209017
H18   H     H_    0.319765 0.521446 0.678030 0.207472
H19   H     H_    0.357839 0.489680 0.756281 0.196255
N2    N     N_R   0.050152 0.972043 0.784739 0.201503
O23   O     O_R   0.866972 0.985743 0.791536 -0.442324
O24   O     O_R   0.171577 0.028906 0.815920 -0.431355
C52   C     C_3   0.126701 0.995715 0.643722 -0.325320
C53   C     C_3   0.146494 0.999906 0.562852 -0.328044
C54   C     C_3   0.127031 0.085803 0.558482 -0.898546
H20   H     H_    0.985566 0.110439 0.580657 0.266192
H21   H     H_    0.243516 0.124272 0.591000 0.263378
H22   H     H_    0.137405 0.086743 0.499384 0.246581
H23   H     H_    0.289601 0.977425 0.540534 0.206967
H24   H     H_    0.032198 0.962668 0.527579 0.208707
H25   H     H_    0.985411 0.021547 0.664974 0.220834
H26   H     H_    0.241222 0.034098 0.677763 0.215534

loop_
_geom_bond_atom_site_label_1
_geom_bond_atom_site_label_2
_geom_bond_distance
_ccdc_geom_bond_type
C37   C38   1.418710 A    
C49   H18   1.091941 S    
C52   C53   1.537580 S    
C31   H7    1.081382 S    
O12   V3    1.994638 S    
C6    C7    1.374872 A    
C45   O16   1.298226 A    
O19   C48   1.314939 A    
C39   C40   1.417812 A    
C39   C44   1.415309 A    
O17   V3    2.149702 S    
C34   C35   1.412821 A    
C12   C15   1.436808 A    
C13   C14   1.427293 A    
C20   C21   1.477279 S    
C15   C16   1.415010 A    
C41   H10   1.081945 S    
O5    C3    1.312998 A    
C17   C18   1.384022 A    
O17   V4    1.708287 S    
C52   H25   1.111918 S    
C31   C36   1.415629 A    
C38   C39   1.424872 A    
C5    C6    1.406940 A    
C50   H16   1.111310 S    
C32   N1    1.440082 S    
O8    V2    1.847662 S    
C11   C47   1.494141 S    
C42   H11   1.082641 S    
C19   C48   1.502983 S    
O14   V3    1.867863 S    
C53   H24   1.111825 S    
O1    V2    2.006954 S    
C10   C14   1.442154 A    
C4    C14   1.494854 S    
O7    V1    2.149782 S    
C2    C40   1.487835 S    
C49   H19   1.113767 S    
C1    O6    1.312841 A    
O13   C48   1.312517 A    
N1    O22   1.301186 A    
C41   C42   1.393744 A    
O15   C47   1.301832 A    
O9    C4    1.303102 A    
H1    C17   1.080518 S    
O14   C46   1.311962 A    
C53   C54   1.527387 S    
C6    H2    1.084373 S    
O16   V4    2.010774 S    
O19   V4    1.847691 S    
C35   C37   1.418017 A    
C5    C10   1.451822 A    
C11   C12   1.427973 A    
C22   C23   1.477224 S    
O4    C2    1.299515 A    
C8    H4    1.080151 S    
C12   C13   1.425725 A    
C28   C29   1.475849 S    
C5    C49   1.516291 S    
C33   C34   1.392080 A    
C42   C43   1.389768 A    
C50   H17   1.104196 S    
O2    C1    1.313676 A    
C26   C27   1.475465 S    
C16   C17   1.396218 A    
O11   V4    1.835632 S    
C51   H14   1.107472 S    
V4    O20   2.156431 S    
C32   C33   1.398375 A    
C16   C52   1.527695 S    
C53   H23   1.111775 S    
C54   H21   1.111140 S    
C49   C50   1.532291 S    
N1    O21   1.301634 A    
O3    C4    1.307438 A    
C7    H3    1.083088 S    
C23   C24   1.245935 T    
N2    O23   1.299341 A    
O6    V2    1.835108 S    
N2    O24   1.300752 A    
O9    V2    2.007225 S    
C18   H5    1.080211 S    
C25   C26   1.245294 T    
C51   H13   1.106569 S    
O2    V1    1.867774 S    
C27   C28   1.245042 T    
C51   H15   1.105984 S    
C36   C40   1.419651 A    
C15   N2    1.428820 S    
C29   C30   1.245116 T    
C19   C20   1.245967 T    
O1    C2    1.297912 A    
C33   H8    1.082619 S    
C37   C45   1.487845 S    
O5    V1    1.846051 S    
O8    C3    1.314360 A    
C35   C36   1.423162 A    
C3    C24   1.502825 S    
C38   C41   1.415569 A    
C44   H12   1.081741 S    
C52   H26   1.111777 S    
C30   C46   1.501999 S    
O4    V1    1.994719 S    
O3    V1    2.000537 S    
V1    O10   1.704451 S    
O18   V4    2.007123 S    
H6    C43   1.082104 S    
C21   C22   1.246003 T    
C1    C25   1.501164 S    
O11   C46   1.314803 A    
C54   H22   1.110086 S    
C9    C11   1.420300 A    
O7    V2    1.709515 S    
C43   C44   1.392969 A    
O18   C47   1.301585 A    
V3    O20   1.704384 S    
C13   C18   1.415042 A    
C7    C8    1.376629 A    
C31   C32   1.403388 A    
O15   V3    2.000527 S    
C54   H20   1.111084 S    
C9    C10   1.437199 A    
O12   C45   1.299250 A    
C50   C51   1.525606 S    
C8    C9    1.417005 A    
O13   V3    1.845887 S    
C34   H9    1.081688 S    
V2    O10   2.156456 S    
