data_str_m4_o22_o22_f0_acs.sym.99
_audit_creation_date              2012-12-11T15:07:12-0500
_audit_creation_method            fapswitch 2.2
_symmetry_space_group_name_H-M    P1
_symmetry_Int_Tables_number       1
_space_group_crystal_system       triclinic
_cell_length_a                    19.747856
_cell_length_b                    11.44319
_cell_length_c                    18.690869
_cell_angle_alpha                 90.348946
_cell_angle_beta                  88.85637
_cell_angle_gamma                 89.522117
_cell_volume                      4222.66301953

loop_
_atom_site_label
_atom_site_type_symbol
_atom_type_description
_atom_site_fract_x
_atom_site_fract_y
_atom_site_fract_z
_atom_type_partial_charge
C1    C     C_R   0.770444 0.492802 0.633307 0.569778
C2    C     C_R   0.228582 0.492283 0.366985 0.579380
C3    C     C_R   0.270444 0.992799 0.633307 0.569754
C4    C     C_R   0.728582 0.992283 0.366984 0.579366
C5    C     C_3   0.806007 0.097712 0.443660 0.157028
C6    C     C_3   0.184536 0.097690 0.565469 0.136518
C7    C     C_3   0.306010 0.597703 0.443663 0.156996
C8    C     C_3   0.684536 0.597690 0.565468 0.136522
C9    C     C_3   0.737252 0.039174 0.439837 0.052054
C10   C     C_3   0.256170 0.042568 0.563765 0.040431
C11   C     C_3   0.237253 0.539172 0.439838 0.052011
C12   C     C_3   0.756171 0.542571 0.563765 0.040439
C13   C     C_3   0.759798 0.091531 0.573535 0.023839
C14   C     C_3   0.229563 0.109769 0.433588 0.011297
C15   C     C_3   0.259798 0.591528 0.573536 0.023834
C16   C     C_3   0.729563 0.609773 0.433588 0.011290
C17   C     C_3   0.768074 0.960880 0.562832 -0.253009
C18   C     C_3   0.226125 0.976559 0.437366 -0.212409
C19   C     C_3   0.268069 0.460876 0.562835 -0.253002
C20   C     C_3   0.726125 0.476562 0.437367 -0.212417
C21   C     C_3   0.812681 0.142233 0.521465 -0.238236
C22   C     C_3   0.176154 0.153830 0.491532 -0.284340
C23   C     C_3   0.312684 0.642224 0.521468 -0.238203
C24   C     C_3   0.676155 0.653834 0.491533 -0.284323
C25   C     C_3   0.982094 0.223742 0.451716 -0.225896
C26   C     C_3   0.961262 0.233456 0.530220 -0.262599
C27   C     C_3   0.482101 0.723739 0.451721 -0.226029
C28   C     C_3   0.461273 0.733451 0.530226 -0.262501
C29   C     C_3   0.071963 0.369020 0.466858 -0.259411
C30   C     C_3   0.951694 0.451095 0.529704 -0.237043
C31   C     C_3   0.571965 0.869028 0.466859 -0.259322
C32   C     C_3   0.451694 0.951087 0.529705 -0.237017
C33   C     C_3   0.960798 0.448586 0.448526 -0.222497
C34   C     C_3   0.061222 0.351488 0.547600 -0.232039
C35   C     C_3   0.460799 0.948581 0.448527 -0.222497
C36   C     C_3   0.561227 0.851498 0.547603 -0.232025
C37   C     C_3   0.007520 0.343644 0.426762 0.096627
C38   C     C_3   0.986935 0.343522 0.565586 0.035406
C39   C     C_3   0.507523 0.843644 0.426765 0.096609
C40   C     C_3   0.486940 0.843522 0.565591 0.035420
C41   C     C_3   0.814055 0.015076 0.044135 -0.232308
C42   C     C_3   0.185947 0.015944 0.955645 -0.233244
C43   C     C_3   0.314055 0.515075 0.044135 -0.232323
C44   C     C_3   0.685947 0.515944 0.955645 -0.233244
C45   C     C_R   0.776158 0.125564 0.647724 0.553207
C46   C     C_R   0.213394 0.150065 0.359202 0.533114
C47   C     C_R   0.276158 0.625563 0.647725 0.553189
C48   C     C_R   0.713393 0.650067 0.359202 0.533158
C49   C     C_3   0.819531 0.032421 0.964905 -0.224853
C50   C     C_3   0.180974 0.031852 0.035007 -0.225709
C51   C     C_3   0.319531 0.532421 0.964905 -0.224874
C52   C     C_3   0.680974 0.531852 0.035007 -0.225703
C53   C     C_3   0.684370 0.030250 0.032895 -0.221508
C54   C     C_3   0.315587 0.028603 0.966552 -0.222243
C55   C     C_3   0.184370 0.530250 0.032895 -0.221567
C56   C     C_3   0.815588 0.528602 0.966552 -0.222228
C57   C     C_3   0.754076 0.202236 0.062633 -0.254651
C58   C     C_3   0.245369 0.202140 0.938728 -0.253684
C59   C     C_3   0.254075 0.702236 0.062632 -0.254587
C60   C     C_3   0.745369 0.702140 0.938728 -0.253691
C61   C     C_3   0.747962 0.070378 0.075186 0.052785
C62   C     C_3   0.251802 0.070229 0.924955 0.051058
C63   C     C_3   0.247962 0.570378 0.075186 0.052743
C64   C     C_3   0.751803 0.570229 0.924955 0.051063
C65   C     C_3   0.759216 0.106002 0.936289 0.060601
C66   C     C_3   0.240830 0.104983 0.064005 0.060240
C67   C     C_3   0.259216 0.606002 0.936288 0.060608
C68   C     C_3   0.740830 0.604983 0.064005 0.060238
C69   C     C_3   0.696092 0.032231 0.950534 -0.257621
C70   C     C_3   0.304243 0.030388 0.048979 -0.258668
C71   C     C_3   0.196092 0.532230 0.950534 -0.257606
C72   C     C_3   0.804244 0.530389 0.048980 -0.258677
C73   C     C_3   0.748435 0.221788 0.980697 -0.225856
C74   C     C_3   0.251224 0.220889 0.020781 -0.225831
C75   C     C_3   0.248435 0.721788 0.980697 -0.225915
C76   C     C_3   0.751224 0.720889 0.020781 -0.225825
C77   C     C_3   0.005095 0.476033 0.040216 -0.226759
C78   C     C_3   0.994805 0.476033 0.960291 -0.227376
C79   C     C_3   0.505095 0.976033 0.040216 -0.226758
C80   C     C_3   0.494805 0.976033 0.960291 -0.227383
C81   C     C_3   0.064505 0.275711 0.024062 -0.219021
C82   C     C_3   0.936186 0.276043 0.975248 -0.216944
C83   C     C_3   0.564505 0.775711 0.024062 -0.219010
C84   C     C_3   0.436186 0.776043 0.975248 -0.216984
C85   C     C_3   0.942815 0.293014 0.057104 -0.259626
C86   C     C_3   0.057705 0.292398 0.942261 -0.258304
C87   C     C_3   0.442816 0.793014 0.057104 -0.259617
C88   C     C_3   0.557705 0.792398 0.942261 -0.258302
C89   C     C_R   0.968957 0.343756 0.644153 0.571613
C90   C     C_R   0.027121 0.344185 0.351417 0.556929
C91   C     C_R   0.468961 0.843756 0.644158 0.571795
C92   C     C_R   0.527122 0.844185 0.351419 0.556242
C93   C     C_3   0.011590 0.349773 0.069125 0.061911
C94   C     C_3   0.988604 0.349828 0.930661 0.061725
C95   C     C_3   0.511590 0.849773 0.069125 0.061921
C96   C     C_3   0.488604 0.849828 0.930661 0.061723
C97   C     C_R   0.760084 0.533908 0.848472 0.584596
C98   C     C_R   0.239811 0.534023 0.151534 0.572315
C99   C     C_R   0.260084 0.033908 0.848472 0.584608
C100  C     C_R   0.739811 0.034023 0.151534 0.571935
C101  C     C_R   0.773810 0.133313 0.858914 0.542310
C102  C     C_R   0.226290 0.132706 0.141373 0.544506
C103  C     C_R   0.273809 0.633313 0.858914 0.542312
C104  C     C_R   0.726290 0.632706 0.141373 0.544507
C105  C     C_R   0.967296 0.353078 0.854225 0.536105
C106  C     C_R   0.032808 0.353106 0.145655 0.531488
C107  C     C_R   0.467296 0.853078 0.854225 0.536151
C108  C     C_R   0.532808 0.853105 0.145655 0.531410
C109  C     C_3   0.683027 0.130498 0.468434 -0.241326
C110  C     C_3   0.308007 0.136520 0.537371 -0.250681
C111  C     C_3   0.183031 0.630499 0.468433 -0.241346
C112  C     C_3   0.808007 0.636526 0.537372 -0.250684
C113  C     C_3   0.687162 0.134583 0.550884 -0.258568
C114  C     C_3   0.302964 0.145189 0.455741 -0.255158
C115  C     C_3   0.187163 0.634584 0.550883 -0.258552
C116  C     C_3   0.802965 0.645193 0.455742 -0.255160
C117  C     C_3   0.737302 0.934083 0.490992 -0.328826
C118  C     C_3   0.254712 0.939433 0.509387 -0.307882
C119  C     C_3   0.237301 0.434082 0.490992 -0.328832
C120  C     C_3   0.754716 0.439436 0.509385 -0.307886
Cr1   Cr    Cr6+3 0.885690 0.492860 0.745310 1.019252
Cr2   Cr    Cr6+3 0.114310 0.492860 0.254690 1.020896
Cr3   Cr    Cr6+3 0.385690 0.992860 0.745310 1.019253
Cr4   Cr    Cr6+3 0.614310 0.992860 0.254690 1.020846
Cr5   Cr    Cr6+3 0.729880 0.332270 0.748190 1.031726
Cr6   Cr    Cr6+3 0.270120 0.332270 0.251810 1.027979
Cr7   Cr    Cr6+3 0.229880 0.832270 0.748190 1.031786
Cr8   Cr    Cr6+3 0.770120 0.832270 0.251810 1.027843
Cr9   Cr    Cr6+3 0.888120 0.178590 0.753010 1.015687
Cr10  Cr    Cr6+3 0.111880 0.178590 0.246990 1.012782
Cr11  Cr    Cr6+3 0.388120 0.678590 0.753010 1.015676
Cr12  Cr    Cr6+3 0.611880 0.678590 0.246990 1.012576
H1    H     H_    0.630951 0.116513 0.451074 0.113840
H2    H     H_    0.360872 0.120730 0.552223 0.120602
H3    H     H_    0.130955 0.616513 0.451070 0.113844
H4    H     H_    0.860873 0.620741 0.552225 0.120604
H5    H     H_    0.861073 0.105773 0.540368 0.096517
H6    H     H_    0.124757 0.136698 0.472643 0.095126
H7    H     H_    0.361075 0.605760 0.540372 0.096518
H8    H     H_    0.624758 0.636701 0.472646 0.095128
H9    H     H_    0.762638 0.860343 0.466242 0.108778
H10   H     H_    0.223935 0.867931 0.530506 0.103225
H11   H     H_    0.262643 0.360345 0.466243 0.108766
H12   H     H_    0.723940 0.367931 0.530504 0.103228
H13   H     H_    0.822064 0.931576 0.562267 0.119430
H14   H     H_    0.172935 0.945848 0.433207 0.136684
H15   H     H_    0.322058 0.431567 0.562275 0.119431
H16   H     H_    0.672933 0.445851 0.433211 0.136689
H17   H     H_    0.022076 0.156237 0.445535 0.116920
H18   H     H_    0.909086 0.255061 0.531763 0.140972
H19   H     H_    0.522082 0.656236 0.445536 0.116976
H20   H     H_    0.409095 0.755039 0.531772 0.140980
H21   H     H_    0.941417 0.189577 0.419314 0.217294
H22   H     H_    0.973874 0.151799 0.559366 0.157410
H23   H     H_    0.441422 0.689570 0.419322 0.216910
H24   H     H_    0.473894 0.651799 0.559371 0.157439
H25   H     H_    0.613650 0.820123 0.441374 0.091676
H26   H     H_    0.398021 0.948827 0.544781 0.112216
H27   H     H_    0.113648 0.320109 0.441373 0.091617
H28   H     H_    0.898021 0.448844 0.544782 0.112219
H29   H     H_    0.581468 0.765687 0.559313 0.223624
H30   H     H_    0.413990 0.952342 0.419950 0.183448
H31   H     H_    0.081458 0.265672 0.559315 0.223578
H32   H     H_    0.913987 0.452344 0.419954 0.183484
H33   H     H_    0.983849 0.533684 0.433280 0.121066
H34   H     H_    0.083357 0.424136 0.578217 0.168063
H35   H     H_    0.483850 0.033681 0.433283 0.121077
H36   H     H_    0.583361 0.924142 0.578222 0.168040
H37   H     H_    0.972898 0.534629 0.550149 0.138747
H38   H     H_    0.085804 0.459913 0.458822 0.128775
H39   H     H_    0.472893 0.034624 0.550150 0.138736
H40   H     H_    0.585803 0.959920 0.458821 0.128785
H41   H     H_    0.817403 0.921481 0.055143 0.133996
H42   H     H_    0.182581 0.922571 0.943423 0.134842
H43   H     H_    0.317403 0.421481 0.055143 0.133959
H44   H     H_    0.682581 0.422571 0.943423 0.134843
H45   H     H_    0.694223 0.218994 0.448043 0.184824
H46   H     H_    0.294958 0.221988 0.562417 0.164896
H47   H     H_    0.194229 0.718994 0.448039 0.184784
H48   H     H_    0.794956 0.721993 0.562417 0.164893
H49   H     H_    0.858796 0.054031 0.070320 0.122283
H50   H     H_    0.141016 0.056366 0.930305 0.122185
H51   H     H_    0.358796 0.554031 0.070320 0.122388
H52   H     H_    0.641016 0.556366 0.930305 0.122160
H53   H     H_    0.868332 0.072958 0.953068 0.135678
H54   H     H_    0.131740 0.071276 0.047964 0.136932
H55   H     H_    0.368332 0.572958 0.953068 0.135674
H56   H     H_    0.631740 0.571276 0.047964 0.136938
H57   H     H_    0.821877 0.945635 0.937655 0.122980
H58   H     H_    0.179816 0.944658 0.061064 0.122156
H59   H     H_    0.321877 0.445634 0.937655 0.122987
H60   H     H_    0.679816 0.444658 0.061064 0.122148
H61   H     H_    0.664605 0.947365 0.051804 0.107670
H62   H     H_    0.335397 0.945599 0.946455 0.107836
H63   H     H_    0.164605 0.447365 0.051804 0.107647
H64   H     H_    0.835397 0.445599 0.946455 0.107839
H65   H     H_    0.703406 0.942402 0.929144 0.116485
H66   H     H_    0.297409 0.940652 0.069615 0.114416
H67   H     H_    0.203406 0.442402 0.929143 0.116487
H68   H     H_    0.797409 0.440652 0.069615 0.114386
H69   H     H_    0.713079 0.250642 0.092077 0.121751
H70   H     H_    0.286146 0.249958 0.909667 0.120788
H71   H     H_    0.213079 0.750642 0.092076 0.121775
H72   H     H_    0.786146 0.749958 0.909667 0.120789
H73   H     H_    0.803010 0.234951 0.082315 0.115905
H74   H     H_    0.196353 0.235924 0.919514 0.121252
H75   H     H_    0.303010 0.734951 0.082315 0.116090
H76   H     H_    0.696354 0.735924 0.919514 0.121246
H77   H     H_    0.780189 0.292563 0.961995 0.104364
H78   H     H_    0.219872 0.292586 0.040672 0.104560
H79   H     H_    0.280189 0.792563 0.961995 0.104359
H80   H     H_    0.719872 0.792586 0.040672 0.104574
H81   H     H_    0.695724 0.250540 0.971602 0.116487
H82   H     H_    0.303948 0.248159 0.030002 0.117181
H83   H     H_    0.195724 0.750540 0.971602 0.116495
H84   H     H_    0.803948 0.748159 0.030003 0.117181
H85   H     H_    0.644489 0.096035 0.045536 0.122960
H86   H     H_    0.354965 0.093926 0.954329 0.123303
H87   H     H_    0.144489 0.596035 0.045536 0.122960
H88   H     H_    0.854965 0.593926 0.954329 0.123302
H89   H     H_    0.673090 0.222789 0.570502 0.137469
H90   H     H_    0.322782 0.228520 0.435533 0.131423
H91   H     H_    0.173090 0.722788 0.570502 0.137473
H92   H     H_    0.822784 0.728522 0.435532 0.131436
H93   H     H_    0.651547 0.071163 0.923894 0.113818
H94   H     H_    0.348636 0.068651 0.075808 0.112638
H95   H     H_    0.151546 0.571163 0.923894 0.113820
H96   H     H_    0.848636 0.568651 0.075808 0.112636
H97   H     H_    0.049425 0.528124 0.051986 0.131718
H98   H     H_    0.950705 0.529509 0.948646 0.130756
H99   H     H_    0.549426 0.028124 0.051986 0.131723
H100  H     H_    0.450705 0.029509 0.948646 0.130755
H101  H     H_    0.962192 0.522493 0.067616 0.119837
H102  H     H_    0.037742 0.521279 0.933250 0.120039
H103  H     H_    0.462192 0.022493 0.067616 0.119834
H104  H     H_    0.537742 0.021279 0.933249 0.120039
H105  H     H_    0.615910 0.788228 0.041296 0.108070
H106  H     H_    0.384601 0.787771 0.958068 0.107348
H107  H     H_    0.115910 0.288227 0.041296 0.108058
H108  H     H_    0.884601 0.287770 0.958068 0.107350
H109  H     H_    0.598900 0.847996 0.920660 0.115667
H110  H     H_    0.401286 0.849025 0.079054 0.111554
H111  H     H_    0.098900 0.347996 0.920660 0.115662
H112  H     H_    0.901286 0.349025 0.079054 0.111493
H113  H     H_    0.939693 0.207340 0.084674 0.114691
H114  H     H_    0.061242 0.206689 0.914076 0.115370
H115  H     H_    0.439693 0.707340 0.084674 0.114803
H116  H     H_    0.561242 0.706689 0.914076 0.115343
H117  H     H_    0.948855 0.183428 0.963663 0.122371
H118  H     H_    0.052415 0.183381 0.035008 0.122628
H119  H     H_    0.448855 0.683428 0.963663 0.122366
H120  H     H_    0.552415 0.683381 0.035008 0.122630
H121  H     H_    0.648430 0.077244 0.575253 0.137367
H122  H     H_    0.339128 0.083463 0.430310 0.139387
H123  H     H_    0.148430 0.577244 0.575249 0.137368
H124  H     H_    0.839128 0.583466 0.430311 0.139385
H125  H     H_    0.685210 0.916668 0.504378 0.144193
H126  H     H_    0.306578 0.910224 0.499527 0.161647
H127  H     H_    0.185209 0.416664 0.504374 0.144208
H128  H     H_    0.806582 0.410229 0.499519 0.161592
H129  H     H_    0.745689 0.914576 0.607651 0.219693
H130  H     H_    0.254829 0.937808 0.391761 0.238713
H131  H     H_    0.245678 0.414577 0.607653 0.219707
H132  H     H_    0.754826 0.437811 0.391759 0.238713
H133  H     H_    0.846745 0.030468 0.435473 0.133250
H134  H     H_    0.146899 0.025456 0.566527 0.149903
H135  H     H_    0.346747 0.530455 0.435477 0.133190
H136  H     H_    0.646901 0.525453 0.566523 0.149893
H137  H     H_    0.807631 0.236179 0.524695 0.125877
H138  H     H_    0.185066 0.242648 0.502382 0.135452
H139  H     H_    0.307639 0.736172 0.524699 0.125911
H140  H     H_    0.685068 0.742653 0.502383 0.135431
O1    O     O_R   0.957210 0.449410 0.665480 -0.537304
O2    O     O_R   0.042790 0.449410 0.334520 -0.546241
O3    O     O_R   0.457210 0.949410 0.665480 -0.537335
O4    O     O_R   0.542790 0.949410 0.334520 -0.546150
O5    O     O_R   0.736260 0.212010 0.826560 -0.510887
O6    O     O_R   0.263740 0.212010 0.173440 -0.508946
O7    O     O_R   0.236260 0.712010 0.826560 -0.510888
O8    O     O_R   0.763740 0.712010 0.173440 -0.508908
O9    O     O_R   0.832520 0.095300 0.836000 -0.528220
O10   O     O_R   0.167480 0.095300 0.164000 -0.524019
O11   O     O_R   0.332520 0.595300 0.836000 -0.528229
O12   O     O_R   0.667480 0.595300 0.164000 -0.524012
O13   O     O_R   0.946380 0.253940 0.826940 -0.516340
O14   O     O_R   0.053620 0.253940 0.173060 -0.511479
O15   O     O_R   0.446380 0.753940 0.826940 -0.516333
O16   O     O_R   0.553620 0.753940 0.173060 -0.511562
O17   O     O_3   0.834560 0.334570 0.748840 -0.313655
O18   O     O_3   0.165440 0.334570 0.251160 -0.320406
O19   O     O_3   0.334560 0.834570 0.748840 -0.313681
O20   O     O_3   0.665440 0.834570 0.251160 -0.320285
O21   O     O_R   0.820730 0.541240 0.668250 -0.481388
O22   O     O_R   0.179270 0.541240 0.331750 -0.464146
O23   O     O_R   0.320730 0.041240 0.668250 -0.481390
O24   O     O_R   0.679270 0.041240 0.331750 -0.464112
O25   O     O_R   0.714240 0.455060 0.663710 -0.467892
O26   O     O_R   0.285760 0.455060 0.336290 -0.471039
O27   O     O_R   0.214240 0.955060 0.663710 -0.467839
O28   O     O_R   0.785760 0.955060 0.336290 -0.471200
O29   O     O_R   0.736780 0.204870 0.675910 -0.523782
O30   O     O_R   0.263220 0.204870 0.324090 -0.517396
O31   O     O_R   0.236780 0.704870 0.675910 -0.523786
O32   O     O_R   0.763220 0.704870 0.324090 -0.517369
O33   O     O_R   0.833070 0.087590 0.673490 -0.516902
O34   O     O_R   0.166930 0.087590 0.326510 -0.505906
O35   O     O_R   0.333070 0.587590 0.673490 -0.516916
O36   O     O_R   0.666930 0.587590 0.326510 -0.505892
O37   O     O_R   0.946890 0.246800 0.676300 -0.491401
O38   O     O_R   0.053110 0.246800 0.323700 -0.512564
O39   O     O_R   0.446890 0.746800 0.676300 -0.491314
O40   O     O_R   0.553110 0.746800 0.323700 -0.512837
O41   O     O_R   0.956650 0.457120 0.827980 -0.528637
O42   O     O_R   0.043350 0.457120 0.172020 -0.532719
O43   O     O_R   0.456650 0.957120 0.827980 -0.528634
O44   O     O_R   0.543350 0.957120 0.172020 -0.532716
O45   O     O_R   0.820220 0.548390 0.818890 -0.496505
O46   O     O_R   0.179780 0.548390 0.181110 -0.496731
O47   O     O_R   0.320220 0.048390 0.818890 -0.496513
O48   O     O_R   0.679780 0.048390 0.181110 -0.496701
O49   O     O_R   0.713680 0.462770 0.826210 -0.507940
O50   O     O_R   0.286320 0.462770 0.173790 -0.510842
O51   O     O_R   0.213680 0.962770 0.826210 -0.507893
O52   O     O_R   0.786320 0.962770 0.173790 -0.511068
S1    S     S_3+6 0.817975 0.200861 0.370252 -0.060725
O53   O     O_2   0.753668 0.232072 0.332903 -0.277277
O54   O     O_2   0.847219 0.309869 0.397649 -0.424422
O55   O     O_3   0.872438 0.141994 0.309400 -0.511075
H141  H     H_    0.882594 0.205884 0.275421 0.362425
S2    S     S_3+6 0.162621 0.182489 0.649356 -0.043363
O56   O     O_2   0.209819 0.163063 0.710253 -0.229198
O57   O     O_2   0.159445 0.311395 0.641446 -0.388845
O58   O     O_3   0.085540 0.136970 0.676368 -0.539300
H142  H     H_    0.077315 0.174876 0.723612 0.373831
S3    S     S_3+6 0.317985 0.700852 0.370258 -0.060577
O59   O     O_2   0.253692 0.732069 0.332890 -0.276568
O60   O     O_2   0.347215 0.809853 0.397684 -0.425037
O61   O     O_3   0.372459 0.641994 0.309412 -0.510742
H143  H     H_    0.383445 0.706421 0.276054 0.362120
S4    S     S_3+6 0.662612 0.682485 0.649353 -0.043398
O62   O     O_2   0.709785 0.663021 0.710266 -0.229310
O63   O     O_2   0.659461 0.811392 0.641450 -0.388688
O64   O     O_3   0.585514 0.637008 0.676333 -0.539473
H144  H     H_    0.577378 0.674598 0.723665 0.373889

loop_
_geom_bond_atom_site_label_1
_geom_bond_atom_site_label_2
_ccdc_geom_bond_type
C83   H105  S    
C5    H133  S    
C82   C94   S    
C119  H11   S    
C82   H117  S    
C119  H127  S    
C120  H12   S    
C45   O33   A    
C53   C69   S    
C104  O8    A    
C43   C63   S    
O58   H142  S    
C44   C64   S    
Cr6   O6    S    
C80   H100  S    
C18   H130  S    
C63   C98   S    
Cr2   O2    S    
C31   H40   S    
C28   C40   S    
C36   H36   S    
C30   C38   S    
C8    S4    S    
Cr9   O33   S    
C56   C72   S    
C21   H5    S    
C92   O4    A    
C18   C118  S    
C81   C86   S    
C83   C88   S    
C48   O32   A    
C74   H82   S    
C111  H47   S    
C41   C49   S    
C54   H86   S    
Cr1   O45   S    
C114  H122  S    
Cr2   O42   S    
S2    O56   D    
Cr3   O47   S    
Cr4   O48   S    
S4    O62   D    
C88   H109  S    
S3    O60   D    
C26   C38   S    
Cr10  O34   S    
C120  H128  S    
Cr11  O39   S    
C60   C76   S    
C24   H8    S    
Cr8   O52   S    
C30   H37   S    
C54   C70   S    
C48   O36   A    
C68   C72   S    
C23   H139  S    
C97   O45   A    
C13   C21   S    
C87   H115  S    
C113  H89   S    
C31   H25   S    
C64   C97   S    
C36   H29   S    
C15   C115  S    
C20   C120  S    
C116  H124  S    
C1    O25   A    
C5    S1    S    
C59   C63   S    
C70   H94   S    
Cr4   O20   S    
C57   C61   S    
C118  H126  S    
C82   C85   S    
Cr6   O50   S    
C77   H97   S    
Cr11  O19   S    
C60   C64   S    
Cr9   O13   S    
C20   H132  S    
C13   C45   S    
C102  O6    A    
C78   C94   S    
C43   H51   S    
C6    S2    S    
C95   C108  S    
C115  H91   S    
C62   C99   S    
C107  O43   A    
C5    C21   S    
C58   H70   S    
C110  H46   S    
C31   C36   S    
C47   O35   A    
C4    O28   A    
Cr5   O17   S    
C90   O38   A    
C54   H62   S    
Cr1   O21   S    
C80   H104  S    
Cr2   O18   S    
S4    O64   S    
C65   C101  S    
Cr10  O14   S    
Cr3   O23   S    
Cr11  O11   S    
C67   C103  S    
C66   C70   S    
C37   C90   S    
C24   H140  S    
C73   H77   S    
C66   C74   S    
C81   C93   S    
C25   H17   S    
C57   C73   S    
S1    O54   D    
C85   C93   S    
C60   H72   S    
C56   H88   S    
C55   C63   S    
C6    H134  S    
C56   C64   S    
Cr7   O51   S    
C42   C62   S    
C8    C12   S    
C112  H48   S    
Cr5   O29   S    
C76   H80   S    
C70   H66   S    
Cr6   O18   S    
C84   H119  S    
C85   H113  S    
C1    C12   S    
C43   H43   S    
C112  H4    S    
C50   H58   S    
C2    C11   S    
C77   H101  S    
Cr3   O3    S    
C7    C11   S    
C53   H85   S    
C42   H42   S    
Cr9   O37   S    
C55   H87   S    
C25   C26   S    
C85   H112  S    
C105  O13   A    
S3    O59   D    
C107  O15   A    
C5    C9    S    
C108  O16   A    
C59   H71   S    
C93   C106  S    
C88   H116  S    
C78   H102  S    
C90   O2    A    
C51   C67   S    
C7    H135  S    
C42   C50   S    
Cr2   O46   S    
Cr3   O43   S    
C110  H2    S    
C61   C100  S    
C67   C75   S    
C91   O3    A    
C50   H54   S    
C112  C116  S    
C51   H59   S    
C58   C74   S    
Cr10  O38   S    
C59   H75   S    
Cr11  O35   S    
C33   H33   S    
C44   H44   S    
O55   H141  S    
C68   C76   S    
C13   C17   S    
C98   O46   A    
C14   C22   S    
C79   H103  S    
C7    C23   S    
C8    C24   S    
C40   C91   S    
C101  O9    A    
Cr7   O27   S    
C99   O51   A    
Cr8   O20   S    
C49   H53   S    
C57   H69   S    
C52   H56   S    
Cr7   O7    S    
C4    C9    S    
Cr4   O24   S    
Cr8   O8    S    
C58   C62   S    
C89   O1    A    
C88   C96   S    
C94   C105  S    
C59   C75   S    
C83   H120  S    
C53   H61   S    
C79   H99   S    
C12   C112  S    
C81   H118  S    
C41   H49   S    
C21   H137  S    
C14   C46   S    
C77   C78   S    
C42   H50   S    
C15   C19   S    
C75   H79   S    
S2    O57   D    
C101  O5    A    
S4    O63   D    
C58   H74   S    
C6    C22   S    
C2    O22   A    
C41   H41   S    
C56   H64   S    
C86   H111  S    
S2    O58   S    
Cr8   O28   S    
Cr2   O22   S    
C15   C47   S    
Cr3   O19   S    
C46   O34   A    
C17   C117  S    
C19   C119  S    
C27   H23   S    
C73   H81   S    
Cr12  O36   S    
C16   C116  S    
C9    C109  S    
C113  H121  S    
C25   H21   S    
C26   H18   S    
C105  O41   A    
C60   H76   S    
C87   H110  S    
C54   C62   S    
C18   H14   S    
C109  H1    S    
C29   C34   S    
C108  O44   A    
C33   C37   S    
C41   C61   S    
C81   H107  S    
C116  H92   S    
C117  H9    S    
C79   C95   S    
Cr5   O25   S    
C76   H84   S    
Cr6   O30   S    
C114  H90   S    
Cr12  O12   S    
C32   H39   S    
C91   O39   A    
C100  O52   A    
C39   C92   S    
C27   H19   S    
C106  O14   A    
C14   C18   S    
C84   H106  S    
C68   C104  S    
C69   H93   S    
C17   H13   S    
C6    C10   S    
S3    O61   S    
C71   H67   S    
C1    O21   A    
C78   H98   S    
C22   H6    S    
Cr5   O49   S    
C19   H15   S    
C14   C114  S    
C104  O12   A    
C43   C51   S    
Cr5   O5    S    
C65   C69   S    
C77   C93   S    
C10   C110  S    
C67   C71   S    
C17   H129  S    
S1    O53   D    
C111  H3    S    
Cr1   O1    S    
C51   H55   S    
C3    O27   A    
C19   H131  S    
C109  H45   S    
C72   H96   S    
C29   C37   S    
C11   C111  S    
C34   H34   S    
C55   H63   S    
O64   H144  S    
C9    C117  S    
C102  O10   A    
C35   C39   S    
C84   C87   S    
C103  O7    A    
C8    H136  S    
C11   C119  S    
C16   C48   S    
C29   H27   S    
C30   H28   S    
C38   C89   S    
C49   C65   S    
C74   H78   S    
C23   H7    S    
Cr7   O31   S    
Cr8   O32   S    
C49   H57   S    
Cr1   O41   S    
C57   H73   S    
C65   C73   S    
C7    S3    S    
C52   H60   S    
Cr4   O44   S    
C86   C94   S    
C25   C37   S    
C12   C120  S    
C27   C39   S    
C82   H108  S    
C35   H35   S    
Cr12  O20   S    
C55   C71   S    
C29   H38   S    
C80   C96   S    
C44   H52   S    
C52   C68   S    
C16   C20   S    
C22   H138  S    
C15   C23   S    
Cr9   O17   S    
C86   H114  S    
C69   H65   S    
C53   C61   S    
C2    O26   A    
C103  O11   A    
C32   H26   S    
C35   H30   S    
C32   C35   S    
C36   C40   S    
C33   H32   S    
C34   H31   S    
C97   O49   A    
C66   C102  S    
Cr7   O19   S    
C87   C95   S    
S1    O55   S    
C99   O47   A    
C46   O30   A    
C10   C118  S    
C72   H68   S    
C117  H125  S    
C83   C95   S    
Cr10  O18   S    
C20   H16   S    
Cr12  O40   S    
Cr9   O9    S    
C50   C66   S    
C100  O48   A    
C28   H20   S    
C45   O29   A    
C26   H22   S    
C84   C96   S    
C106  O42   A    
C92   O40   A    
C110  C114  S    
C30   C33   S    
C34   C38   S    
C71   H95   S    
C96   C107  S    
C47   O31   A    
C4    O24   A    
C118  H10   S    
C89   O37   A    
Cr6   O26   S    
C109  C113  S    
Cr1   O17   S    
Cr10  O10   S    
C3    C10   S    
Cr11  O15   S    
Cr4   O4    S    
C44   C52   S    
Cr12  O16   S    
C75   H83   S    
C31   C39   S    
C32   C40   S    
C79   C80   S    
C115  H123  S    
C98   O50   A    
C16   C24   S    
O61   H143  S    
C27   C28   S    
C28   H24   S    
C111  C115  S    
C13   C113  S    
C3    O23   A    
