data_str_m4_o4_o4_f0_acs.sym.81
_audit_creation_date              2012-12-11T15:52:27-0500
_audit_creation_method            fapswitch 2.2
_symmetry_space_group_name_H-M    P1
_symmetry_Int_Tables_number       1
_space_group_crystal_system       triclinic
_cell_length_a                    10.983792
_cell_length_b                    10.972035
_cell_length_c                    18.812428
_cell_angle_alpha                 89.925168
_cell_angle_beta                  90.01655
_cell_angle_gamma                 120.001861
_cell_volume                      1963.38927146

loop_
_atom_site_label
_atom_site_type_symbol
_atom_type_description
_atom_site_fract_x
_atom_site_fract_y
_atom_site_fract_z
_atom_type_partial_charge
C1    C     C_R   0.519775 0.458525 0.147491 0.535820
C2    C     C_3   0.962537 0.715504 0.459217 -0.268149
C3    C     C_3   0.753508 0.044274 0.460328 -0.268951
C4    C     C_3   0.283262 0.246974 0.467919 -0.265784
C5    C     C_R   0.519808 0.455813 0.354728 0.545300
C6    C     C_R   0.541528 0.058416 0.352801 0.548102
C7    C     C_R   0.940958 0.482676 0.353023 0.546843
C8    C     C_R   0.458173 0.519097 0.646478 0.553332
C9    C     C_R   0.066584 0.545327 0.644438 0.546148
C10   C     C_R   0.477183 0.930279 0.643652 0.548033
C11   C     C_R   0.485556 0.955591 0.931283 0.018418
C12   C     C_R   0.541632 0.061382 0.147480 0.534556
C13   C     C_R   0.044667 0.529970 0.931331 0.018788
C14   C     C_R   0.470076 0.514244 0.931256 0.018970
C15   C     C_R   0.008165 0.502739 0.079109 0.010940
C16   C     C_R   0.494649 0.992040 0.079075 0.011057
C17   C     C_R   0.497527 0.505681 0.079059 0.010771
C18   C     C_R   0.399111 0.998002 0.963722 -0.000974
C19   C     C_R   0.002478 0.401089 0.963915 -0.001150
C20   C     C_R   0.598977 0.600764 0.963621 -0.000704
C21   C     C_R   0.982375 0.387122 0.036662 0.005904
C22   C     C_R   0.405165 0.018076 0.036464 0.005963
C23   C     C_R   0.938731 0.480335 0.147494 0.535319
C24   C     C_R   0.613048 0.594969 0.036383 0.005609
C25   C     C_R   0.562141 0.925388 0.048253 -0.160497
C26   C     C_R   0.074689 0.636941 0.048143 -0.160761
C27   C     C_R   0.363397 0.438238 0.048262 -0.160623
C28   C     C_R   0.091309 0.650234 0.974585 -0.146784
C29   C     C_R   0.558909 0.908805 0.974702 -0.146904
C30   C     C_R   0.349999 0.441179 0.974696 -0.146910
C31   C     C_3   0.388120 0.125608 0.948850 -0.282322
C32   C     C_3   0.875186 0.262368 0.949198 -0.282522
C33   C     C_3   0.737297 0.611445 0.948869 -0.282518
C34   C     C_R   0.451755 0.523024 0.855477 0.543092
C35   C     C_3   0.851823 0.247071 0.028822 -0.242357
C36   C     C_3   0.396049 0.148885 0.028462 -0.242539
C37   C     C_3   0.752705 0.603791 0.028513 -0.242502
C38   C     C_R   0.484023 0.957055 0.567988 0.019674
C39   C     C_R   0.034735 0.523198 0.569264 0.019644
C40   C     C_R   0.503570 0.498470 0.577631 0.014404
C41   C     C_R   0.013469 0.512883 0.420770 0.018103
C42   C     C_R   0.498712 0.983259 0.419944 0.017484
C43   C     C_R   0.507779 0.479176 0.429318 0.022491
C44   C     C_R   0.588354 0.948976 0.530033 0.035129
C45   C     C_R   0.071393 0.548187 0.855515 0.543948
C46   C     C_R   0.048219 0.637506 0.530564 0.042137
C47   C     C_R   0.432514 0.367517 0.544347 0.017220
C48   C     C_R   0.039152 0.634034 0.458032 0.027688
C49   C     C_R   0.595863 0.960766 0.457622 0.022152
C50   C     C_R   0.433806 0.359534 0.471707 0.048134
C51   C     C_R   0.377105 0.961614 0.455432 -0.154780
C52   C     C_R   0.026722 0.408478 0.457399 -0.170736
C53   C     C_R   0.596368 0.607953 0.462489 -0.174883
C54   C     C_R   0.034004 0.411937 0.531862 -0.164951
C55   C     C_R   0.370458 0.950230 0.529829 -0.152498
C56   C     C_R   0.476838 0.928563 0.855493 0.544336
C57   C     C_R   0.595245 0.617319 0.536597 -0.165120
C58   C     C_3   0.743538 0.030095 0.540160 -0.278972
C59   C     C_3   0.971932 0.716950 0.539296 -0.278643
C60   C     C_3   0.282297 0.251276 0.548145 -0.270996
Cr1   Cr    Cr6+3 0.769160 0.541570 0.250690 1.004243
Cr2   Cr    Cr6+3 0.458430 0.227590 0.250690 1.006798
Cr3   Cr    Cr6+3 0.772410 0.230840 0.250690 1.003305
Cr4   Cr    Cr6+3 0.541570 0.769160 0.749310 1.009080
Cr5   Cr    Cr6+3 0.227590 0.458430 0.749310 1.007487
Cr6   Cr    Cr6+3 0.230840 0.772410 0.749310 1.009993
H1    H     H_    0.284370 0.098713 0.925922 0.141994
H2    H     H_    0.032941 0.325762 0.560083 0.117964
H3    H     H_    0.279953 0.940730 0.557356 0.125918
H4    H     H_    0.656072 0.719636 0.560878 0.139611
H5    H     H_    0.778911 0.131506 0.568197 0.138471
H6    H     H_    0.868463 0.653350 0.565914 0.142012
H7    H     H_    0.271818 0.155013 0.573449 0.126540
H8    H     H_    0.024982 0.821693 0.434970 0.122607
H9    H     H_    0.803259 0.988279 0.435200 0.127424
H10   H     H_    0.216367 0.284308 0.442711 0.134625
H11   H     H_    0.628460 0.899089 0.079717 0.134576
H12   H     H_    0.902267 0.185515 0.926388 0.141884
H13   H     H_    0.100802 0.729614 0.079491 0.134389
H14   H     H_    0.270806 0.372078 0.079782 0.134532
H15   H     H_    0.135771 0.754216 0.951490 0.148264
H16   H     H_    0.618225 0.864181 0.951740 0.148263
H17   H     H_    0.246069 0.381877 0.951749 0.148238
H18   H     H_    0.480851 0.208589 0.919737 0.130781
H19   H     H_    0.792247 0.272032 0.920049 0.130891
H20   H     H_    0.727234 0.518424 0.919975 0.130509
H21   H     H_    0.863938 0.160444 0.051914 0.147674
H22   H     H_    0.297394 0.136835 0.051425 0.147688
H23   H     H_    0.814279 0.715165 0.925768 0.142037
H24   H     H_    0.839470 0.702573 0.051328 0.147697
H25   H     H_    0.786721 0.965110 0.561523 0.133558
H26   H     H_    0.038559 0.823942 0.561558 0.131538
H27   H     H_    0.208839 0.283939 0.568615 0.162566
H28   H     H_    0.852884 0.653459 0.440201 0.175112
H29   H     H_    0.794427 0.154249 0.442990 0.171405
H30   H     H_    0.268687 0.147121 0.446377 0.139211
H31   H     H_    0.755861 0.249345 0.045394 0.146294
H32   H     H_    0.494307 0.244850 0.045075 0.145946
H33   H     H_    0.750151 0.505406 0.045360 0.145910
H34   H     H_    0.293402 0.963884 0.426483 0.116759
H35   H     H_    0.018456 0.318742 0.429359 0.114916
H36   H     H_    0.662636 0.701175 0.431359 0.121855
O1    O     O_R   0.911480 0.572650 0.170990 -0.529279
O2    O     O_R   0.528970 0.640340 0.824320 -0.501697
O3    O     O_R   0.111370 0.471030 0.824320 -0.500831
O4    O     O_R   0.359660 0.888630 0.824320 -0.500753
O5    O     O_R   0.909980 0.572450 0.331530 -0.524537
O6    O     O_R   0.427550 0.337530 0.331530 -0.518037
O7    O     O_R   0.662470 0.090020 0.331530 -0.524795
O8    O     O_R   0.572450 0.909980 0.668470 -0.519242
O9    O     O_R   0.337530 0.427550 0.668470 -0.524082
O10   O     O_R   0.090020 0.662470 0.668470 -0.518973
O11   O     O_R   0.638950 0.528780 0.324500 -0.508690
O12   O     O_R   0.427350 0.338830 0.170990 -0.529257
O13   O     O_R   0.471220 0.110170 0.324500 -0.503558
O14   O     O_R   0.889830 0.361050 0.324500 -0.508356
O15   O     O_R   0.528780 0.638950 0.675500 -0.508636
O16   O     O_R   0.110170 0.471220 0.675500 -0.507014
O17   O     O_R   0.361050 0.889830 0.675500 -0.506957
O18   O     O_3   0.666667 0.333333 0.250560 -0.245938
O19   O     O_3   0.333333 0.666667 0.749440 -0.252289
O20   O     O_R   0.661170 0.088520 0.170990 -0.529447
O21   O     O_R   0.572650 0.911480 0.829010 -0.528018
O22   O     O_R   0.338830 0.427350 0.829010 -0.528805
O23   O     O_R   0.088520 0.661170 0.829010 -0.528662
O24   O     O_R   0.640340 0.528970 0.175680 -0.500683
O25   O     O_R   0.471030 0.111370 0.175680 -0.501895
O26   O     O_R   0.888630 0.359660 0.175680 -0.501116

loop_
_geom_bond_atom_site_label_1
_geom_bond_atom_site_label_2
_ccdc_geom_bond_type
C44   C49   A    
C40   C47   A    
C11   C18   A    
C16   C25   A    
C46   C59   S    
C3    C49   S    
C12   O25   A    
C36   H22   S    
C31   H1    S    
C37   H24   S    
C25   H11   S    
Cr1   O1    S    
Cr6   O4    S    
Cr2   O12   S    
Cr2   O25   S    
C58   H5    S    
C39   C54   A    
Cr2   O6    S    
Cr4   O19   S    
C60   H7    S    
C9    C39   S    
Cr5   O22   S    
C30   H17   S    
Cr5   O9    S    
C10   O17   A    
C47   C60   S    
C4    H30   S    
C35   H21   S    
C43   C53   A    
C23   O1    A    
C38   C55   A    
C20   C24   A    
C44   C58   S    
C16   C22   A    
Cr5   O16   S    
C13   C28   A    
Cr1   O24   S    
Cr5   O19   S    
C57   H4    S    
C3    H9    S    
C58   H25   S    
C41   C52   A    
Cr2   O18   S    
Cr3   O26   S    
C2    H8    S    
C42   C51   A    
C5    O11   A    
C60   H27   S    
C52   C54   A    
C9    O10   A    
C15   C23   S    
C5    C43   S    
C27   C30   A    
C9    O16   A    
C14   C30   A    
C12   C16   S    
C19   C32   S    
Cr5   O3    S    
C45   O3    A    
C8    O15   A    
C47   C50   A    
C25   C29   A    
C46   C48   A    
C52   H35   S    
C17   C24   A    
C13   C19   A    
C17   C27   A    
C56   O21   A    
C14   C20   A    
C2    H28   S    
C1    O24   A    
C27   H14   S    
C8    O9    A    
C45   O23   A    
C53   C57   A    
C2    C59   S    
C15   C26   A    
C2    C48   S    
C33   C37   S    
Cr4   O15   S    
C4    C50   S    
C7    O14   A    
Cr3   O7    S    
C33   H20   S    
C32   C35   S    
C38   C44   A    
C33   H23   S    
Cr4   O8    S    
C15   C21   A    
C53   H36   S    
C54   H2    S    
C4    C60   S    
C24   C37   S    
Cr6   O19   S    
C56   O4    A    
C55   H3    S    
C39   C46   A    
C20   C33   S    
Cr6   O17   S    
Cr1   O11   S    
C6    O7    A    
C7    O5    A    
C1    O12   A    
Cr3   O14   S    
C37   H33   S    
Cr3   O20   S    
C51   H34   S    
Cr4   O2    S    
C34   O22   A    
C40   C57   A    
C19   C21   A    
C28   H15   S    
C18   C22   A    
C1    C17   S    
C14   C34   S    
C3    H29   S    
C43   C50   A    
C21   C35   S    
Cr4   O21   S    
C22   C36   S    
C59   H6    S    
C26   C28   A    
C26   H13   S    
Cr6   O23   S    
C10   C38   S    
Cr2   O13   S    
C13   C45   S    
Cr3   O18   S    
C32   H19   S    
C41   C48   A    
C10   O8    A    
C51   C55   A    
C59   H26   S    
C7    C41   S    
Cr1   O5    S    
C34   O2    A    
C6    O13   A    
C4    H10   S    
C31   H18   S    
C42   C49   A    
C32   H12   S    
C3    C58   S    
C29   H16   S    
C12   O20   A    
C11   C29   A    
C6    C42   S    
C31   C36   S    
C36   H32   S    
C18   C31   S    
C8    C40   S    
Cr6   O10   S    
C35   H31   S    
C11   C56   S    
C23   O26   A    
Cr1   O18   S    
C5    O6    A    
