data_str_m9_o11_o18_f0_sra.sym.149
_audit_creation_date              2012-12-11T14:21:06-0500
_audit_creation_method            fapswitch 2.2
_symmetry_space_group_name_H-M    P1
_symmetry_Int_Tables_number       1
_space_group_crystal_system       triclinic
_cell_length_a                    22.01458
_cell_length_b                    7.198993
_cell_length_c                    15.054622
_cell_angle_alpha                 90.000151
_cell_angle_beta                  107.318659
_cell_angle_gamma                 89.999919
_cell_volume                      2277.73142607

loop_
_atom_site_label
_atom_site_type_symbol
_atom_type_description
_atom_site_fract_x
_atom_site_fract_y
_atom_site_fract_z
_atom_type_partial_charge
O1    O     O_R   0.584770 0.505770 0.002090 -0.546548
O2    O     O_R   0.415230 0.005770 0.997910 -0.546553
O3    O     O_R   0.467060 0.173340 0.861950 -0.548952
O4    O     O_R   0.532940 0.673340 0.138050 -0.548950
C1    C     C_R   0.454485 0.344194 0.826161 0.766516
C2    C     C_R   0.545515 0.844194 0.173839 0.766524
O5    O     O_R   0.587510 0.175890 0.993210 -0.534201
O6    O     O_R   0.412490 0.675890 0.006790 -0.534201
O7    O     O_R   0.536540 0.008150 0.130100 -0.526560
O8    O     O_R   0.463460 0.508150 0.869900 -0.526555
C3    C     C_R   0.612807 0.345017 0.997918 0.733610
C4    C     C_R   0.387193 0.845017 0.002082 0.733612
O9    O     O_3   0.483140 0.340040 0.044760 -0.382908
O10   O     O_3   0.516860 0.840040 0.955240 -0.382905
V1    V     V_3+5 0.503130 0.064190 0.991700 1.460091
V2    V     V_3+5 0.496870 0.564190 0.008300 1.460099
C5    C     C_2   0.211733 0.731312 0.986878 0.321032
C6    C     C_2   0.788267 0.231313 0.013121 0.321038
C7    C     C_2   0.182623 0.885294 0.008921 0.153972
C8    C     C_2   0.817377 0.385294 0.991078 0.153954
C9    C     C_2   0.282521 0.718500 0.004349 -0.219874
C10   C     C_2   0.717479 0.218500 0.995651 -0.219865
C11   C     C_2   0.319387 0.862102 0.996089 -0.329662
C12   C     C_2   0.680613 0.362102 0.003910 -0.329675
H1    H     H_    0.303692 0.581189 0.018063 0.162268
H2    H     H_    0.696309 0.081187 0.981940 0.162286
H3    H     H_    0.298955 0.998571 0.977878 0.198762
H4    H     H_    0.701044 0.498572 0.022120 0.198770
C13   C     C_R   0.926644 0.887294 0.725444 -0.028293
C14   C     C_R   0.073356 0.387298 0.274556 -0.028290
C15   C     C_R   0.574633 0.850791 0.274896 -0.116967
C16   C     C_R   0.425367 0.350789 0.725103 -0.116968
C17   C     C_R   0.937656 0.856233 0.571804 -0.140318
C18   C     C_R   0.062344 0.356282 0.428198 -0.140318
C19   C     C_R   0.965220 0.869034 0.667485 -0.179686
C20   C     C_R   0.034780 0.369067 0.332516 -0.179686
C21   C     C_R   0.860508 0.898270 0.687953 -0.203755
C22   C     C_R   0.139492 0.398265 0.312046 -0.203755
C23   C     C_R   0.831085 0.885369 0.590782 0.075508
C24   C     C_R   0.168915 0.385383 0.409218 0.075509
C25   C     C_R   0.871195 0.860656 0.533375 0.077516
C26   C     C_R   0.128805 0.360696 0.466626 0.077513
C27   C     C_R   0.763523 0.888600 0.549208 0.023318
C28   C     C_R   0.236477 0.388609 0.450792 0.023321
C29   C     C_R   0.737266 0.864546 0.450881 -0.042669
C30   C     C_R   0.262734 0.364570 0.549120 -0.042675
C31   C     C_R   0.779316 0.815140 0.399049 0.392705
C32   C     C_R   0.220684 0.315188 0.600954 0.392703
C33   C     C_R   0.844942 0.827486 0.438876 -0.310760
C34   C     C_R   0.155057 0.327542 0.561127 -0.310748
C35   C     C_R   0.721215 0.906856 0.603071 -0.203286
C36   C     C_R   0.278786 0.406845 0.396928 -0.203287
C37   C     C_R   0.656206 0.881562 0.564162 -0.141350
C38   C     C_R   0.343794 0.381540 0.435837 -0.141347
C39   C     C_R   0.629755 0.858455 0.468297 0.060341
C40   C     C_R   0.370244 0.358441 0.531703 0.060343
C41   C     C_R   0.669503 0.872881 0.409636 -0.080790
C42   C     C_R   0.330497 0.372892 0.590364 -0.080796
C43   C     C_R   0.563959 0.824295 0.430283 0.383578
C44   C     C_R   0.436039 0.324263 0.569716 0.383575
C45   C     C_R   0.537753 0.810425 0.333400 -0.336361
C46   C     C_R   0.462245 0.310399 0.666600 -0.336360
C47   C     C_R   0.639169 0.896545 0.312380 0.351182
C48   C     C_R   0.360832 0.396563 0.687619 0.351177
H5    H     H_    0.875700 0.796097 0.396494 0.135662
H6    H     H_    0.124300 0.296170 0.603510 0.135667
H7    H     H_    0.487798 0.777227 0.303297 0.125664
H8    H     H_    0.512199 0.277186 0.696703 0.125667
H9    H     H_    0.626401 0.883850 0.609908 0.164633
H10   H     H_    0.373598 0.383811 0.390091 0.164634
H11   H     H_    0.968293 0.837668 0.527887 0.114058
H12   H     H_    0.031706 0.337738 0.472116 0.114057
H13   H     H_    0.016507 0.861949 0.696466 0.098729
H14   H     H_    0.983493 0.361992 0.303536 0.098724
H15   H     H_    0.833783 0.912767 0.736979 0.096859
H16   H     H_    0.166218 0.412741 0.263020 0.096858
H17   H     H_    0.736906 0.933376 0.676663 0.120145
H18   H     H_    0.263094 0.433358 0.323335 0.120146
O11   O     O_R   0.036450 0.233070 0.130130 -0.541651
O12   O     O_R   0.963550 0.733070 0.869870 -0.541650
O13   O     O_R   0.912470 0.560570 0.006790 -0.531062
O14   O     O_R   0.087530 0.060570 0.993210 -0.531070
C49   C     C_R   0.886774 0.391540 0.001323 0.663181
C50   C     C_R   0.113226 0.891540 0.998677 0.663181
O15   O     O_R   0.032920 0.562940 0.138050 -0.545844
O16   O     O_R   0.967080 0.062940 0.861950 -0.545843
O17   O     O_R   0.084790 0.730500 0.002090 -0.517437
O18   O     O_R   0.915210 0.230500 0.997910 -0.517440
C51   C     C_R   0.044990 0.394602 0.174058 0.681743
C52   C     C_R   0.955010 0.894601 0.825942 0.681747
O19   O     O_3   0.016820 0.396170 0.955260 -0.372821
O20   O     O_3   0.983180 0.896170 0.044740 -0.372827
V3    V     V_3+5 0.996880 0.672090 0.008300 1.468698
V4    V     V_3+5 0.003120 0.172090 0.991700 1.468693
O21   O     O_3   0.175803 0.571777 0.957563 -0.549421
C53   C     C_3   0.182481 0.511122 0.871682 0.125359
H19   H     H_    0.230955 0.454395 0.880669 0.162946
H20   H     H_    0.172718 0.626198 0.819766 0.094284
C54   C     C_3   0.134880 0.356509 0.833323 -0.643713
H21   H     H_    0.085616 0.408407 0.821656 0.211759
H22   H     H_    0.140032 0.306210 0.766380 0.174428
H23   H     H_    0.143787 0.238621 0.882931 0.240923
O22   O     O_3   0.824195 0.071776 0.042435 -0.549409
C55   C     C_3   0.817535 0.011168 0.128332 0.125301
H24   H     H_    0.769056 0.954508 0.119378 0.162946
H25   H     H_    0.827328 0.126254 0.180244 0.094256
C56   C     C_3   0.865118 0.856503 0.166667 -0.643625
H26   H     H_    0.914387 0.908335 0.178309 0.211767
H27   H     H_    0.859978 0.806239 0.233628 0.174384
H28   H     H_    0.856181 0.738606 0.117067 0.240918
O23   O     O_3   0.757288 0.740778 0.310822 -0.539010
C57   C     C_3   0.758309 0.545338 0.318285 0.105719
H29   H     H_    0.724591 0.497040 0.355869 0.122792
H30   H     H_    0.807033 0.492876 0.354611 0.108416
C58   C     C_3   0.737995 0.463577 0.221259 -0.700982
H31   H     H_    0.770292 0.513368 0.181987 0.217272
H32   H     H_    0.740355 0.309946 0.224763 0.171131
H33   H     H_    0.688433 0.506959 0.184786 0.233034
O24   O     O_3   0.242709 0.240833 0.689182 -0.539016
C59   C     C_3   0.241696 0.045393 0.681721 0.105712
H34   H     H_    0.275418 0.997108 0.644140 0.122794
H35   H     H_    0.192975 0.992916 0.645392 0.108422
C60   C     C_3   0.262012 0.963636 0.778747 -0.701000
H36   H     H_    0.229709 0.013406 0.818014 0.217273
H37   H     H_    0.259662 0.810004 0.775244 0.171147
H38   H     H_    0.311570 0.007044 0.815224 0.233036
O25   O     O_3   0.526645 0.800457 0.488840 -0.640939
H39   H     H_    0.482046 0.777128 0.450987 0.303718
O26   O     O_3   0.473352 0.300400 0.511160 -0.640938
H40   H     H_    0.517950 0.277059 0.549014 0.303720
O27   O     O_3   0.217259 0.044303 0.042190 -0.563134
C61   C     C_3   0.236918 0.039676 0.140346 0.116473
H41   H     H_    0.258435 0.903102 0.167864 0.108268
H42   H     H_    0.195886 0.068538 0.167180 0.117522
C62   C     C_3   0.287297 0.188186 0.176518 -0.707148
H43   H     H_    0.266367 0.328323 0.157332 0.221250
H44   H     H_    0.306383 0.177379 0.253285 0.175845
H45   H     H_    0.327145 0.168272 0.146342 0.223333
O28   O     O_3   0.782740 0.544303 0.957808 -0.563132
C63   C     C_3   0.763082 0.539673 0.859652 0.116481
H46   H     H_    0.741563 0.403102 0.832134 0.108266
H47   H     H_    0.804115 0.568528 0.832819 0.117519
C64   C     C_3   0.712706 0.688190 0.823479 -0.707138
H48   H     H_    0.733638 0.828325 0.842665 0.221253
H49   H     H_    0.693621 0.677383 0.746712 0.175845
H50   H     H_    0.672857 0.668283 0.853654 0.223333
O29   O     O_3   0.668985 0.978803 0.253751 -0.627220
H51   H     H_    0.703502 0.059019 0.291886 0.289073
O30   O     O_3   0.331019 0.478841 0.746247 -0.627220
H52   H     H_    0.296505 0.559062 0.708110 0.289075

loop_
_geom_bond_atom_site_label_1
_geom_bond_atom_site_label_2
_ccdc_geom_bond_type
C62   H45   S    
O14   V4    S    
C39   C43   A    
C64   H50   S    
C15   C45   A    
O21   C53   S    
O1    C3    A    
C50   O17   A    
O2    C4    A    
C2    O7    A    
C57   H30   S    
C60   H36   S    
C23   C25   A    
C22   H16   S    
O5    C3    A    
C4    C11   S    
C29   C41   A    
C33   H5    S    
C8    O28   S    
C63   H47   S    
C60   H37   S    
C43   O25   S    
C64   H48   S    
C53   C54   S    
C3    C12   S    
C14   C22   A    
C44   C46   A    
C29   C31   A    
C25   C33   A    
C57   H29   S    
O16   V4    S    
C17   C19   A    
O15   V3    S    
O29   H51   S    
C59   H35   S    
C61   H41   S    
C58   H32   S    
C18   C26   A    
C56   H26   S    
C63   C64   S    
C5    O21   S    
C11   H3    S    
C18   C20   A    
C59   C60   S    
C1    C16   S    
C28   C36   A    
C32   C34   A    
C49   O18   A    
C21   H15   S    
C37   H9    S    
O6    V2    S    
C62   H44   S    
C30   C42   A    
C42   C48   A    
C56   H27   S    
C14   C51   S    
C36   H18   S    
C47   O29   S    
C55   H24   S    
O13   C49   A    
C36   C38   A    
C41   C47   A    
C32   O24   S    
O18   V4    S    
C37   C39   A    
C7    O27   S    
C38   C40   A    
C43   C45   A    
C15   C47   A    
C62   H43   S    
C63   H46   S    
C16   C48   A    
O11   V4    S    
O4    C2    A    
O16   C52   A    
O15   C51   A    
C60   H38   S    
C23   C27   A    
O5    V1    S    
C28   C30   A    
C5    C9    S    
C40   C44   A    
C53   H20   S    
C35   C37   A    
O4    V2    S    
C35   H17   S    
O13   V3    S    
C45   H7    S    
C54   H21   S    
C38   H10   S    
O6    C4    A    
C58   H33   S    
C53   H19   S    
O1    V2    S    
O24   C59   S    
O2    V1    S    
C34   H6    S    
C20   H14   S    
C26   C34   A    
C54   H22   S    
O14   C50   A    
C39   C41   A    
C56   H28   S    
C10   C12   D    
C8    C49   S    
C7    C50   S    
C18   H12   S    
O3    V1    S    
C59   H34   S    
O26   H40   S    
C64   H49   S    
C9    H1    S    
C19   H13   S    
O23   C57   S    
C6    C10   S    
C13   C52   S    
C12   H4    S    
O3    C1    A    
C44   O26   S    
O28   C63   S    
C55   H25   S    
C46   H8    S    
C31   C33   A    
C13   C19   A    
C14   C20   A    
C48   O30   S    
C17   C25   A    
C9    C11   D    
O7    V1    S    
C16   C46   A    
C1    O8    A    
C21   C23   A    
O8    V2    S    
O30   H52   S    
O19   V4    S    
C22   C24   A    
C27   C35   A    
C58   H31   S    
C61   C62   S    
C31   O23   S    
O17   V3    S    
C24   C26   A    
O20   V3    S    
C5    C7    D    
C40   C42   A    
C2    C15   S    
C6    C8    D    
C6    O22   S    
C57   C58   S    
O12   C52   A    
O27   C61   S    
O11   C51   A    
C17   H11   S    
C30   C32   A    
C24   C28   A    
C54   H23   S    
C61   H42   S    
C10   H2    S    
O9    V2    S    
C13   C21   A    
O22   C55   S    
O10   V1    S    
O12   V3    S    
C27   C29   A    
C55   C56   S    
O25   H39   S    
