data_str_m9_o16_o24_f0_sra.sym.15
_audit_creation_date              2012-12-11T15:13:41-0500
_audit_creation_method            fapswitch 2.2
_symmetry_space_group_name_H-M    P1
_symmetry_Int_Tables_number       1
_space_group_crystal_system       triclinic
_cell_length_a                    6.951447
_cell_length_b                    13.520959
_cell_length_c                    20.140593
_cell_angle_alpha                 104.123826
_cell_angle_beta                  90.261345
_cell_angle_gamma                 90.283584
_cell_volume                      1835.73921719

loop_
_atom_site_label
_atom_site_type_symbol
_atom_type_description
_atom_site_fract_x
_atom_site_fract_y
_atom_site_fract_z
_atom_type_partial_charge
O1    O     O_R   0.506780 0.600060 0.449950 -0.548688
O2    O     O_R   0.179840 0.597110 0.589410 -0.534703
O3    O     O_R   0.004570 0.399940 0.550050 -0.544801
C1    C     C_R   0.348531 0.619108 0.616772 0.763080
O4    O     O_R   0.177380 0.612160 0.452890 -0.539675
O5    O     O_R   0.002100 0.415100 0.412560 -0.525299
C2    C     C_R   0.345697 0.637793 0.435480 0.822975
O6    O     O_R   0.509250 0.584900 0.587440 -0.525456
O7    O     O_3   0.337570 0.435330 0.486930 -0.372008
V1    V     V_3+5 0.064650 0.512000 0.502430 1.568690
O8    O     O_R   0.672090 0.402890 0.410590 -0.534882
C3    C     C_R   0.840247 0.382771 0.382813 0.785908
O9    O     O_R   0.674540 0.387840 0.547110 -0.543922
C4    C     C_R   0.843372 0.360588 0.563037 0.706703
V2    V     V_3+5 0.564040 0.488000 0.497570 1.560213
O10   O     O_3   0.840990 0.564670 0.513070 -0.370003
C5    C     C_R   0.857183 0.105322 0.604384 -0.065356
H1    H     H_    0.851397 0.156714 0.511705 0.160150
H2    H     H_    0.862413 0.978125 0.683591 0.152564
H3    H     H_    0.858780 0.025707 0.576853 0.158628
C6    C     C_R   0.851463 0.282284 0.601438 -0.060072
C7    C     C_R   0.857351 0.315677 0.930072 -0.141331
C8    C     C_R   0.852064 0.391760 0.894969 -0.069379
C9    C     C_R   0.851367 0.367022 0.823847 -0.152718
C10   C     C_R   0.855504 0.264067 0.785312 0.025976
C11   C     C_R   0.859359 0.185012 0.821428 0.035632
C12   C     C_R   0.855659 0.237712 0.712162 0.071490
C13   C     C_R   0.858082 0.133433 0.676322 0.077346
C14   C     C_R   0.860824 0.057392 0.711992 -0.265988
C15   C     C_R   0.861516 0.081086 0.783668 0.286606
C16   C     C_R   0.853177 0.311416 0.672910 -0.201836
C17   C     C_R   0.853283 0.179444 0.567160 -0.112344
C18   C     C_R   0.861000 0.213189 0.894534 -0.103605
H4    H     H_    0.851574 0.392176 0.695764 0.104957
H5    H     H_    0.858674 0.336865 0.985584 0.164715
H6    H     H_    0.847220 0.430975 0.800920 0.119953
H7    H     H_    0.848879 0.470940 0.923168 0.146227
C19   C     C_3   0.686776 0.209110 0.233019 0.362351
C20   C     C_3   0.811938 0.199518 0.293733 0.299703
C21   C     C_3   0.848532 0.315180 0.311858 -0.243943
C22   C     C_3   0.720448 0.325930 0.250349 -0.324097
C23   C     C_3   0.901235 0.306055 0.204383 0.304064
C24   C     C_3   0.027801 0.297246 0.265359 0.614887
C25   C     C_3   0.992202 0.180210 0.247764 -0.359606
C26   C     C_3   0.864164 0.190332 0.186320 -0.186464
H8    H     H_    0.609380 0.384738 0.250701 0.231198
H9    H     H_    0.099384 0.119537 0.245940 0.200133
C27   C     C_3   0.533136 0.742383 0.725024 0.763573
C28   C     C_3   0.421260 0.843261 0.747483 -0.298010
H10   H     H_    0.476272 0.919746 0.745589 0.163862
C29   C     C_3   0.358141 0.811020 0.812705 -0.199573
C30   C     C_3   0.473181 0.710825 0.790672 -0.249518
C31   C     C_3   0.291906 0.656896 0.752490 -0.320933
C32   C     C_3   0.180007 0.757707 0.774965 0.755052
C33   C     C_3   0.239842 0.789339 0.709322 -0.220804
C34   C     C_3   0.354911 0.689120 0.687272 -0.192058
H11   H     H_    0.570682 0.679072 0.823963 0.171966
H12   H     H_    0.236661 0.580441 0.754355 0.152036
H13   H     H_    0.142234 0.821214 0.676122 0.184385
C35   C     C_R   0.325941 0.893609 0.394938 0.551009
C36   C     C_R   0.353418 0.716894 0.397500 -0.264053
C37   C     C_R   0.394315 0.683621 0.069941 -0.344631
C38   C     C_R   0.441787 0.610791 0.105268 0.695008
C39   C     C_R   0.459961 0.637384 0.176548 0.275016
C40   C     C_R   0.402011 0.736429 0.214776 -0.063014
C41   C     C_R   0.366027 0.811939 0.177768 -0.050589
C42   C     C_R   0.380099 0.763536 0.287757 0.010264
C43   C     C_R   0.353541 0.867876 0.322983 -0.170087
C44   C     C_R   0.344599 0.942871 0.284940 0.379278
C45   C     C_R   0.339718 0.913783 0.213776 -0.165091
C46   C     C_R   0.369638 0.689210 0.326348 -0.318584
C47   C     C_R   0.330986 0.818788 0.431604 0.545578
C48   C     C_R   0.365268 0.784851 0.105098 -0.147535
H14   H     H_    0.363702 0.608723 0.302103 0.206977
H15   H     H_    0.394459 0.662508 0.014443 0.152860
H16   H     H_    0.320602 0.973092 0.186708 0.149163
O11   O     O_R   0.203580 0.914920 0.912610 -0.514397
O12   O     O_R   0.535710 0.887810 0.047120 -0.547786
O13   O     O_R   0.710730 0.084950 0.087430 -0.526631
C49   C     C_R   0.367748 0.862268 0.064917 0.718423
O14   O     O_R   0.533010 0.902850 0.910600 -0.528885
O15   O     O_R   0.708010 0.100090 0.949930 -0.534768
C50   C     C_R   0.364357 0.880933 0.883218 0.753853
O16   O     O_R   0.206300 0.899780 0.050100 -0.550811
O17   O     O_3   0.375170 0.064580 0.013100 -0.370260
V3    V     V_3+5 0.648200 0.988020 0.997570 1.557527
O18   O     O_R   0.038030 0.112330 0.952840 -0.538698
C51   C     C_R   0.869240 0.138333 0.935936 0.810174
O19   O     O_R   0.040730 0.097300 0.089360 -0.541667
C52   C     C_R   0.872345 0.119728 0.116364 0.771574
V4    V     V_3+5 0.148780 0.012220 0.002360 1.559133
O20   O     O_3   0.871930 0.935430 0.986900 -0.367066
O21   O     O_3   0.508943 0.161003 0.216121 -0.620272
H17   H     H_    0.425171 0.190485 0.255473 0.358487
O22   O     O_3   0.951610 0.361021 0.156532 -0.602540
H18   H     H_    0.961917 0.433090 0.182909 0.325410
F1    F     F_    0.203420 0.345865 0.281371 -0.682348
F2    F     F_    0.716661 0.734255 0.698186 -0.657851
F3    F     F_    0.996779 0.764929 0.801979 -0.656828
F4    F     F_    0.305543 0.845395 0.500508 -0.662822
O23   O     O_3   0.334535 0.045504 0.315324 -0.621829
H19   H     H_    0.430396 0.060749 0.352943 0.361865
F5    F     F_    0.282034 0.989701 0.430314 -0.642345
O24   O     O_3   0.554945 0.568740 0.205274 -0.620112
H20   H     H_    0.640157 0.608373 0.241960 0.284135
F6    F     F_    0.489167 0.515493 0.069414 -0.644535
O25   O     O_3   0.863724 0.002957 0.816970 -0.636083
H21   H     H_    0.860962 0.936133 0.783018 0.341817
O26   O     O_3   0.763188 0.144152 0.341466 -0.627229
H22   H     H_    0.771723 0.071477 0.316398 0.303854

loop_
_geom_bond_atom_site_label_1
_geom_bond_atom_site_label_2
_ccdc_geom_bond_type
O18   C51   A    
C21   C22   S    
O23   H19   S    
O18   V4    S    
C15   O25   S    
C22   C23   S    
O22   H18   S    
C49   O16   A    
O17   V4    S    
C31   C32   S    
C30   C31   S    
C7    H5    S    
C6    C16   A    
C37   C38   A    
C4    C6    S    
C13   C14   A    
C18   C51   S    
C33   H13   S    
O5    C3    A    
C19   C20   S    
O12   C49   A    
O11   C50   A    
V2    O10   S    
C5    H3    S    
C39   O24   S    
C28   H10   S    
C2    C36   S    
C19   C26   S    
O8    V2    S    
O13   C52   A    
C21   C24   S    
V3    O20   S    
C43   C44   A    
C40   C42   A    
C22   H8    S    
C37   C48   A    
O1    V2    S    
O16   V4    S    
O19   V4    S    
C35   F5    S    
O7    V1    S    
O14   V3    S    
C25   H9    S    
C1    O6    A    
C36   C46   A    
O9    C4    A    
C1    C34   S    
O4    V1    S    
O24   H20   S    
O14   C50   A    
C6    C17   A    
C12   C16   A    
C23   O22   S    
C9    C10   A    
C19   C22   S    
V4    O20   S    
O4    C2    A    
C28   C29   S    
C10   C11   A    
C28   C33   S    
C41   C48   A    
C42   C43   A    
C23   C26   S    
C3    C21   S    
O2    C1    A    
C24   C25   S    
C14   C15   A    
C11   C18   A    
C27   C30   S    
C8    C9    A    
C33   C34   S    
C16   H4    S    
O21   H17   S    
C9    H6    S    
C38   F6    S    
C26   C52   S    
O17   V3    S    
O3    C4    A    
C36   C47   A    
C27   C28   S    
C11   C15   A    
O6    V2    S    
O9    V2    S    
C45   H16   S    
C37   H15   S    
H1    C17   S    
C23   C24   S    
O25   H21   S    
O2    V1    S    
C29   C50   S    
C20   C21   S    
C25   C26   S    
C47   F4    S    
C31   C34   S    
C27   C34   S    
C7    C18   A    
C32   C33   S    
O11   V4    S    
O1    C2    A    
C5    C13   A    
C24   F1    S    
O5    V1    S    
C46   H14   S    
C31   H12   S    
C20   C25   S    
C44   O23   S    
C10   C12   A    
C27   F2    S    
C29   C32   S    
C39   C40   A    
O7    V2    S    
C29   C30   S    
O3    V1    S    
C8    H7    S    
O26   H22   S    
O15   V3    S    
O12   V3    S    
C41   C45   A    
O15   C51   A    
C19   O21   S    
C48   C49   S    
C42   C46   A    
C44   C45   A    
C32   F3    S    
C30   H11   S    
C38   C39   A    
C20   O26   S    
C35   C43   A    
C40   C41   A    
C12   C13   A    
C5    C17   A    
C35   C47   A    
C7    C8    A    
V1    O10   S    
O19   C52   A    
O13   V3    S    
O8    C3    A    
H2    C14   S    
