data_str_m12_o4_o10_f0_bcu.sym.26
_audit_creation_date              2012-12-11T16:45:45-0500
_audit_creation_method            fapswitch 2.2
_symmetry_space_group_name_H-M    P1
_symmetry_Int_Tables_number       1
_space_group_crystal_system       triclinic
_cell_length_a                    19.97097
_cell_length_b                    17.060131
_cell_length_c                    15.334174
_cell_angle_alpha                 90.001123
_cell_angle_beta                  52.430105
_cell_angle_gamma                 89.999856
_cell_volume                      4140.96464632

loop_
_atom_site_label
_atom_site_type_symbol
_atom_type_description
_atom_site_fract_x
_atom_site_fract_y
_atom_site_fract_z
_atom_type_partial_charge
C1    C     C_R   0.842969 0.676155 0.041935 -0.110053
C2    C     C_R   0.148357 0.311287 0.073376 0.099630
C3    C     C_R   0.351647 0.811280 0.926622 0.099999
C4    C     C_R   0.648353 0.811281 0.073376 0.099700
C5    C     C_R   0.891591 0.687052 0.301826 0.051943
C6    C     C_R   0.108429 0.687045 0.698160 0.051916
C7    C     C_R   0.391579 0.187050 0.301836 0.051929
C8    C     C_R   0.608451 0.187040 0.698148 0.051847
C9    C     C_R   0.848534 0.716880 0.486911 0.257443
C10   C     C_R   0.151534 0.716848 0.513050 0.257519
C11   C     C_R   0.348518 0.216879 0.486924 0.257476
C12   C     C_R   0.157028 0.676156 0.958071 -0.110062
C13   C     C_R   0.651655 0.216807 0.512994 0.257858
C14   C     C_R   0.869542 0.744081 0.386995 0.055891
C15   C     C_R   0.130497 0.744064 0.612976 0.055871
C16   C     C_R   0.369529 0.244079 0.387008 0.055850
C17   C     C_R   0.630556 0.244047 0.612939 0.055793
C18   C     C_R   0.356973 0.324031 0.378665 -0.193005
C19   C     C_R   0.643031 0.324017 0.621303 -0.193057
C20   C     C_R   0.856973 0.824029 0.378656 -0.192979
C21   C     C_R   0.143031 0.824021 0.621323 -0.193004
C22   C     C_R   0.308940 0.370146 0.474245 -0.172616
C23   C     C_R   0.342985 0.176169 0.041906 -0.110126
C24   C     C_R   0.691040 0.370138 0.525730 -0.172619
C25   C     C_R   0.808923 0.870137 0.474240 -0.172590
C26   C     C_R   0.191058 0.870135 0.525744 -0.172612
C27   C     C_R   0.272753 0.335810 0.577923 0.024550
C28   C     C_R   0.727272 0.335791 0.422044 0.024552
C29   C     C_R   0.772735 0.835795 0.577914 0.024540
C30   C     C_R   0.227260 0.835791 0.422063 0.024562
C31   C     C_R   0.801483 0.761703 0.580584 0.125042
C32   C     C_R   0.198558 0.761675 0.419384 0.125063
C33   C     C_R   0.301484 0.261708 0.580594 0.125128
C34   C     C_R   0.657017 0.176166 0.958090 -0.110112
C35   C     C_R   0.698644 0.261643 0.419341 0.125062
C36   C     C_3   0.754427 0.690899 0.650314 -0.448710
C37   C     C_3   0.245658 0.690880 0.349651 -0.448725
C38   C     C_3   0.254413 0.190911 0.650331 -0.448935
C39   C     C_3   0.745826 0.190868 0.349609 -0.448893
C40   C     C_R   0.846262 0.335314 0.218374 -0.072232
C41   C     C_R   0.153735 0.335300 0.781610 -0.072169
C42   C     C_R   0.346277 0.835285 0.218381 -0.072244
C43   C     C_R   0.653721 0.835281 0.781602 -0.072225
C44   C     C_3   0.806891 0.642135 0.547279 -0.550135
C45   C     C_R   0.804735 0.367047 0.322310 0.058931
C46   C     C_3   0.193221 0.642112 0.452682 -0.550154
C47   C     C_3   0.306861 0.142141 0.547300 -0.550069
C48   C     C_3   0.693424 0.142091 0.452633 -0.550121
C49   C     C_2   0.773193 0.191601 0.973725 -0.157255
C50   C     C_2   0.226818 0.191610 0.026256 -0.157360
C51   C     C_2   0.273242 0.691565 0.973654 -0.157570
C52   C     C_2   0.726754 0.691562 0.026352 -0.157593
C53   C     C_2   0.308273 0.754182 0.907214 -0.161303
C54   C     C_2   0.691724 0.754183 0.092789 -0.161288
C55   C     C_2   0.808258 0.254189 0.907236 -0.161192
C56   C     C_R   0.195258 0.367029 0.677670 0.058938
C57   C     C_2   0.191745 0.254193 0.092757 -0.161175
C58   C     C_R   0.866191 0.389165 0.896081 -0.145946
C59   C     C_R   0.133810 0.389168 0.103917 -0.145797
C60   C     C_R   0.366187 0.889163 0.896087 -0.146201
C61   C     C_R   0.633809 0.889164 0.103917 -0.145754
C62   C     C_R   0.919968 0.611613 0.294857 -0.225759
C63   C     C_R   0.080048 0.611608 0.705131 -0.225709
C64   C     C_R   0.419957 0.111611 0.294866 -0.225786
C65   C     C_R   0.580071 0.111604 0.705113 -0.225616
C66   C     C_R   0.882954 0.297367 0.983940 -0.117942
C67   C     C_R   0.304746 0.867020 0.322320 0.058999
C68   C     C_R   0.117051 0.297368 0.016052 -0.117972
C69   C     C_R   0.382951 0.797365 0.983948 -0.117817
C70   C     C_R   0.617053 0.797366 0.016043 -0.117819
C71   C     C_R   0.895831 0.698508 0.209511 -0.116659
C72   C     C_R   0.104177 0.698506 0.790484 -0.116674
C73   C     C_R   0.395826 0.198507 0.209516 -0.116630
C74   C     C_R   0.604186 0.198504 0.790481 -0.116680
C75   C     C_R   0.856267 0.424994 0.315451 -0.144764
C76   C     C_R   0.143720 0.424980 0.684541 -0.144748
C77   C     C_R   0.356271 0.924983 0.315454 -0.144702
C78   C     C_R   0.695234 0.867005 0.677658 0.059033
C79   C     C_R   0.643696 0.924958 0.684528 -0.144677
C80   C     C_R   0.833557 0.583428 0.945349 -0.099947
C81   C     C_R   0.166442 0.583430 0.054653 -0.099788
C82   C     C_R   0.333578 0.083446 0.945309 -0.100299
C83   C     C_R   0.666429 0.083441 0.054677 -0.099808
C84   C     C_R   0.794246 0.648629 0.012721 0.125751
C85   C     C_R   0.205751 0.648631 0.987286 0.125693
C86   C     C_R   0.294276 0.148654 0.012667 0.125860
C87   C     C_R   0.705730 0.148648 0.987321 0.125664
C88   C     C_2   0.979817 0.594560 0.321223 1.016509
C89   C     C_R   0.851648 0.311283 0.926617 0.099754
C90   C     C_2   0.020237 0.594546 0.678700 1.016486
C91   C     C_2   0.479793 0.094554 0.321252 1.016540
C92   C     C_2   0.520350 0.094506 0.678539 1.016375
C93   C     C_2   0.921817 0.222155 0.979253 0.984970
C94   C     C_2   0.078197 0.222152 0.020733 0.985008
C95   C     C_2   0.421865 0.722171 0.979194 0.984603
C96   C     C_2   0.578144 0.722172 0.020790 0.984668
H1    H     H_    0.834676 0.728867 0.086472 0.093084
H2    H     H_    0.232191 0.678122 0.290591 0.223934
H3    H     H_    0.267890 0.178177 0.709386 0.223811
H4    H     H_    0.732390 0.178056 0.290530 0.223893
H5    H     H_    0.686368 0.690814 0.686294 0.238746
H6    H     H_    0.313717 0.690834 0.313674 0.238764
H7    H     H_    0.186354 0.190842 0.686315 0.238730
H8    H     H_    0.813880 0.190893 0.313654 0.238767
H9    H     H_    0.850648 0.601989 0.547425 0.231580
H10   H     H_    0.149490 0.601932 0.452529 0.231565
H11   H     H_    0.350611 0.101984 0.547445 0.231595
H12   H     H_    0.165319 0.728867 0.913537 0.093094
H13   H     H_    0.649747 0.101848 0.452453 0.231561
H14   H     H_    0.769168 0.614588 0.524253 0.195747
H15   H     H_    0.230956 0.614603 0.475713 0.195770
H16   H     H_    0.269129 0.114605 0.524282 0.195745
H17   H     H_    0.731171 0.114649 0.475690 0.195788
H18   H     H_    0.783302 0.177835 0.033742 0.131106
H19   H     H_    0.216720 0.177850 0.966226 0.131095
H20   H     H_    0.283391 0.677765 0.033625 0.131316
H21   H     H_    0.716610 0.677758 0.966379 0.131345
H22   H     H_    0.295040 0.769220 0.850348 0.129799
H23   H     H_    0.334701 0.228888 0.086428 0.093073
H24   H     H_    0.704957 0.769224 0.149654 0.129799
H25   H     H_    0.795056 0.269199 0.850332 0.129758
H26   H     H_    0.204938 0.269199 0.149672 0.129763
H27   H     H_    0.819634 0.295115 0.193323 0.146237
H28   H     H_    0.180367 0.295106 0.806659 0.146211
H29   H     H_    0.319667 0.795067 0.193325 0.146260
H30   H     H_    0.680342 0.795072 0.806652 0.146248
H31   H     H_    0.859318 0.417061 0.838622 0.139325
H32   H     H_    0.140680 0.417065 0.161379 0.139392
H33   H     H_    0.359313 0.917057 0.838628 0.139224
H34   H     H_    0.665301 0.228883 0.913570 0.093091
H35   H     H_    0.640675 0.917058 0.161384 0.139353
H36   H     H_    0.893362 0.754255 0.178141 0.088358
H37   H     H_    0.106649 0.754253 0.821852 0.088363
H38   H     H_    0.393356 0.254254 0.178147 0.088344
H39   H     H_    0.606664 0.254252 0.821843 0.088363
H40   H     H_    0.841918 0.463836 0.380480 0.099812
H41   H     H_    0.158054 0.463818 0.619518 0.099935
H42   H     H_    0.341917 0.963833 0.380478 0.099813
H43   H     H_    0.657992 0.963771 0.619500 0.100203
H44   H     H_    0.814747 0.551018 0.902907 0.122093
H45   H     H_    0.292220 0.429001 0.467721 0.134345
H46   H     H_    0.185253 0.551021 0.097093 0.122110
H47   H     H_    0.314781 0.051047 0.902846 0.122084
H48   H     H_    0.685232 0.051039 0.097131 0.122096
H49   H     H_    0.376157 0.348808 0.301587 0.133248
H50   H     H_    0.623790 0.348813 0.698401 0.133268
H51   H     H_    0.876157 0.848807 0.301578 0.133253
H52   H     H_    0.123829 0.848807 0.698407 0.133256
H53   H     H_    0.978886 0.476063 0.310661 0.285893
H54   H     H_    0.020970 0.476056 0.689594 0.285898
H55   H     H_    0.478884 0.976068 0.310667 0.285936
H56   H     H_    0.707699 0.429018 0.532266 0.134357
H57   H     H_    0.520632 0.976042 0.690188 0.286005
H58   H     H_    0.924976 0.132960 0.063015 0.333350
H59   H     H_    0.075053 0.132954 0.936957 0.333353
H60   H     H_    0.424972 0.632876 0.062873 0.333337
H61   H     H_    0.575085 0.632852 0.937097 0.333305
H62   H     H_    0.792191 0.928988 0.467719 0.134343
H63   H     H_    0.207758 0.928998 0.532272 0.134344
H64   H     H_    0.767906 0.678173 0.709370 0.223928
N1    N     N_R   0.908660 0.628630 0.995840 -0.050238
N2    N     N_R   0.096530 0.421430 0.063580 -0.050704
N3    N     N_R   0.403470 0.921430 0.936420 -0.050811
N4    N     N_R   0.596530 0.921430 0.063580 -0.050713
N5    N     N_R   0.927500 0.575670 0.211370 -0.063720
N6    N     N_R   0.072500 0.575670 0.788630 -0.063760
N7    N     N_R   0.427500 0.075670 0.211370 -0.063726
N8    N     N_R   0.572500 0.075670 0.788630 -0.063831
N9    N     N_R   0.908660 0.365680 0.995820 -0.078899
N10   N     N_R   0.091340 0.365680 0.004180 -0.078915
N11   N     N_R   0.408660 0.865680 0.995820 -0.078918
N12   N     N_R   0.091340 0.628630 0.004160 -0.050252
N13   N     N_R   0.591340 0.865680 0.004180 -0.078967
N14   N     N_R   0.922310 0.631420 0.151980 -0.041499
N15   N     N_R   0.077690 0.631420 0.848020 -0.041493
N16   N     N_R   0.422310 0.131420 0.151980 -0.041484
N17   N     N_R   0.577690 0.131420 0.848020 -0.041467
N18   N     N_R   0.927500 0.426330 0.211360 -0.057190
N19   N     N_R   0.072500 0.426330 0.788640 -0.057271
N20   N     N_R   0.427500 0.926330 0.211360 -0.057182
N21   N     N_R   0.572500 0.926330 0.788640 -0.057417
N22   N     N_R   0.903470 0.570760 0.936440 -0.052816
N23   N     N_R   0.408660 0.128630 0.995840 -0.050196
N24   N     N_R   0.096530 0.570760 0.063560 -0.052784
N25   N     N_R   0.403470 0.070760 0.936440 -0.052875
N26   N     N_R   0.596530 0.070760 0.063560 -0.052796
N27   N     N_R   0.591340 0.128630 0.004160 -0.050232
N28   N     N_R   0.922310 0.368460 0.151950 -0.043720
N29   N     N_R   0.077690 0.368460 0.848050 -0.043728
N30   N     N_R   0.422310 0.868460 0.151950 -0.043756
N31   N     N_R   0.577690 0.868460 0.848050 -0.043772
N32   N     N_R   0.903470 0.421430 0.936420 -0.050742
Ni1   Ni    Ni4+2 0.000000 0.630300 0.000000 0.207812
Ni2   Ni    Ni4+2 0.500000 0.130300 0.000000 0.207799
Ni3   Ni    Ni4+2 0.000000 0.369700 0.000000 0.268269
Ni4   Ni    Ni4+2 0.500000 0.869700 0.000000 0.268230
Ni5   Ni    Ni4+2 0.988090 0.497570 0.863760 0.229447
Ni6   Ni    Ni4+2 0.011910 0.497570 0.136240 0.229538
Ni7   Ni    Ni4+2 0.488090 0.997570 0.863760 0.229289
Ni8   Ni    Ni4+2 0.511910 0.997570 0.136240 0.229545
O1    O     O_2   0.012258 0.649165 0.334627 -0.600866
O2    O     O_R   0.901744 0.188014 0.075225 -0.833275
O3    O     O_2   0.032399 0.187515 0.108481 -0.619738
O4    O     O_R   0.098287 0.188004 0.924750 -0.833265
O5    O     O_2   0.467851 0.687668 0.891354 -0.619687
O6    O     O_R   0.401629 0.687891 0.075186 -0.833184
O7    O     O_2   0.532137 0.687680 0.108638 -0.619687
O8    O     O_R   0.598425 0.687871 0.924779 -0.833192
O9    O     O_R   0.004366 0.519100 0.326078 -0.785973
O10   O     O_2   0.987835 0.649147 0.665223 -0.600864
O11   O     O_R   0.995696 0.519087 0.673837 -0.785938
O12   O     O_2   0.512244 0.149155 0.334639 -0.600799
O13   O     O_R   0.504311 0.019095 0.326152 -0.785964
O14   O     O_2   0.488065 0.149092 0.664828 -0.600811
O15   O     O_R   0.495791 0.019038 0.673737 -0.785919
O16   O     O_2   0.967610 0.187516 0.891507 -0.619727

loop_
_geom_bond_atom_site_label_1
_geom_bond_atom_site_label_2
_ccdc_geom_bond_type
C95   O5    D    
C65   C92   S    
C83   C87   A    
C21   C26   A    
C55   H25   S    
C56   C76   A    
N8    Ni7   S    
C54   H24   S    
C42   N30   A    
C61   N4    A    
C3    C53   S    
C49   C87   S    
C66   N9    A    
C11   C47   S    
C67   C77   A    
C81   N24   A    
C80   C84   A    
C18   H49   S    
C51   C85   S    
C4    C70   A    
C39   H4    S    
C2    C57   S    
C39   H8    S    
C7    C73   A    
C44   H9    S    
C27   C33   A    
C43   C78   A    
C6    C72   A    
H61   O8    S    
C65   N8    A    
N6    N15   A    
C12   C85   A    
C38   H3    S    
C41   H28   S    
C3    C69   A    
H53   O9    S    
C13   C35   A    
C64   N7    A    
C2    C68   A    
C10   C15   A    
N23   N25   A    
C23   H23   S    
C90   O11   S    
C83   H48   S    
C96   O8    S    
C20   C25   A    
N8    N17   A    
C60   N3    A    
C63   C90   S    
C92   O15   S    
N32   Ni5   S    
C50   H19   S    
C69   N11   A    
C72   N15   A    
N1    N22   A    
C52   C84   S    
C75   N18   A    
N12   N24   A    
N31   Ni4   S    
C24   H56   S    
C42   H29   S    
C51   H20   S    
C57   H26   S    
C58   C89   A    
C68   N10   A    
C63   N6    A    
C29   C78   S    
C28   C35   A    
C9    C31   A    
C23   C86   A    
N2    N10   A    
C10   C46   S    
N7    Ni8   S    
C83   N26   A    
C92   O14   D    
C45   C75   A    
C80   N22   A    
C88   O1    D    
H60   O6    S    
C31   C36   S    
C30   C67   S    
C37   C46   S    
N30   Ni4   S    
N18   N28   A    
C52   H21   S    
C76   N19   A    
C95   O6    S    
C49   H18   S    
C71   H36   S    
C1    N1    A    
C58   H31   S    
C46   H15   S    
C93   O16   D    
C29   C31   A    
N26   Ni8   S    
N12   Ni1   S    
N22   Ni5   S    
C43   H30   S    
C37   H2    S    
H58   O2    S    
C52   C54   D    
C66   C89   A    
C76   H41   S    
C40   C45   A    
C28   C45   S    
C53   H22   S    
C19   H50   S    
N17   Ni2   S    
C82   N25   A    
C77   N20   A    
C21   H52   S    
C14   C20   A    
C11   C33   A    
C77   H42   S    
N28   Ni3   S    
N9    Ni3   S    
C79   H43   S    
C1    H1    S    
C90   O10   D    
C50   C86   S    
C78   C79   A    
N11   Ni4   S    
C96   O7    D    
N19   Ni5   S    
N5    N14   A    
C80   H44   S    
C62   C88   S    
C4    C61   A    
C68   C94   S    
C37   H6    S    
C79   N21   A    
C36   H5    S    
C1    C84   A    
N4    Ni8   S    
C6    C63   A    
C70   C96   S    
C9    C14   A    
C41   C56   A    
C23   N23   A    
C38   H7    S    
N20   Ni8   S    
C11   C16   A    
N29   Ni3   S    
N19   N29   A    
C15   C21   A    
C6    C15   S    
C49   C55   D    
C74   H39   S    
N13   Ni4   S    
C8    C74   A    
C5    C14   S    
C20   H51   S    
N1    Ni1   S    
C26   H63   S    
C32   C37   S    
N25   Ni7   S    
C75   H40   S    
C93   O2    S    
C48   H17   S    
C38   C47   S    
C66   C93   S    
C16   C18   A    
C7    C16   S    
C2    C59   A    
C26   C30   A    
C47   H11   S    
C88   O9    S    
N27   Ni2   S    
C58   N32   A    
C42   C67   A    
C82   H47   S    
C36   C44   S    
C94   O4    S    
H59   O4    S    
N21   Ni7   S    
H57   O15   S    
N3    N11   A    
C12   N12   A    
C12   H12   S    
C40   H27   S    
C81   H46   S    
C9    C44   S    
C4    C54   S    
C18   C22   A    
C50   C57   D    
C24   C28   A    
C91   O12   D    
C69   C95   S    
C60   H33   S    
C13   C48   S    
C40   N28   A    
C41   N29   A    
N2    Ni6   S    
C27   C56   S    
N24   Ni6   S    
C8    C17   S    
C64   C91   S    
C71   N14   A    
C13   C17   A    
C22   C27   A    
N16   Ni2   S    
H54   O11   S    
C73   N16   A    
C19   C24   A    
C59   H32   S    
N6    Ni5   S    
C91   O13   S    
C59   N2    A    
C82   C86   A    
N5    Ni6   S    
C3    C60   A    
C30   C32   A    
N21   N31   A    
C25   C29   A    
C72   H37   S    
N10   Ni3   S    
C74   N17   A    
C35   C39   S    
C46   H10   S    
C22   H45   S    
C25   H62   S    
C17   C19   A    
C5    C62   A    
C48   H13   S    
C34   C87   A    
N18   Ni6   S    
C34   N27   A    
C55   C89   S    
C70   N13   A    
C7    C64   A    
C36   H64   S    
N3    Ni7   S    
C10   C32   A    
N4    N13   A    
C8    C65   A    
C62   N5    A    
C43   N31   A    
C73   H38   S    
C34   H34   S    
N14   Ni1   S    
C5    C71   A    
H55   O13   S    
N23   Ni2   S    
C61   H35   S    
C39   C48   S    
C33   C38   S    
N20   N30   A    
C94   O3    D    
N9    N32   A    
C51   C53   D    
N26   N27   A    
N15   Ni1   S    
C81   C85   A    
C47   H16   S    
N7    N16   A    
C44   H14   S    
