data_str_m9_o18_o23_f0_sra.sym.46
_audit_creation_date              2012-12-11T15:30:36-0500
_audit_creation_method            fapswitch 2.2
_symmetry_space_group_name_H-M    P1
_symmetry_Int_Tables_number       1
_space_group_crystal_system       triclinic
_cell_length_a                    7.093315
_cell_length_b                    20.475965
_cell_length_c                    24.349402
_cell_angle_alpha                 89.809497
_cell_angle_beta                  90.374727
_cell_angle_gamma                 90.451791
_cell_volume                      3536.36275311

loop_
_atom_site_label
_atom_site_type_symbol
_atom_type_description
_atom_site_fract_x
_atom_site_fract_y
_atom_site_fract_z
_atom_type_partial_charge
O1    O     O_R   0.507310 0.423620 0.460450 -0.536872
O2    O     O_R   0.170760 0.556060 0.437190 -0.539243
O3    O     O_R   0.004040 0.576380 0.539550 -0.533303
C1    C     C_R   0.339533 0.575899 0.421512 0.711041
O4    O     O_R   0.177350 0.422870 0.454070 -0.540847
O5    O     O_R   0.010680 0.442240 0.556560 -0.531231
C2    C     C_R   0.344931 0.399191 0.443646 0.684324
O6    O     O_R   0.500670 0.557760 0.443440 -0.538333
O7    O     O_3   0.340380 0.506510 0.533610 -0.358234
V1    V     V_3+5 0.064130 0.498790 0.493770 1.448694
O8    O     O_R   0.681170 0.443940 0.562810 -0.522647
C3    C     C_R   0.849041 0.424244 0.578427 0.713888
O9    O     O_R   0.674570 0.577130 0.545930 -0.535441
C4    C     C_R   0.844307 0.600797 0.556251 0.697078
V2    V     V_3+5 0.564560 0.501210 0.506230 1.480168
O10   O     O_3   0.838170 0.493490 0.466390 -0.379562
C5    C     C_R   0.965422 0.838244 0.911851 -0.042581
C6    C     C_R   0.860570 0.661899 0.587770 -0.041989
C7    C     C_R   0.891357 0.722895 0.909657 -0.155683
C8    C     C_R   0.923331 0.780003 0.939186 -0.169523
C9    C     C_R   0.976720 0.838978 0.854210 -0.197000
C10   C     C_R   0.944435 0.781147 0.822863 0.112891
C11   C     C_R   0.898962 0.723102 0.852071 0.127459
C12   C     C_R   0.951066 0.779068 0.763842 -0.012515
C13   C     C_R   0.903270 0.720040 0.735305 0.049071
C14   C     C_R   0.857629 0.664125 0.766840 -0.147205
C15   C     C_R   0.857950 0.665642 0.823803 -0.179437
C16   C     C_R   0.007799 0.833770 0.732737 -0.228930
C17   C     C_R   0.011422 0.833112 0.675460 0.344900
C18   C     C_R   0.952495 0.776603 0.646716 -0.018031
C19   C     C_R   0.902852 0.718784 0.676296 0.042115
C20   C     C_R   0.945363 0.776218 0.588745 -0.078294
C21   C     C_R   0.901874 0.719592 0.559899 -0.187015
C22   C     C_R   0.858204 0.661510 0.645385 -0.169564
H1    H     H_    0.822515 0.621288 0.846040 0.150554
H2    H     H_    0.827099 0.615196 0.664444 0.113617
H3    H     H_    0.904847 0.720439 0.515403 0.114038
H4    H     H_    0.856952 0.678513 0.931948 0.122750
H5    H     H_    0.912103 0.779025 0.983543 0.105691
H6    H     H_    0.003198 0.885819 0.835384 0.110672
H7    H     H_    0.820786 0.617773 0.748919 0.153640
H8    H     H_    0.055112 0.877916 0.752342 0.181524
H9    H     H_    0.975387 0.819350 0.564655 0.204477
C23   C     C_3   0.751505 0.251214 0.805438 -0.363059
C24   C     C_3   0.090144 0.256990 0.787778 -0.311420
C25   C     C_3   0.056686 0.312182 0.742554 0.302600
H10   H     H_    0.735340 0.349916 0.777271 0.200121
H11   H     H_    0.784081 0.279508 0.843443 0.162708
H12   H     H_    0.212191 0.227766 0.776651 0.267866
H13   H     H_    0.121196 0.278638 0.828653 0.225445
H14   H     H_    0.161500 0.309125 0.710021 0.189448
C26   C     C_1   0.854887 0.379633 0.624682 -0.074630
C27   C     C_3   0.922981 0.208296 0.792887 -0.116606
C28   C     C_3   0.725757 0.302084 0.756892 0.384120
C29   C     C_3   0.876068 0.296549 0.711523 -0.156674
C30   C     C_3   0.885761 0.225244 0.689249 -0.457302
C31   C     C_3   0.884393 0.173983 0.736416 0.343209
C32   C     C_1   0.859608 0.342398 0.663602 0.161671
C33   C     C_1   0.954046 0.160449 0.838613 0.092216
C34   C     C_1   0.967006 0.121722 0.876290 -0.109000
H15   H     H_    0.740185 0.152336 0.737374 0.149726
H16   H     H_    0.765600 0.215337 0.660898 0.200359
H17   H     H_    0.015736 0.220156 0.664304 0.201688
C35   C     C_3   0.542101 0.684169 0.250861 -0.329489
C36   C     C_3   0.203721 0.717864 0.259706 -0.330936
C37   C     C_3   0.230617 0.767353 0.211618 -0.346382
H18   H     H_    0.533818 0.708451 0.163066 0.143756
H19   H     H_    0.500139 0.635575 0.234262 0.141734
H20   H     H_    0.092889 0.735966 0.287868 0.153063
H21   H     H_    0.153325 0.670237 0.243059 0.140907
H22   H     H_    0.193358 0.743138 0.172112 0.144941
H23   H     H_    0.131665 0.808755 0.216716 0.170094
C38   C     C_1   0.473554 0.878747 0.124560 -0.171694
C39   C     C_3   0.391051 0.708177 0.291850 0.262961
C40   C     C_3   0.567357 0.733392 0.202517 -0.330318
C41   C     C_3   0.436957 0.793422 0.209581 0.229662
C42   C     C_3   0.481040 0.826194 0.266197 -0.137864
C43   C     C_3   0.456399 0.775688 0.314073 -0.345311
C44   C     C_1   0.458900 0.840500 0.162767 -0.083535
C45   C     C_1   0.366562 0.660352 0.337859 -0.086244
C46   C     C_1   0.350903 0.621653 0.375715 -0.182467
H24   H     H_    0.589986 0.769570 0.337817 0.146765
H25   H     H_    0.350170 0.794331 0.343465 0.150655
H26   H     H_    0.679420 0.677925 0.272563 0.140460
H27   H     H_    0.717403 0.749384 0.200363 0.146471
H28   H     H_    0.379565 0.866644 0.272445 0.120082
C47   C     C_R   0.477309 0.162600 0.087737 -0.090899
C48   C     C_R   0.347697 0.338593 0.411098 -0.046022
C49   C     C_R   0.548844 0.278243 0.094377 -0.187791
C50   C     C_R   0.537843 0.221287 0.063220 -0.049246
C51   C     C_R   0.428928 0.161892 0.143722 -0.220106
C52   C     C_R   0.443013 0.219285 0.176550 0.089041
C53   C     C_R   0.503852 0.277670 0.150399 0.126569
C54   C     C_R   0.401714 0.220771 0.234306 0.058300
C55   C     C_R   0.422479 0.280644 0.264546 0.059704
C56   C     C_R   0.482801 0.337017 0.235979 -0.188338
C57   C     C_R   0.521976 0.335384 0.180252 -0.189939
C58   C     C_R   0.340918 0.164431 0.262875 -0.181838
C59   C     C_R   0.301336 0.166099 0.318597 -0.184021
C60   C     C_R   0.319808 0.223790 0.348446 0.126139
C61   C     C_R   0.381370 0.282153 0.322290 0.086709
C62   C     C_R   0.274434 0.223398 0.404471 -0.140902
C63   C     C_R   0.286438 0.280388 0.435291 -0.156882
C64   C     C_R   0.396265 0.339550 0.355165 -0.213595
H29   H     H_    0.568454 0.380054 0.160290 0.125330
H30   H     H_    0.440032 0.386032 0.338575 0.093549
H31   H     H_    0.246592 0.279207 0.478173 0.119710
H32   H     H_    0.254323 0.121498 0.338561 0.139809
H33   H     H_    0.595624 0.323258 0.074936 0.127345
H34   H     H_    0.385967 0.115407 0.160483 0.102807
H35   H     H_    0.501844 0.383686 0.255520 0.120846
H36   H     H_    0.321469 0.117787 0.243322 0.128725
H37   H     H_    0.226586 0.178898 0.424388 0.139569
O11   O     O_R   0.323590 0.942280 0.056590 -0.537670
O12   O     O_R   0.647030 0.077140 0.045940 -0.538174
O13   O     O_R   0.813570 0.057750 0.943430 -0.525117
C65   C     C_R   0.479538 0.100957 0.056227 0.699604
O14   O     O_R   0.653510 0.943950 0.062820 -0.537426
O15   O     O_R   0.820100 0.923600 0.960440 -0.535239
C66   C     C_R   0.484738 0.924171 0.078536 0.710482
O16   O     O_R   0.317060 0.076430 0.039590 -0.534738
O17   O     O_3   0.483830 0.993520 0.966410 -0.363834
V3    V     V_3+5 0.760140 0.001200 0.006230 1.462310
O18   O     O_R   0.149560 0.922820 0.954030 -0.538365
C67   C     C_R   0.979950 0.899138 0.943740 0.687673
O19   O     O_R   0.143080 0.056020 0.937150 -0.532088
C68   C     C_R   0.975041 0.075921 0.921687 0.721913
V4    V     V_3+5 0.259690 0.998730 0.993720 1.466106
O20   O     O_3   0.986120 0.006480 0.033580 -0.375597
S1    S     S_3+6 0.066501 0.397466 0.769165 0.051372
O21   O     O_2   0.910728 0.438714 0.745666 -0.349912
O22   O     O_2   0.048453 0.396699 0.830658 -0.330114
O23   O     O_3   0.268411 0.436089 0.752679 -0.404309
H38   H     H_    0.265052 0.478066 0.772743 0.372999
S2    S     S_3+6 0.032914 0.105205 0.721489 0.100910
O24   O     O_2   0.008882 0.086704 0.662165 -0.228371
O25   O     O_2   0.237050 0.120736 0.732287 -0.300845
O26   O     O_3   0.965377 0.041392 0.760701 -0.480318
H39   H     H_    0.081384 0.026011 0.779367 0.358860
C69   C     C_1   0.585857 0.210346 0.820569 0.521596
N1    N     N_1   0.461081 0.177222 0.833712 -0.312297
S3    S     S_3+6 0.504079 0.307075 0.730927 -0.064448
O27   O     O_2   0.405666 0.325509 0.782599 -0.339577
O28   O     O_2   0.483534 0.360709 0.689000 -0.326819
O29   O     O_3   0.433762 0.234859 0.704719 -0.530498
H40   H     H_    0.425269 0.241822 0.664516 0.346808
C70   C     C_1   0.671720 0.855732 0.267829 0.299706
N2    N     N_1   0.821077 0.878854 0.269111 -0.370440
S4    S     S_3+6 0.100474 0.903749 0.641329 0.095260
O30   O     O_2   0.941906 0.936330 0.610867 -0.252364
O31   O     O_2   0.185270 0.951472 0.681422 -0.257236
O32   O     O_3   0.267059 0.882225 0.596141 -0.479642
H41   H     H_    0.361768 0.858148 0.618194 0.336599
C71   C     C_1   0.590691 0.224047 0.006032 0.307978
N3    N     N_1   0.633224 0.226223 0.960258 -0.354223

loop_
_geom_bond_atom_site_label_1
_geom_bond_atom_site_label_2
_ccdc_geom_bond_type
C13   C19   A    
S2    O26   S    
C29   C30   S    
O19   C68   A    
O13   V3    S    
C47   C51   A    
C4    C6    S    
C7    C11   A    
C55   C56   A    
C41   C44   S    
C1    O6    A    
V4    O20   S    
S3    O28   D    
C64   H30   S    
O29   H40   S    
C27   C33   S    
S2    O24   D    
C24   C25   S    
C59   H32   S    
C14   C15   A    
C20   H9    S    
C35   H19   S    
C51   H34   S    
C52   C53   A    
C16   C17   A    
C47   C65   S    
S4    O31   D    
O5    C3    A    
C18   C19   A    
C54   C58   A    
V2    O10   S    
C49   H33   S    
C5    C8    A    
C30   C31   S    
C65   O16   A    
C35   H26   S    
C70   N2    T    
C3    C26   S    
O8    V2    S    
C23   C27   S    
C40   H27   S    
S3    O27   D    
C37   H23   S    
C1    C46   S    
C7    C8    A    
O12   C65   A    
O13   C68   A    
C25   C29   S    
O1    V2    S    
C11   C15   A    
C50   C71   S    
O7    V1    S    
C42   C70   S    
C22   H2    S    
O18   V4    S    
C57   H29   S    
C24   C27   S    
C33   C34   T    
C23   C69   S    
C38   C66   S    
C39   C45   S    
O9    C4    A    
V3    O20   S    
C49   C53   A    
S3    O29   S    
C62   C63   A    
C43   H25   S    
C60   C62   A    
C48   C64   A    
C41   C42   S    
C56   H35   S    
C19   C22   A    
O17   V3    S    
O12   V3    S    
C58   H36   S    
C12   C13   A    
O16   V4    S    
S4    O32   S    
C51   C52   A    
O4    C2    A    
C8    H5    S    
C27   C31   S    
C15   H1    S    
C13   C14   A    
C42   C43   S    
C25   H14   S    
C21   H3    S    
C36   C39   S    
C36   H21   S    
S1    O22   D    
C40   C41   S    
C37   H22   S    
C25   S1    S    
C17   C18   A    
C7    H4    S    
O11   V4    S    
C43   H24   S    
C2    C48   S    
C24   H12   S    
C37   C41   S    
C56   C57   A    
C52   C54   A    
C38   C44   T    
C30   H17   S    
C69   N1    T    
C6    C22   A    
C71   N3    T    
O3    C4    A    
C26   C32   T    
H10   C28   S    
O15   C67   A    
C28   S3    S    
C42   H28   S    
C36   C37   S    
O6    V2    S    
O9    V2    S    
O23   H38   S    
C10   C12   A    
C29   C32   S    
S1    O23   S    
H18   C40   S    
O2    V1    S    
C53   C57   A    
C48   C63   A    
S2    O25   D    
C28   C29   S    
O19   V4    S    
O1    C2    A    
C34   C68   S    
C12   C16   A    
C45   C46   T    
O5    V1    S    
O8    C3    A    
C31   H15   S    
O15   V3    S    
C61   C64   A    
C55   C61   A    
C59   C60   A    
C20   C21   A    
S1    O21   D    
O7    V2    S    
O4    V1    S    
O3    V1    S    
V1    O10   S    
S4    O30   D    
C18   C20   A    
C5    C67   S    
C9    H6    S    
C24   H13   S    
C36   H20   S    
O2    C1    A    
C16   H8    S    
C60   C61   A    
C35   C40   S    
C30   H16   S    
O14   V3    S    
O17   V4    S    
C54   C55   A    
C6    C21   A    
O14   C66   A    
O26   H39   S    
C17   S4    S    
C23   C28   S    
O32   H41   S    
C58   C59   A    
C39   C43   S    
C47   C50   A    
C62   H37   S    
C35   C39   S    
C10   C11   A    
C31   S2    S    
C63   H31   S    
C49   C50   A    
C9    C10   A    
O11   C66   A    
C23   H11   S    
C14   H7    S    
O18   C67   A    
C5    C9    A    
