data_str_m4_o4_o15_f0_acs.sym.3
_audit_creation_date              2012-12-11T15:44:57-0500
_audit_creation_method            fapswitch 2.2
_symmetry_space_group_name_H-M    P1
_symmetry_Int_Tables_number       1
_space_group_crystal_system       triclinic
_cell_length_a                    19.086816
_cell_length_b                    11.080645
_cell_length_c                    18.770941
_cell_angle_alpha                 90.228878
_cell_angle_beta                  90.009028
_cell_angle_gamma                 89.896246
_cell_volume                      3969.907527

loop_
_atom_site_label
_atom_site_type_symbol
_atom_type_description
_atom_site_fract_x
_atom_site_fract_y
_atom_site_fract_z
_atom_type_partial_charge
C1    C     C_R   0.760300 0.535002 0.647279 0.532076
C2    C     C_R   0.183323 0.066137 0.545637 -0.169042
C3    C     C_R   0.518538 0.949257 0.958515 0.030178
C4    C     C_R   0.018160 0.231999 0.955529 -0.166763
C5    C     C_R   0.023473 0.231347 0.030043 -0.161200
C6    C     C_R   0.513276 0.731922 0.957153 -0.171110
C7    C     C_R   0.516642 0.731693 0.031686 -0.166204
C8    C     C_3   0.986415 0.563589 0.039994 -0.276313
C9    C     C_3   0.980610 0.566933 0.959779 -0.267261
C10   C     C_3   0.484406 0.063925 0.040341 -0.278373
C11   C     C_3   0.478764 0.066335 0.960174 -0.268908
C12   C     C_R   0.760938 0.529733 0.853163 0.536601
C13   C     C_R   0.315566 0.561865 0.455169 -0.169024
C14   C     C_R   0.237577 0.525299 0.145255 0.538447
C15   C     C_R   0.259794 0.033301 0.851623 0.536145
C16   C     C_R   0.737722 0.025774 0.145438 0.540050
C17   C     C_R   0.772108 0.124775 0.852409 0.550298
C18   C     C_R   0.225613 0.131707 0.144763 0.545263
C19   C     C_R   0.271920 0.624561 0.852342 0.547845
C20   C     C_R   0.727803 0.626534 0.147014 0.551087
C21   C     C_R   0.971150 0.347273 0.852567 0.541903
C22   C     C_R   0.034254 0.347046 0.144039 0.541316
C23   C     C_R   0.470829 0.847287 0.852778 0.542632
C24   C     C_R   0.683327 0.566127 0.545632 -0.169133
C25   C     C_R   0.532892 0.847030 0.144752 0.540751
C26   C     C_R   0.753496 0.093261 0.420369 0.002551
C27   C     C_R   0.246395 0.093183 0.579961 0.003540
C28   C     C_R   0.253497 0.593264 0.420369 0.002479
C29   C     C_R   0.746399 0.593175 0.579956 0.003434
C30   C     C_R   0.698522 0.144006 0.459257 0.032286
C31   C     C_R   0.301995 0.140270 0.540788 0.032584
C32   C     C_R   0.198523 0.644011 0.459257 0.032315
C33   C     C_R   0.802000 0.640260 0.540783 0.032491
C34   C     C_R   0.705427 0.155316 0.533220 0.028313
C35   C     C_3   0.677207 0.273044 0.452328 -0.283767
C36   C     C_R   0.295240 0.151355 0.466873 0.022677
C37   C     C_R   0.205428 0.655320 0.533221 0.028268
C38   C     C_R   0.795245 0.651343 0.466868 0.022717
C39   C     C_2   0.928563 0.568901 0.376010 0.255938
C40   C     C_2   0.086900 0.541075 0.638065 0.249656
C41   C     C_2   0.428559 0.068900 0.376007 0.255896
C42   C     C_2   0.586899 0.041077 0.638058 0.249474
C43   C     C_3   0.325841 0.267808 0.548024 -0.287463
C44   C     C_3   0.177211 0.773052 0.452330 -0.283797
C45   C     C_3   0.825846 0.767798 0.548018 -0.287489
C46   C     C_3   0.688934 0.286320 0.531059 -0.234786
C47   C     C_3   0.315082 0.280834 0.469174 -0.239066
C48   C     C_3   0.188938 0.786325 0.531061 -0.234764
C49   C     C_R   0.239606 0.535165 0.352829 0.533625
C50   C     C_3   0.815088 0.780822 0.469168 -0.239001
C51   C     C_R   0.762744 0.105142 0.568954 -0.001387
C52   C     C_R   0.236468 0.106066 0.431391 -0.003022
C53   C     C_R   0.262744 0.605142 0.568954 -0.001553
C54   C     C_R   0.736474 0.606052 0.431386 -0.002697
C55   C     C_R   0.996643 0.338730 0.426046 -0.058546
C56   C     C_R   0.007862 0.332520 0.576504 -0.058419
C57   C     C_R   0.496639 0.838729 0.426044 -0.058441
C58   C     C_R   0.507858 0.832520 0.576501 -0.058443
C59   C     C_R   0.986309 0.118111 0.424353 -0.088502
C60   C     C_R   0.260299 0.035005 0.647280 0.531883
C61   C     C_R   0.007709 0.110206 0.571013 -0.091938
C62   C     C_R   0.486310 0.618108 0.424350 -0.088444
C63   C     C_R   0.507707 0.610206 0.571010 -0.091961
C64   C     C_R   0.991463 0.008244 0.458585 -0.163443
C65   C     C_R   0.001997 0.004077 0.531729 -0.165559
C66   C     C_R   0.491470 0.508242 0.458582 -0.163411
C67   C     C_R   0.502000 0.504077 0.531725 -0.165560
C68   C     C_R   0.003102 0.223307 0.537325 0.024099
C69   C     C_R   0.995738 0.226878 0.461958 0.021995
C70   C     C_R   0.503099 0.723306 0.537322 0.024095
C71   C     C_R   0.739607 0.035166 0.352828 0.533790
C72   C     C_R   0.495735 0.726877 0.461956 0.022074
C73   C     C_R   0.018858 0.439933 0.538623 -0.029899
C74   C     C_R   0.995059 0.445658 0.467574 -0.024640
C75   C     C_R   0.518853 0.939933 0.538620 -0.029876
C76   C     C_R   0.495054 0.945658 0.467571 -0.024592
C77   C     C_R   0.775684 0.131210 0.643540 0.557372
C78   C     C_R   0.224081 0.131828 0.356640 0.550001
C79   C     C_R   0.275684 0.631209 0.643541 0.557919
C80   C     C_R   0.724084 0.631820 0.356637 0.549290
C81   C     C_R   0.043203 0.545961 0.572519 0.059239
C82   C     C_R   0.818707 0.061260 0.528459 -0.164679
C83   C     C_R   0.973492 0.559037 0.440450 0.061033
C84   C     C_R   0.543198 0.045962 0.572515 0.059403
C85   C     C_R   0.473487 0.059037 0.440448 0.061054
C86   C     C_R   0.025178 0.656778 0.543542 -0.119382
C87   C     C_R   0.989355 0.663096 0.479348 -0.130128
C88   C     C_R   0.525170 0.156778 0.543540 -0.119363
C89   C     C_R   0.489347 0.163096 0.479346 -0.130146
C90   C     C_R   0.742686 0.051910 0.069761 0.018789
C91   C     C_R   0.244181 0.089871 0.920032 0.016186
C92   C     C_R   0.242073 0.550356 0.069368 0.015570
C93   C     C_R   0.179514 0.066929 0.472236 -0.160827
C94   C     C_R   0.753978 0.560134 0.928083 0.020732
C95   C     C_R   0.796024 0.995460 0.031619 0.030961
C96   C     C_R   0.184523 0.052832 0.957454 0.029202
C97   C     C_R   0.293684 0.490341 0.030646 0.038947
C98   C     C_R   0.716658 0.479428 0.970530 0.043685
C99   C     C_R   0.800672 0.006017 0.959106 0.023616
C100  C     C_R   0.181331 0.063744 0.030089 0.039751
C101  C     C_R   0.297977 0.500830 0.958006 0.029609
C102  C     C_R   0.715230 0.489440 0.043431 0.017720
C103  C     C_R   0.690578 0.111947 0.956480 -0.155365
C104  C     C_R   0.318708 0.561263 0.528459 -0.164692
C105  C     C_R   0.290778 0.170176 0.031102 -0.160866
C106  C     C_R   0.190457 0.614615 0.956703 -0.164905
C107  C     C_R   0.795826 0.656462 0.036173 -0.164328
C108  C     C_R   0.686342 0.101760 0.031019 -0.153839
C109  C     C_R   0.294173 0.159935 0.956506 -0.164825
C110  C     C_R   0.186674 0.604433 0.031272 -0.160908
C111  C     C_R   0.797478 0.644692 0.961816 -0.175055
C112  C     C_3   0.873276 0.000888 0.042516 -0.279800
C113  C     C_3   0.147715 0.933445 0.959703 -0.269008
C114  C     C_3   0.371072 0.491202 0.040901 -0.278146
C115  C     C_R   0.679519 0.566915 0.472231 -0.160692
C116  C     C_3   0.641724 0.442370 0.966164 -0.265155
C117  C     C_3   0.879044 0.013266 0.962582 -0.268439
C118  C     C_3   0.144325 0.946667 0.039748 -0.279414
C119  C     C_3   0.376463 0.502753 0.960954 -0.269935
C120  C     C_3   0.640511 0.448511 0.046631 -0.269892
C121  C     C_R   0.751681 0.074550 0.920964 0.018014
C122  C     C_R   0.236625 0.112488 0.068950 0.014685
C123  C     C_R   0.250476 0.573391 0.920488 0.015989
C124  C     C_R   0.750122 0.584389 0.077210 0.014858
C125  C     C_R   0.972642 0.344689 0.647363 0.521768
C126  C     C_R   0.815565 0.061860 0.455169 -0.169024
C127  C     C_R   0.028062 0.346262 0.353241 0.518025
C128  C     C_R   0.472640 0.844689 0.647362 0.521747
C129  C     C_R   0.528061 0.846262 0.353240 0.517562
C130  C     C_R   0.020668 0.340940 0.068276 0.016549
C131  C     C_R   0.008341 0.342101 0.919861 0.018380
C132  C     C_R   0.516920 0.841466 0.069498 0.019581
C133  C     C_R   0.506546 0.841902 0.920815 0.019777
C134  C     C_R   0.025398 0.448094 0.030207 0.038815
C135  C     C_R   0.020120 0.449516 0.957617 0.032980
C136  C     C_R   0.523377 0.948212 0.031209 0.039616
Cr1   Cr    Cr6+3 0.885860 0.491680 0.749630 1.038446
Cr2   Cr    Cr6+3 0.112430 0.179310 0.249850 1.008763
Cr3   Cr    Cr6+3 0.387570 0.679310 0.750150 1.002625
Cr4   Cr    Cr6+3 0.612430 0.679310 0.249850 1.006366
Cr5   Cr    Cr6+3 0.114140 0.491680 0.250370 1.043842
Cr6   Cr    Cr6+3 0.385860 0.991680 0.749630 1.037529
Cr7   Cr    Cr6+3 0.614140 0.991680 0.250370 1.043948
Cr8   Cr    Cr6+3 0.730490 0.332970 0.748720 1.056355
Cr9   Cr    Cr6+3 0.269510 0.332970 0.251280 1.052851
Cr10  Cr    Cr6+3 0.230490 0.832970 0.748720 1.053239
Cr11  Cr    Cr6+3 0.769510 0.832970 0.251280 1.052566
Cr12  Cr    Cr6+3 0.887570 0.179310 0.750150 1.002708
H1    H     H_    0.865777 0.027835 0.553314 0.168170
H2    H     H_    0.331366 0.219061 0.059047 0.132198
H3    H     H_    0.149603 0.662629 0.928592 0.126434
H4    H     H_    0.825618 0.728610 0.060511 0.141751
H5    H     H_    0.640356 0.135283 0.058213 0.127495
H6    H     H_    0.338324 0.198325 0.928511 0.122242
H7    H     H_    0.142155 0.642357 0.059049 0.130671
H8    H     H_    0.830869 0.703552 0.930883 0.124114
H9    H     H_    0.895193 0.914584 0.062696 0.136143
H10   H     H_    0.182359 0.858413 0.942822 0.165543
H11   H     H_    0.391676 0.404098 0.061159 0.137310
H12   H     H_    0.131179 0.038382 0.447650 0.170510
H13   H     H_    0.634861 0.350256 0.944765 0.140549
H14   H     H_    0.889983 0.083073 0.072144 0.139729
H15   H     H_    0.095436 0.936364 0.933648 0.130289
H16   H     H_    0.389475 0.572581 0.070222 0.137113
H17   H     H_    0.608440 0.511986 0.940402 0.135613
H18   H     H_    0.898493 0.103183 0.946418 0.167501
H19   H     H_    0.090093 0.958197 0.060124 0.135780
H20   H     H_    0.397747 0.591160 0.944627 0.166602
H21   H     H_    0.603810 0.517680 0.066869 0.161717
H22   H     H_    0.904981 0.934794 0.936479 0.130236
H23   H     H_    0.365777 0.527838 0.553314 0.168151
H24   H     H_    0.176603 0.878960 0.068588 0.138579
H25   H     H_    0.400442 0.422562 0.934747 0.131310
H26   H     H_    0.635341 0.358654 0.072113 0.129664
H27   H     H_    0.015231 0.147024 0.927052 0.123845
H28   H     H_    0.027072 0.145980 0.057522 0.133170
H29   H     H_    0.509270 0.647065 0.928846 0.117374
H30   H     H_    0.516043 0.646813 0.059639 0.119770
H31   H     H_    0.019492 0.637006 0.062123 0.137631
H32   H     H_    0.925785 0.558107 0.941326 0.171867
H33   H     H_    0.517486 0.137568 0.062231 0.135821
H34   H     H_    0.631185 0.538367 0.447646 0.170578
H35   H     H_    0.423972 0.056130 0.941820 0.167410
H36   H     H_    0.935258 0.550810 0.067257 0.146443
H37   H     H_    0.010635 0.642073 0.935391 0.132154
H38   H     H_    0.433147 0.051732 0.067532 0.141247
H39   H     H_    0.508508 0.141520 0.935477 0.131152
H40   H     H_    0.858522 0.022599 0.425999 0.150336
H41   H     H_    0.139483 0.030694 0.575103 0.145183
H42   H     H_    0.358523 0.522604 0.425999 0.150310
H43   H     H_    0.639486 0.530686 0.575098 0.145123
H44   H     H_    0.121378 0.782693 0.436523 0.148061
H45   H     H_    0.036810 0.737793 0.572497 0.127979
H46   H     H_    0.881596 0.774019 0.564554 0.141504
H47   H     H_    0.621374 0.282681 0.436521 0.148059
H48   H     H_    0.381591 0.274030 0.564560 0.141507
H49   H     H_    0.714371 0.326861 0.419715 0.138706
H50   H     H_    0.289398 0.324190 0.580356 0.139175
H51   H     H_    0.214376 0.826868 0.419718 0.138656
H52   H     H_    0.789404 0.824182 0.580348 0.139134
H53   H     H_    0.736135 0.340968 0.543511 0.158488
H54   H     H_    0.269313 0.338619 0.456139 0.160623
H55   H     H_    0.236140 0.840971 0.543513 0.158529
H56   H     H_    0.973411 0.749349 0.460392 0.120324
H57   H     H_    0.769320 0.838607 0.456132 0.160669
H58   H     H_    0.641732 0.311347 0.561738 0.156377
H59   H     H_    0.363187 0.301367 0.438888 0.174124
H60   H     H_    0.141737 0.811355 0.561740 0.156427
H61   H     H_    0.863193 0.801353 0.438882 0.174132
H62   H     H_    0.986062 0.927682 0.427133 0.116670
H63   H     H_    0.004474 0.919273 0.558790 0.099434
H64   H     H_    0.486077 0.427678 0.427130 0.116652
H65   H     H_    0.504484 0.419275 0.558784 0.099412
H66   H     H_    0.972135 0.116390 0.368594 0.134600
H67   H     H_    0.536801 0.237792 0.572496 0.127975
H68   H     H_    0.019459 0.102114 0.627127 0.134027
H69   H     H_    0.472139 0.616385 0.368591 0.134466
H70   H     H_    0.519455 0.602114 0.627123 0.133904
H71   H     H_    0.901004 0.490188 0.355960 0.093727
H72   H     H_    0.111032 0.456665 0.654084 0.086041
H73   H     H_    0.401003 0.990187 0.355955 0.093612
H74   H     H_    0.611033 0.956668 0.654075 0.085786
H75   H     H_    0.473400 0.249348 0.460392 0.120324
H76   H     H_    0.648621 0.154984 0.927469 0.123012
O1    O     O_R   0.957020 0.451640 0.669920 -0.490239
O2    O     O_R   0.168040 0.093290 0.169870 -0.518341
O3    O     O_R   0.331960 0.593290 0.830130 -0.523944
O4    O     O_R   0.668040 0.593290 0.169870 -0.523641
O5    O     O_R   0.945600 0.250580 0.824860 -0.515830
O6    O     O_R   0.054400 0.250580 0.175140 -0.513190
O7    O     O_R   0.445600 0.750580 0.824860 -0.515540
O8    O     O_R   0.554400 0.750580 0.175140 -0.513258
O9    O     O_3   0.834640 0.334650 0.749500 -0.260293
O10   O     O_3   0.165360 0.334650 0.250500 -0.263458
O11   O     O_3   0.334640 0.834650 0.749500 -0.259192
O12   O     O_R   0.042980 0.451640 0.330080 -0.494437
O13   O     O_3   0.665360 0.834650 0.250500 -0.261340
O14   O     O_R   0.821450 0.543440 0.674610 -0.490378
O15   O     O_R   0.178550 0.543440 0.325390 -0.488620
O16   O     O_R   0.321450 0.043440 0.674610 -0.490597
O17   O     O_R   0.678550 0.043440 0.325390 -0.488630
O18   O     O_R   0.715320 0.458650 0.668100 -0.535090
O19   O     O_R   0.284680 0.458650 0.331900 -0.531547
O20   O     O_R   0.215320 0.958650 0.668100 -0.534736
O21   O     O_R   0.784680 0.958650 0.331900 -0.531508
O22   O     O_R   0.737170 0.209590 0.674530 -0.454634
O23   O     O_R   0.457020 0.951640 0.669920 -0.490166
O24   O     O_R   0.262830 0.209590 0.325470 -0.464750
O25   O     O_R   0.237170 0.709590 0.674530 -0.453798
O26   O     O_R   0.762830 0.709590 0.325470 -0.465563
O27   O     O_R   0.832710 0.092740 0.669580 -0.533993
O28   O     O_R   0.167290 0.092740 0.330420 -0.530351
O29   O     O_R   0.332710 0.592740 0.669580 -0.533718
O30   O     O_R   0.667290 0.592740 0.330420 -0.530617
O31   O     O_R   0.946290 0.250060 0.676040 -0.511414
O32   O     O_R   0.053710 0.250060 0.323960 -0.508089
O33   O     O_R   0.446290 0.750060 0.676040 -0.511465
O34   O     O_R   0.542980 0.951640 0.330080 -0.494750
O35   O     O_R   0.553710 0.750060 0.323960 -0.508220
O36   O     O_R   0.956270 0.452200 0.830470 -0.514932
O37   O     O_R   0.043730 0.452200 0.169530 -0.512287
O38   O     O_R   0.456270 0.952200 0.830470 -0.515044
O39   O     O_R   0.543730 0.952200 0.169530 -0.512562
O40   O     O_R   0.820760 0.543950 0.823440 -0.512763
O41   O     O_R   0.179240 0.543950 0.176560 -0.511218
O42   O     O_R   0.320760 0.043950 0.823440 -0.512825
O43   O     O_R   0.679240 0.043950 0.176560 -0.511017
O44   O     O_R   0.714570 0.459210 0.828640 -0.517814
O45   O     O_R   0.736470 0.210100 0.823360 -0.490368
O46   O     O_R   0.285430 0.459210 0.171360 -0.518360
O47   O     O_R   0.214570 0.959210 0.828640 -0.522393
O48   O     O_R   0.785430 0.959210 0.171360 -0.518800
O49   O     O_2   0.922876 0.664150 0.344010 -0.527195
O50   O     O_2   0.095471 0.630518 0.675234 -0.511221
O51   O     O_2   0.422871 0.164151 0.344009 -0.527182
O52   O     O_2   0.595470 0.130520 0.675226 -0.511769
O53   O     O_R   0.263530 0.210100 0.176640 -0.499230
O54   O     O_R   0.236470 0.710100 0.823360 -0.495156
O55   O     O_R   0.763530 0.710100 0.176640 -0.500538
O56   O     O_R   0.831960 0.093290 0.830130 -0.524758

loop_
_geom_bond_atom_site_label_1
_geom_bond_atom_site_label_2
_ccdc_geom_bond_type
C83   C87   A    
Cr11  O26   S    
C58   C128  S    
C88   H67   S    
Cr8   O22   S    
C33   C45   S    
C73   C74   A    
Cr7   O13   S    
C61   C68   A    
C2    H41   S    
C39   C83   S    
C74   C83   A    
C49   O15   A    
C15   O42   A    
C12   C94   S    
C12   O44   A    
C8    H36   S    
C59   H66   S    
C90   C95   A    
C25   O8    A    
Cr8   O44   S    
C118  H19   S    
C45   H52   S    
Cr6   O16   S    
C105  H2    S    
C48   H55   S    
C19   C123  S    
C34   C51   A    
C101  C123  A    
C31   C43   S    
Cr8   O9    S    
C11   H39   S    
C16   C90   S    
C63   H70   S    
C39   H71   S    
Cr10  O47   S    
Cr4   O35   S    
C10   C136  S    
Cr12  O9    S    
C6    C133  A    
C9    H37   S    
C95   C112  S    
C86   H45   S    
C26   C126  A    
C112  C117  S    
C25   O39   A    
C102  C124  A    
C120  H21   S    
C119  H20   S    
C48   H60   S    
C113  H15   S    
C94   C98   A    
C22   O37   A    
C29   C33   A    
C94   C111  A    
C78   O28   A    
Cr9   O19   S    
C36   C47   S    
Cr3   O3    S    
C77   O22   A    
C12   O40   A    
Cr1   O14   S    
Cr2   O2    S    
C19   O3    A    
C24   C29   A    
C21   C131  S    
Cr1   O1    S    
C110  H7    S    
C18   O2    A    
C16   O48   A    
C91   C96   A    
C68   C69   A    
C55   C74   A    
C114  H16   S    
C117  H22   S    
C46   H53   S    
C82   C126  A    
C108  H5    S    
C50   H61   S    
Cr5   O10   S    
C4    H27   S    
Cr8   O18   S    
C106  C123  A    
C92   C97   A    
C78   O24   A    
Cr11  O21   S    
Cr7   O17   S    
C13   C28   A    
C127  O12   A    
C2    C27   A    
C34   C46   S    
C61   H68   S    
C40   O50   D    
C113  H10   S    
C24   H43   S    
C111  H8    S    
C100  C122  A    
C81   C86   A    
C41   O51   D    
C14   O41   A    
C35   H47   S    
C99   C121  A    
C37   C53   A    
C39   O49   D    
C125  O31   A    
C66   C67   A    
C38   C54   A    
Cr5   O15   S    
C80   O26   A    
Cr9   O10   S    
C40   H72   S    
C20   C124  S    
C26   C71   S    
C79   O25   A    
C64   H62   S    
C130  C134  A    
Cr7   O34   S    
C107  C111  A    
C107  C124  A    
C15   O47   A    
C17   O56   A    
C28   C32   A    
C73   C81   A    
C49   O19   A    
C58   C75   A    
C4    C131  A    
C54   C80   S    
Cr11  O13   S    
C32   C44   S    
C114  H11   S    
C63   C67   A    
Cr4   O4    S    
C25   C132  S    
C60   O20   A    
C112  H9    S    
C30   C34   A    
Cr10  O25   S    
C8    C134  S    
C127  O32   A    
C101  C119  S    
C62   H69   S    
C35   H49   S    
C116  H13   S    
Cr2   O6    S    
C42   C84   S    
C71   O17   A    
C17   O45   A    
C129  O34   A    
C10   C11   S    
C62   C66   A    
C86   C87   A    
C8    C9    S    
Cr10  O54   S    
C95   C99   A    
C23   O38   A    
C23   C133  S    
C56   C68   A    
Cr4   O30   S    
C27   C31   A    
C70   C72   A    
C13   H42   S    
Cr12  O56   S    
C47   H54   S    
C43   H48   S    
C3    C133  A    
Cr5   O41   S    
C75   C84   A    
C93   H12   S    
C75   C76   A    
C51   C77   S    
Cr11  O48   S    
C61   C65   A    
C103  H76   S    
C99   C117  S    
C18   O53   A    
C28   C49   S    
C131  C135  A    
C98   C116  S    
C22   O6    A    
C63   C70   A    
C118  H24   S    
C117  H18   S    
C132  C136  A    
C21   O5    A    
C54   C115  A    
Cr2   O32   S    
C1    C29   S    
C79   O29   A    
C11   H35   S    
C52   C93   A    
C32   C37   A    
C88   C89   A    
C37   C48   S    
C109  H6    S    
C51   C82   A    
C14   C92   S    
C7    C132  A    
C55   C69   A    
C9    H32   S    
C80   O30   A    
C18   C122  S    
C104  H23   S    
C60   O16   A    
C107  H4    S    
C9    C135  S    
C120  H26   S    
Cr6   O11   S    
C55   C127  S    
Cr6   O38   S    
C26   C30   A    
C57   C76   A    
C41   C85   S    
C59   C69   A    
C6    H29   S    
Cr3   O11   S    
Cr12  O31   S    
C52   C78   S    
C5    H28   S    
C96   C113  S    
Cr2   O10   S    
C90   C108  A    
C100  C118  S    
C71   O21   A    
C66   H64   S    
C103  C121  A    
C19   O54   A    
C30   C35   S    
C87   H56   S    
C22   C130  S    
C115  H34   S    
C102  C120  S    
C125  O1    A    
C106  C110  A    
Cr1   O36   S    
C17   C121  S    
C45   H46   S    
C46   H58   S    
C105  C109  A    
Cr10  O11   S    
C5    C130  A    
Cr12  O27   S    
C85   C89   A    
C56   C73   A    
Cr9   O24   S    
Cr3   O29   S    
C50   H57   S    
C128  O23   A    
Cr5   O37   S    
C40   C81   S    
C2    C93   A    
Cr9   O53   S    
Cr6   O42   S    
C4    C5    A    
C129  O35   A    
C36   C52   A    
C89   H75   S    
Cr11  O55   S    
C14   O46   A    
C21   O36   A    
Cr4   O8    S    
C134  C135  A    
C38   C50   S    
C1    O14   A    
C3    C11   S    
C112  H14   S    
C96   C100  A    
Cr2   O28   S    
C33   C38   A    
C20   O4    A    
C47   H59   S    
C27   C60   S    
C53   C79   S    
C128  O33   A    
C91   C109  A    
C126  H40   S    
Cr8   O45   S    
C42   O52   D    
C59   C64   A    
C98   C102  A    
C119  H25   S    
C58   C70   A    
C16   O43   A    
C8    H31   S    
C92   C110  A    
C84   C88   A    
C43   C47   S    
C45   C50   S    
Cr5   O12   S    
Cr3   O33   S    
C64   C65   A    
Cr4   O13   S    
C10   H38   S    
C105  C122  A    
C6    C7    A    
C43   H50   S    
Cr7   O43   S    
C57   C72   A    
C116  H17   S    
C23   O7    A    
C62   C72   A    
C65   H63   S    
C82   H1    S    
C67   H65   S    
C1    O18   A    
C15   C91   S    
C113  C118  S    
Cr1   O40   S    
C116  C120  S    
C106  H3    S    
C20   O55   A    
Cr7   O39   S    
C77   O27   A    
C7    H30   S    
C44   H51   S    
C56   C125  S    
Cr6   O23   S    
C44   H44   S    
C41   H73   S    
Cr10  O20   S    
C24   C115  A    
C13   C104  A    
C10   H33   S    
C57   C129  S    
C31   C36   A    
Cr9   O46   S    
C103  C108  A    
Cr3   O7    S    
Cr12  O5    S    
C53   C104  A    
C3    C136  A    
C97   C114  S    
C42   H74   S    
C35   C46   S    
Cr1   O9    S    
C76   C85   A    
C97   C101  A    
C44   C48   S    
C114  C119  S    
