data_str_m9_o4_o2_f0_sra.sym.13
_audit_creation_date              2012-12-11T17:07:26-0500
_audit_creation_method            fapswitch 2.2
_symmetry_space_group_name_H-M    P1
_symmetry_Int_Tables_number       1
_space_group_crystal_system       triclinic
_cell_length_a                    6.962776
_cell_length_b                    14.493519
_cell_length_c                    16.085677
_cell_angle_alpha                 89.952288
_cell_angle_beta                  90.014051
_cell_angle_gamma                 89.947437
_cell_volume                      1623.28683021

loop_
_atom_site_label
_atom_site_type_symbol
_atom_type_description
_atom_site_fract_x
_atom_site_fract_y
_atom_site_fract_z
_atom_type_partial_charge
O1    O     O_R   0.505720 0.583900 0.413310 -0.543249
O2    O     O_R   0.175940 0.594920 0.586080 -0.526400
O3    O     O_R   0.005640 0.416100 0.586690 -0.545349
C1    C     C_R   0.344623 0.616862 0.614874 0.722448
O4    O     O_R   0.176000 0.594930 0.413930 -0.511302
O5    O     O_R   0.005700 0.416110 0.413310 -0.538871
C2    C     C_R   0.344523 0.616591 0.384946 0.815774
O6    O     O_R   0.505660 0.583890 0.586690 -0.539118
O7    O     O_3   0.339200 0.441330 0.500000 -0.388007
V1    V     V_3+5 0.064350 0.510880 0.500000 1.527821
O8    O     O_R   0.675980 0.405080 0.413920 -0.547615
C3    C     C_R   0.845043 0.382592 0.385617 0.706950
O9    O     O_R   0.675920 0.405070 0.586070 -0.544235
C4    C     C_R   0.844809 0.382934 0.614333 0.674631
V2    V     V_3+5 0.564340 0.489120 0.500000 1.458129
O10   O     O_3   0.839360 0.558670 0.500000 -0.345797
H1    H     H_    0.109602 0.090023 0.512719 0.135847
C5    C     C_R   0.725253 0.429830 0.781098 -0.156781
C6    C     C_R   0.672628 0.455802 0.861238 -0.099775
C7    C     C_R   0.688727 0.393375 0.926461 -0.100681
C8    C     C_R   0.755555 0.304136 0.911944 -0.145646
C9    C     C_R   0.809212 0.275569 0.831105 0.070265
C10   C     C_R   0.795159 0.339993 0.764407 0.069307
C11   C     C_R   0.881150 0.185425 0.816543 -0.178211
C12   C     C_R   0.944243 0.160710 0.735664 0.039568
C13   C     C_R   0.930284 0.225171 0.668994 0.069501
C14   C     C_R   0.855005 0.314707 0.683291 -0.172814
C15   C     C_R   0.019947 0.071884 0.719349 -0.100242
C16   C     C_R   0.079370 0.047119 0.639728 -0.049803
C17   C     C_R   0.064202 0.109743 0.574577 -0.123938
C18   C     C_R   0.990253 0.197729 0.588633 -0.139490
H2    H     H_    0.712426 0.481325 0.732758 0.102668
H3    H     H_    0.620796 0.525062 0.872877 0.149103
H4    H     H_    0.650780 0.414600 0.988751 0.126910
H5    H     H_    0.767705 0.258500 0.964940 0.091905
H6    H     H_    0.034225 0.020575 0.767765 0.165183
H7    H     H_    0.136859 0.978808 0.628521 0.165257
H8    H     H_    0.979843 0.243591 0.535716 0.097987
C19   C     C_R   0.730478 0.251053 0.187357 0.088357
C20   C     C_R   0.881870 0.187491 0.181468 -0.123555
C21   C     C_R   0.030884 0.194801 0.240483 -0.137912
H9    H     H_    0.151789 0.148025 0.238028 0.134192
C22   C     C_R   0.019689 0.258707 0.306380 -0.170666
H10   H     H_    0.133089 0.259921 0.352346 0.121298
C23   C     C_R   0.857688 0.316105 0.315946 -0.094340
C24   C     C_R   0.717937 0.312870 0.253480 0.091916
C25   C     C_3   0.505525 0.302266 0.260024 -0.400781
C26   C     C_3   0.518312 0.235852 0.186611 -0.043501
H11   H     H_    0.428404 0.367924 0.246910 0.190073
H12   H     H_    0.463389 0.267721 0.318931 0.151275
H13   H     H_    0.478819 0.163558 0.202128 0.153456
C27   C     C_R   0.509267 0.747257 0.689488 -0.062918
C28   C     C_R   0.352742 0.687224 0.681575 -0.139451
C29   C     C_R   0.202376 0.696253 0.739549 -0.079306
H14   H     H_    0.080172 0.650472 0.736602 0.131205
C30   C     C_R   0.215076 0.759684 0.805686 -0.072156
H15   H     H_    0.102901 0.761440 0.851865 0.213666
C31   C     C_R   0.377584 0.816068 0.815781 -0.127252
C32   C     C_R   0.521539 0.809961 0.755390 -0.062180
C33   C     C_3   0.728970 0.789454 0.767572 0.996364
C34   C     C_3   0.717072 0.723556 0.694659 0.420683
H16   H     H_    0.744334 0.650067 0.710400 -0.002258
C35   C     C_R   0.491150 0.755437 0.316048 -0.066219
C36   C     C_R   0.351356 0.686014 0.317423 -0.277831
C37   C     C_R   0.212243 0.686879 0.253465 0.506174
C38   C     C_R   0.224511 0.750738 0.187336 0.552453
C39   C     C_R   0.376560 0.815138 0.183342 -0.342295
C40   C     C_R   0.503183 0.818385 0.250891 -0.011017
C41   C     C_3   0.717271 0.817746 0.253121 0.513292
C42   C     C_3   0.704014 0.749437 0.324778 -0.360617
H17   H     H_    0.783464 0.789602 0.195728 0.136171
H18   H     H_    0.754728 0.777753 0.385115 0.221075
H19   H     H_    0.759613 0.679770 0.309155 0.195459
O11   O     O_R   0.229140 0.916090 0.913340 -0.537182
O12   O     O_R   0.558860 0.905090 0.086080 -0.540025
O13   O     O_R   0.729100 0.083920 0.086690 -0.545945
C43   C     C_R   0.389821 0.882480 0.114308 0.809807
O14   O     O_R   0.558860 0.905090 0.913930 -0.508375
O15   O     O_R   0.729100 0.083920 0.913310 -0.540604
C44   C     C_R   0.389895 0.882679 0.885497 0.745884
O16   O     O_R   0.229140 0.916080 0.086720 -0.507385
O17   O     O_3   0.395570 0.058660 0.000020 -0.400868
V3    V     V_3+5 0.670450 0.989140 0.000000 1.571609
O18   O     O_R   0.058810 0.094980 0.913910 -0.550512
C45   C     C_R   0.890126 0.116986 0.885483 0.688547
O19   O     O_R   0.058810 0.094980 0.086060 -0.552496
C46   C     C_R   0.889956 0.117177 0.114670 0.708566
V4    V     V_3+5 0.170450 0.010950 0.999970 1.505121
O20   O     O_3   0.895460 0.941370 0.999990 -0.331525
C47   C     C_3   0.423653 0.272529 0.107295 -0.712008
H20   H     H_    0.468605 0.230260 0.053273 0.212548
H21   H     H_    0.265229 0.268682 0.113141 0.216943
H22   H     H_    0.464197 0.345468 0.095658 0.206900
F1    F     F_    0.763550 0.745505 0.842561 -0.742460
F2    F     F_    0.844309 0.865567 0.753789 -0.682994
F3    F     F_    0.816079 0.754652 0.625469 -0.640738
F4    F     F_    0.073750 0.621112 0.251069 -0.681632
F5    F     F_    0.096106 0.744796 0.124054 -0.656785
F6    F     F_    0.789934 0.902325 0.277617 -0.669174

loop_
_geom_bond_atom_site_label_1
_geom_bond_atom_site_label_2
_ccdc_geom_bond_type
C1    C28   S    
C21   H9    S    
C6    C7    A    
C39   C43   S    
C1    O6    A    
C34   F3    S    
C25   H11   S    
C28   C29   A    
C12   C15   A    
C13   C14   A    
C20   C46   S    
C15   C16   A    
C27   C34   S    
O5    C3    A    
C17   C18   A    
O19   V4    S    
V2    O10   S    
C30   H15   S    
C5    C6    A    
C41   H17   S    
C24   C25   S    
O8    V2    S    
O14   V3    S    
C26   H13   S    
C40   C41   S    
O1    V2    S    
C10   C14   A    
C4    C14   S    
O7    V1    S    
C31   C44   S    
C7    H4    S    
C38   C39   A    
C32   C33   S    
C26   C47   S    
O9    C4    A    
H1    C17   S    
C21   C22   A    
C41   C42   S    
O13   V3    S    
C25   H12   S    
V3    O20   S    
C29   C30   A    
C39   C40   A    
C11   C12   A    
C6    H3    S    
C19   C20   A    
O4    C2    A    
O19   C46   A    
C31   C32   A    
C23   C24   A    
C5    C10   A    
C33   C34   S    
O2    C1    A    
C22   H10   S    
C16   C17   A    
C27   C32   A    
O12   C43   A    
C47   H21   S    
C25   C26   S    
C35   C42   S    
C43   O16   A    
C7    C8    A    
C42   H19   S    
O18   C45   A    
C22   C23   A    
O13   C46   A    
O3    C4    A    
C19   C24   A    
C41   F6    S    
C20   C21   A    
O17   V3    S    
O6    V2    S    
O9    V2    S    
C9    C11   A    
C5    H2    S    
O2    V1    S    
O15   C45   A    
C27   C28   A    
C47   H22   S    
C11   C45   S    
C29   H14   S    
O1    C2    A    
O18   V4    S    
C3    C23   S    
O5    V1    S    
C42   H18   S    
O8    C3    A    
C8    H5    S    
C35   C40   A    
C18   H8    S    
C36   C37   A    
C38   F5    S    
C12   C13   A    
C37   F4    S    
O4    V1    S    
O3    V1    S    
V1    O10   S    
O15   V3    S    
O12   V3    S    
C47   H20   S    
O17   V4    S    
C30   C31   A    
O14   C44   A    
O7    V2    S    
C34   H16   S    
C2    C36   S    
O16   V4    S    
C35   C36   A    
C33   F2    S    
C13   C18   A    
V4    O20   S    
C15   H6    S    
C37   C38   A    
C16   H7    S    
C9    C10   A    
O11   C44   A    
O11   V4    S    
C8    C9    A    
C19   C26   S    
C33   F1    S    
