data_str_m3_o12_o23_f0_pcu.sym.124
_audit_creation_date              2012-12-10T17:22:02-0500
_audit_creation_method            fapswitch 2.2
_symmetry_space_group_name_H-M    P1
_symmetry_Int_Tables_number       1
_space_group_crystal_system       triclinic
_cell_length_a                    10.299776
_cell_length_b                    11.058627
_cell_length_c                    15.715485
_cell_angle_alpha                 90.924116
_cell_angle_beta                  82.721365
_cell_angle_gamma                 94.127128
_cell_volume                      1770.94217787

loop_
_atom_site_label
_atom_site_type_symbol
_atom_type_description
_atom_site_fract_x
_atom_site_fract_y
_atom_site_fract_z
_atom_type_partial_charge
C1    C     C_R   0.552627 0.731339 0.490498 0.906561
C2    C     C_2   0.471339 0.934257 0.476979 0.073699
C3    C     C_2   0.416215 0.147887 0.472867 -0.198795
C4    C     C_R   0.502121 0.502014 0.660956 0.889303
C5    C     C_2   0.498254 0.064385 0.489225 -0.300408
C6    C     C_2   0.927002 0.518370 0.501601 -0.151735
C7    C     C_2   0.073690 0.507089 0.483866 -0.113372
C8    C     C_R   0.445542 0.270234 0.499963 0.837757
C9    C     C_R   0.497660 0.497512 0.338712 0.895911
C10   C     C_3   0.373177 0.529764 0.956438 -0.489902
C11   C     C_3   0.622150 0.522120 0.945367 -0.440362
C12   C     C_3   0.356964 0.537811 0.058338 0.049837
C13   C     C_3   0.607881 0.532415 0.043260 -0.281075
C14   C     C_1   0.488423 0.483010 0.250616 -0.169235
C15   C     C_3   0.495183 0.462881 0.915240 0.163525
C16   C     C_R   0.366717 0.677060 0.086205 0.123345
C17   C     C_R   0.295948 0.720384 0.163030 -0.142291
C18   C     C_R   0.309025 0.841046 0.188706 -0.174884
C19   C     C_R   0.397716 0.922109 0.142335 -0.070722
C20   C     C_R   0.464225 0.886686 0.064821 -0.050630
C21   C     C_R   0.444818 0.768124 0.035243 -0.201155
C22   C     C_R   0.217329 0.484927 0.098638 0.074425
C23   C     C_3   0.475963 0.460623 0.083996 0.086558
C24   C     C_R   0.108668 0.480241 0.052151 -0.155585
C25   C     C_R   0.997747 0.405050 0.079322 -0.053456
C26   C     C_R   0.979050 0.356401 0.161538 -0.055240
C27   C     C_R   0.069846 0.386597 0.217144 -0.070413
C28   C     C_R   0.186849 0.451130 0.186612 -0.073039
C29   C     C_R   0.591051 0.255786 0.081784 0.087320
C30   C     C_R   0.572253 0.207643 0.166856 -0.190437
C31   C     C_R   0.656915 0.127915 0.194681 -0.157877
C32   C     C_R   0.766147 0.096413 0.140225 -0.130371
C33   C     C_R   0.797597 0.154626 0.061886 -0.139792
C34   C     C_3   0.474910 0.319382 0.045756 -0.089051
C35   C     C_R   0.716213 0.239728 0.036038 -0.126922
C36   C     C_R   0.330099 0.888824 0.476500 0.213335
C37   C     C_R   0.233795 0.923887 0.542315 -0.199967
C38   C     C_R   0.101070 0.890706 0.538628 -0.129557
C39   C     C_R   0.063091 0.820867 0.470053 -0.107461
C40   C     C_R   0.157784 0.783466 0.405324 -0.162471
C41   C     C_R   0.290606 0.818099 0.407926 -0.042680
C42   C     C_2   0.315131 0.129527 0.413262 0.934920
C43   C     C_R   0.111250 0.566917 0.623642 0.267385
C44   C     C_R   0.029025 0.476716 0.670513 -0.172731
C45   C     C_3   0.473898 0.322932 0.939300 -0.090214
C46   C     C_R   0.992611 0.490628 0.758727 -0.138051
C47   C     C_R   0.040489 0.592444 0.801729 -0.116305
C48   C     C_R   0.126847 0.679269 0.756887 -0.186681
C49   C     C_R   0.163248 0.665627 0.668651 -0.119763
C50   C     C_2   0.739935 0.535828 0.077671 0.892425
C51   C     C_R   0.349109 0.270009 0.894296 0.151716
C52   C     C_R   0.216805 0.265377 0.932850 -0.132127
C53   C     C_R   0.111385 0.235999 0.886483 -0.158367
C54   C     C_R   0.133018 0.205349 0.800181 -0.092269
C55   C     C_R   0.260467 0.205019 0.759566 -0.133061
C56   C     C_1   0.479242 0.469461 0.176036 -0.072596
C57   C     C_R   0.365911 0.237272 0.804968 -0.113449
C58   C     C_2   0.581228 0.246343 0.894017 0.852413
C59   C     C_2   0.358457 0.232503 0.080545 0.843422
C60   C     C_1   0.504480 0.482191 0.823792 0.002025
C61   C     C_1   0.505130 0.494942 0.749129 -0.155826
C62   C     C_2   0.573251 0.862522 0.479562 -0.424824
H1    H     H_    0.288861 0.483982 0.931099 0.166959
H2    H     H_    0.595795 0.627269 0.058369 0.167350
H3    H     H_    0.227293 0.665468 0.205065 0.126053
H4    H     H_    0.249789 0.871951 0.245177 0.155200
H5    H     H_    0.410382 0.013682 0.165255 0.193205
H6    H     H_    0.530670 0.951411 0.027160 0.209617
H7    H     H_    0.501018 0.748173 0.974764 0.136880
H8    H     H_    0.109999 0.526545 0.992175 0.143702
H9    H     H_    0.926065 0.387225 0.036074 0.128898
H10   H     H_    0.891020 0.302151 0.184502 0.147843
H11   H     H_    0.051795 0.357025 0.283184 0.123127
H12   H     H_    0.581910 0.091472 0.522993 0.181741
H13   H     H_    0.250970 0.471541 0.233868 0.139959
H14   H     H_    0.488911 0.227386 0.212300 0.200702
H15   H     H_    0.635981 0.088878 0.258109 0.178908
H16   H     H_    0.830631 0.032659 0.160764 0.149309
H17   H     H_    0.888075 0.136644 0.022774 0.134334
H18   H     H_    0.753805 0.291533 0.980064 0.117616
H19   H     H_    0.261574 0.978142 0.595968 0.127727
H20   H     H_    0.027758 0.918810 0.589161 0.138233
H21   H     H_    0.960333 0.794907 0.467399 0.139380
H22   H     H_    0.127991 0.727753 0.352999 0.127988
H23   H     H_    0.672686 0.903030 0.479287 0.150932
H24   H     H_    0.363173 0.789608 0.357031 0.128901
H25   H     H_    0.271403 0.072232 0.297800 0.343928
H26   H     H_    0.994419 0.394973 0.639091 0.147271
H27   H     H_    0.928577 0.421743 0.793967 0.163305
H28   H     H_    0.012264 0.603096 0.869966 0.162134
H29   H     H_    0.167001 0.756434 0.790683 0.149678
H30   H     H_    0.234866 0.730291 0.635871 0.156162
H31   H     H_    0.708742 0.415454 0.175069 0.314797
H32   H     H_    0.191640 0.286750 0.998552 0.152340
H33   H     H_    0.011972 0.239336 0.917196 0.115496
H34   H     H_    0.111861 0.464761 0.424025 0.161395
H35   H     H_    0.050976 0.183024 0.764647 0.123166
H36   H     H_    0.278058 0.182396 0.691981 0.129799
H37   H     H_    0.461542 0.239860 0.767509 0.143411
H38   H     H_    0.742567 0.234185 0.807377 0.331848
H39   H     H_    0.253435 0.074509 0.063735 0.340921
H40   H     H_    0.890310 0.586981 0.546724 0.173963
H41   H     H_    0.370266 0.618950 0.926090 0.176103
H42   H     H_    0.880493 0.384695 0.422923 0.174043
H43   H     H_    0.707795 0.470476 0.921971 0.214409
H44   H     H_    0.645823 0.613998 0.917088 0.188100
N1    N     N_2   0.842720 0.448890 0.465540 -0.194520
N2    N     N_2   0.157250 0.551040 0.534500 -0.135945
O1    O     O_R   0.431050 0.692470 0.506940 -0.625630
O2    O     O_R   0.345846 0.072382 0.334230 -0.842579
O3    O     O_2   0.831768 0.595684 0.037953 -0.617124
O4    O     O_R   0.757441 0.495140 0.158657 -0.764859
O5    O     O_2   0.573719 0.136860 0.906628 -0.601865
O6    O     O_R   0.681040 0.296364 0.833223 -0.863506
O7    O     O_2   0.295032 0.248563 0.149948 -0.672813
O8    O     O_R   0.336453 0.122270 0.037908 -0.785953
O9    O     O_R   0.651130 0.659650 0.484820 -0.611421
O10   O     O_R   0.389910 0.516410 0.633920 -0.612701
O11   O     O_R   0.609990 0.483590 0.611800 -0.598807
O12   O     O_R   0.348870 0.340350 0.515180 -0.583710
O13   O     O_R   0.568950 0.307530 0.493060 -0.612129
O14   O     O_R   0.390010 0.516410 0.388200 -0.636979
O15   O     O_R   0.610090 0.483590 0.366080 -0.582895
O16   O     O_2   0.207240 0.169228 0.431748 -0.625885
Zn1   Zn    Zn3+2 0.353060 0.521920 0.514770 0.958082
Zn2   Zn    Zn3+2 0.646940 0.478080 0.485230 0.963674

loop_
_geom_bond_atom_site_label_1
_geom_bond_atom_site_label_2
_ccdc_geom_bond_type
C14   C56   T    
C3    C42   S    
C16   C21   A    
C53   H33   S    
C26   H10   S    
C15   C60   S    
C40   H22   S    
C19   C20   A    
C43   C44   A    
C37   H19   S    
C1    C62   S    
C10   H1    S    
C42   O16   D    
C23   C56   S    
H25   O2    S    
C53   C54   A    
C7    H34   S    
C12   C23   S    
C26   C27   A    
C37   C38   A    
C10   H41   S    
C10   C15   S    
C30   C31   A    
C33   C35   A    
C8    O13   A    
C45   C51   S    
C57   H37   S    
C12   C22   S    
C35   H18   S    
C13   C23   S    
C18   C19   A    
C5    H12   S    
C1    O1    A    
C46   C47   A    
C11   C15   S    
C12   C16   S    
C59   O8    S    
C48   H29   S    
C11   H43   S    
C58   O5    D    
C6    N1    D    
C54   H35   S    
C19   H5    S    
C25   H9    S    
O10   Zn1   S    
N2    Zn1   S    
O9    Zn2   S    
C22   C28   A    
C38   H20   S    
C4    O10   A    
C36   C41   A    
C44   C46   A    
C31   H15   S    
C38   C39   A    
C62   H23   S    
C45   C58   S    
C24   H8    S    
C51   C52   A    
H38   O6    S    
C24   C25   A    
C3    C8    S    
C39   C40   A    
C46   H27   S    
O12   Zn1   S    
C33   H17   S    
O15   Zn2   S    
C25   C26   A    
C4    C61   S    
C21   H7    S    
C60   C61   T    
C9    C14   S    
C29   C30   A    
C41   H24   S    
C30   H14   S    
C47   C48   A    
C23   C34   S    
C11   H44   S    
C50   O4    S    
C17   C18   A    
C4    O11   A    
C34   C45   S    
C1    O9    A    
C52   H32   S    
C10   C12   S    
C51   C57   A    
O1    Zn1   S    
C40   C41   A    
C55   C57   A    
C34   C59   S    
C47   H28   S    
C22   C24   A    
C2    C5    S    
C15   C45   S    
C49   H30   S    
C9    O14   A    
C52   C53   A    
C8    O12   A    
C2    C36   S    
C54   C55   A    
C36   C37   A    
C20   H6    S    
C31   C32   A    
C43   C49   A    
N1    Zn2   S    
C3    C5    D    
C6    C7    S    
C18   H4    S    
C29   C35   A    
C17   H3    S    
C32   C33   A    
O14   Zn1   S    
C42   O2    S    
C39   H21   S    
O13   Zn2   S    
C27   H11   S    
C11   C13   S    
C16   C17   A    
C13   H2    S    
C48   C49   A    
C29   C34   S    
C55   H36   S    
C50   O3    D    
C9    O15   A    
C43   N2    S    
C6    H40   S    
H31   O4    S    
C32   H16   S    
C13   C50   S    
O11   Zn2   S    
C20   C21   A    
C59   O7    D    
C27   C28   A    
C58   O6    S    
H39   O8    S    
C7    N2    D    
C44   H26   S    
C28   H13   S    
H42   N1    S    
C2    C62   D    
