data_str_m3_o41_o41_f0_fof.sym.18
_audit_creation_date              2012-12-10T16:39:32-0500
_audit_creation_method            fapswitch 2.2
_symmetry_space_group_name_H-M    P1
_symmetry_Int_Tables_number       1
_space_group_crystal_system       triclinic
_cell_length_a                    16.810479
_cell_length_b                    16.882369
_cell_length_c                    16.823441
_cell_angle_alpha                 65.843231
_cell_angle_beta                  65.389402
_cell_angle_gamma                 66.088349
_cell_volume                      3798.54673524

loop_
_atom_site_label
_atom_site_type_symbol
_atom_type_description
_atom_site_fract_x
_atom_site_fract_y
_atom_site_fract_z
_atom_type_partial_charge
C1    C     C_R   0.329508 0.934913 0.463341 -0.023167
C2    C     C_R   0.315094 0.428905 0.002496 -0.035742
C3    C     C_R   0.551561 0.424826 0.963927 -0.008563
C4    C     C_R   0.038261 0.449958 0.571203 -0.008350
C5    C     C_R   0.962856 0.551192 0.424093 -0.006056
C6    C     C_3   0.301248 0.798561 0.324159 -0.245811
C7    C     C_3   0.745232 0.104703 0.746001 -0.120100
C8    C     C_3   0.900350 0.250273 0.252686 -0.115054
C9    C     C_3   0.195817 0.687462 0.675764 -0.240286
C10   C     C_3   0.240966 0.240984 0.925813 -0.081708
C11   C     C_3   0.668787 0.686821 0.199754 -0.262418
C12   C     C_R   0.999355 0.684850 0.567384 -0.034033
C13   C     C_R   0.001004 0.316082 0.428821 -0.034731
C14   C     C_R   0.461816 0.964654 0.461406 0.028088
C15   C     C_R   0.544893 0.013084 0.543972 0.030263
C16   C     C_R   0.989628 0.456044 0.449222 0.029815
C17   C     C_R   0.010472 0.545057 0.546907 0.028836
C18   C     C_R   0.455523 0.450141 0.990324 0.028831
C19   C     C_R   0.544422 0.549937 0.008098 0.029037
C20   C     C_R   0.975883 0.177557 0.431504 0.947573
C21   C     C_R   0.673208 0.052146 0.539084 -0.014185
C22   C     C_R   0.021957 0.823040 0.568952 0.921670
C23   C     C_R   0.177312 0.431462 0.976399 0.933672
C24   C     C_R   0.822761 0.568800 0.022661 0.933094
C25   C     C_R   0.437692 0.961895 0.179615 0.923726
C26   C     C_R   0.562924 0.036287 0.820283 0.915416
C27   C     C_R   0.561087 0.820628 0.038897 0.910381
C28   C     C_R   0.439498 0.179212 0.959605 0.909569
C29   C     C_R   0.039402 0.561239 0.820186 0.928645
C30   C     C_R   0.958923 0.439280 0.179610 0.883445
C31   C     C_R   0.820153 0.038745 0.561577 0.913993
C32   C     C_R   0.942651 0.459810 0.327352 -0.014678
C33   C     C_R   0.179680 0.960161 0.438745 0.921249
C34   C     C_R   0.417381 0.946865 0.417520 0.069991
C35   C     C_R   0.587494 0.035096 0.586520 0.053758
C36   C     C_R   0.976692 0.410915 0.402575 0.073322
C37   C     C_R   0.022584 0.589979 0.594434 0.067247
C38   C     C_R   0.410550 0.402144 0.978836 0.069221
C39   C     C_R   0.589322 0.597553 0.019931 0.074510
C40   C     C_R   0.280176 0.933237 0.412053 -0.254087
C41   C     C_R   0.719989 0.061578 0.588400 -0.186343
C42   C     C_R   0.935785 0.410758 0.279433 -0.195714
C43   C     C_R   0.054809 0.540844 0.671171 -0.021675
C44   C     C_R   0.059605 0.590159 0.720438 -0.246832
C45   C     C_R   0.410493 0.277673 0.939547 -0.193302
C46   C     C_R   0.589277 0.721944 0.058610 -0.259287
C47   C     C_R   0.590977 0.056290 0.720906 -0.196912
C48   C     C_R   0.410297 0.936634 0.279552 -0.246336
C49   C     C_R   0.727223 0.606550 0.027084 -0.228892
C50   C     C_R   0.272290 0.392614 0.972741 -0.232390
C51   C     C_R   0.027295 0.727711 0.605369 -0.234552
C52   C     C_R   0.970774 0.272954 0.393403 -0.221095
C53   C     C_R   0.454313 0.030205 0.718247 -0.126252
C54   C     C_R   0.460081 0.325626 0.946552 -0.013609
C55   C     C_R   0.550926 0.949247 0.286319 -0.152587
C56   C     C_R   0.951614 0.733056 0.501883 -0.153377
C57   C     C_R   0.051149 0.268136 0.491912 -0.159414
C58   C     C_R   0.734004 0.506996 0.946928 -0.155968
C59   C     C_R   0.266034 0.493205 0.051917 -0.156507
C60   C     C_R   0.295902 0.922296 0.558771 -0.163226
C61   C     C_R   0.706319 0.063878 0.443474 -0.132558
C62   C     C_R   0.556495 0.300242 0.921820 -0.135374
C63   C     C_R   0.443806 0.699306 0.077416 -0.157186
C64   C     C_R   0.915758 0.555088 0.303089 -0.150005
C65   C     C_R   0.539813 0.674225 0.051831 -0.016190
C66   C     C_R   0.083800 0.445502 0.693751 -0.131186
C67   C     C_R   0.326713 0.918509 0.327060 0.427736
C68   C     C_R   0.672530 0.078627 0.671969 0.396924
C69   C     C_R   0.930790 0.323102 0.323374 0.416122
C70   C     C_R   0.065439 0.677338 0.676324 0.425458
C71   C     C_R   0.322014 0.320022 0.935918 0.410854
C72   C     C_R   0.675949 0.676949 0.066335 0.441106
C73   C     C_R   0.663383 0.044875 0.399375 -0.000289
C74   C     C_R   0.340557 0.936966 0.604378 0.004309
C75   C     C_R   0.078161 0.399425 0.643028 0.016716
C76   C     C_R   0.544163 0.039756 0.676738 -0.016444
C77   C     C_R   0.925273 0.601700 0.350545 0.008469
C78   C     C_R   0.397180 0.650614 0.069650 0.004044
C79   C     C_R   0.603037 0.348943 0.930003 0.003598
C80   C     C_R   0.586980 0.984799 0.321147 -0.012526
C81   C     C_R   0.419202 0.992966 0.684053 -0.014120
C82   C     C_R   0.308247 0.546611 0.057619 0.004319
C83   C     C_R   0.691863 0.453983 0.940683 0.003898
C84   C     C_R   0.058952 0.310711 0.543516 0.005621
C85   C     C_R   0.945079 0.690492 0.449414 0.000400
C86   C     C_R   0.696045 0.056063 0.303971 0.136666
C87   C     C_R   0.460043 0.943949 0.326698 -0.031110
C88   C     C_R   0.305556 0.927569 0.699290 0.135614
C89   C     C_R   0.110445 0.303978 0.662756 0.146937
C90   C     C_R   0.900353 0.697467 0.324835 0.134414
C91   C     C_R   0.300631 0.675358 0.096119 0.123872
C92   C     C_R   0.699752 0.323925 0.905114 0.134373
C93   C     C_R   0.661438 0.020968 0.266018 0.156735
C94   C     C_R   0.342100 0.959993 0.738065 0.146398
C95   C     C_R   0.256372 0.622573 0.091364 0.121551
C96   C     C_R   0.744050 0.378101 0.907321 0.130789
C97   C     C_R   0.096237 0.259887 0.616578 0.135088
C98   C     C_R   0.684766 0.570455 0.996945 -0.036906
C99   C     C_R   0.913263 0.741332 0.372420 0.125105
C100  C     C_R   0.544457 0.988307 0.411464 -0.007773
C101  C     C_R   0.462616 0.988407 0.594220 -0.004205
C102  C     C_R   0.028531 0.405618 0.521703 -0.002015
C103  C     C_R   0.973014 0.595548 0.473240 -0.002242
C104  C     C_R   0.404082 0.524665 0.026709 -0.002901
C105  C     C_R   0.595919 0.475605 0.971661 -0.002703
C106  C     C_R   0.585054 0.014235 0.451905 -0.006011
C107  C     C_R   0.421439 0.963606 0.553348 -0.003329
C108  C     C_R   0.448455 0.575299 0.034601 -0.007574
H1    H     H_    0.407003 0.057736 0.773512 0.204623
H2    H     H_    0.405817 0.753458 0.108670 0.187927
H3    H     H_    0.884137 0.592236 0.249263 0.190983
H4    H     H_    0.113752 0.407795 0.748834 0.195305
H5    H     H_    0.374854 0.762023 0.301112 0.130647
H6    H     H_    0.274611 0.777591 0.400168 0.128338
H7    H     H_    0.263326 0.777718 0.299636 0.216600
H8    H     H_    0.804822 0.132366 0.711351 0.203107
H9    H     H_    0.705921 0.125804 0.808824 0.189821
H10   H     H_    0.770121 0.029282 0.766383 0.160367
H11   H     H_    0.879946 0.186995 0.286425 0.194052
H12   H     H_    0.595959 0.923482 0.229184 0.202817
H13   H     H_    0.869294 0.290392 0.196282 0.196384
H14   H     H_    0.976253 0.230648 0.224384 0.147622
H15   H     H_    0.222860 0.612767 0.702335 0.152004
H16   H     H_    0.224172 0.719147 0.699957 0.206875
H17   H     H_    0.220104 0.709543 0.599688 0.124098
H18   H     H_    0.175642 0.270922 0.909445 0.193292
H19   H     H_    0.276523 0.180753 0.900123 0.193052
H20   H     H_    0.224606 0.219661 0.001657 0.135950
H21   H     H_    0.596339 0.728716 0.215108 0.130171
H22   H     H_    0.673116 0.613436 0.231354 0.148255
H23   H     H_    0.915951 0.803690 0.493664 0.191228
H24   H     H_    0.703010 0.703172 0.232302 0.206085
H25   H     H_    0.087351 0.197795 0.498635 0.189889
H26   H     H_    0.805269 0.499862 0.911489 0.194912
H27   H     H_    0.194854 0.500307 0.088055 0.189971
H28   H     H_    0.235768 0.899522 0.597944 0.198277
H29   H     H_    0.764046 0.090296 0.402472 0.194474
H30   H     H_    0.595237 0.245831 0.890936 0.180232
I1    I     I_    0.286596 0.950830 0.880765 -0.224030
I2    I     I_    0.219886 0.794983 0.139544 -0.245875
I3    I     I_    0.845431 0.777650 0.212536 -0.266124
I4    I     I_    0.189212 0.224160 0.754784 -0.353678
I5    I     I_    0.711659 0.035298 0.122039 -0.190423
I6    I     I_    0.902070 0.882858 0.317660 -0.256999
I7    I     I_    0.116603 0.116689 0.667282 -0.255821
I8    I     I_    0.891039 0.340221 0.867391 -0.276516
I9    I     I_    0.110378 0.663398 0.126977 -0.241508
I10   I     I_    0.200516 0.861142 0.785626 -0.240009
I11   I     I_    0.789149 0.134470 0.213633 -0.318518
I12   I     I_    0.781965 0.200278 0.872235 -0.296433
O1    O     O_R   0.982940 0.138950 0.510160 -0.627116
O2    O     O_R   0.982940 0.510160 0.138950 -0.621515
O3    O     O_R   0.861050 0.017060 0.489840 -0.643158
O4    O     O_R   0.138950 0.982940 0.510160 -0.640089
O5    O     O_R   0.867700 0.025880 0.612340 -0.632752
O6    O     O_R   0.132300 0.974120 0.387660 -0.558574
O7    O     O_R   0.025880 0.612340 0.867700 -0.555646
O8    O     O_R   0.974120 0.387660 0.132300 -0.644960
O9    O     O_R   0.612340 0.867700 0.025880 -0.563779
O10   O     O_R   0.387660 0.132300 0.974120 -0.638322
O11   O     O_R   0.387660 0.974120 0.132300 -0.561457
O12   O     O_R   0.017060 0.861050 0.489840 -0.636780
O13   O     O_R   0.612340 0.025880 0.867700 -0.638203
O14   O     O_R   0.132300 0.387660 0.974120 -0.634614
O15   O     O_R   0.867700 0.612340 0.025880 -0.556672
O16   O     O_R   0.974120 0.132300 0.387660 -0.634778
O17   O     O_R   0.025880 0.867700 0.612340 -0.561847
O18   O     O_3   0.287091 0.893082 0.287244 -0.558336
O19   O     O_3   0.688768 0.143565 0.689130 -0.613781
O20   O     O_3   0.864403 0.298341 0.317555 -0.612234
O21   O     O_3   0.099752 0.716035 0.708880 -0.555089
O22   O     O_3   0.293296 0.303862 0.878381 -0.609543
O23   O     O_R   0.138950 0.510160 0.982940 -0.624545
O24   O     O_3   0.713285 0.706741 0.104733 -0.554192
O25   O     O_R   0.861050 0.489840 0.017060 -0.641289
O26   O     O_R   0.510160 0.982940 0.138950 -0.638784
O27   O     O_R   0.489840 0.017060 0.861050 -0.638983
O28   O     O_R   0.489840 0.861050 0.017060 -0.623826
O29   O     O_R   0.510160 0.138950 0.982940 -0.624118
O30   O     O_R   0.017060 0.489840 0.861050 -0.639414
Zn1   Zn    Zn3+2 0.004880 0.004880 0.583590 1.031783
Zn2   Zn    Zn3+2 0.995120 0.995120 0.416410 1.021706
Zn3   Zn    Zn3+2 0.004880 0.583590 0.004880 1.089731
Zn4   Zn    Zn3+2 0.995120 0.416410 0.995120 0.969762
Zn5   Zn    Zn3+2 0.583590 0.004880 0.004880 1.030225
Zn6   Zn    Zn3+2 0.416410 0.995120 0.995120 1.023186

loop_
_geom_bond_atom_site_label_1
_geom_bond_atom_site_label_2
_ccdc_geom_bond_type
C67   O18   S    
C101  C107  A    
C35   C76   A    
C63   C65   A    
C55   C80   A    
C45   C71   A    
C84   C102  A    
C64   C77   A    
C7    H9    S    
O16   Zn2   S    
C59   C82   A    
O10   Zn6   S    
C50   C71   A    
C3    C79   A    
C11   H24   S    
C5    C103  A    
C56   C85   A    
C33   O6    A    
O26   Zn5   S    
C81   C101  A    
C58   H26   S    
C85   C99   A    
C84   C97   A    
C32   C36   A    
C15   C106  A    
C53   C81   A    
C47   C76   A    
O12   Zn2   S    
C46   C72   A    
C22   O12   A    
C8    H13   S    
C13   C57   A    
C66   C75   A    
C10   O22   S    
C89   I4    S    
O4    Zn1   S    
C26   O13   A    
C92   C96   A    
C9    H16   S    
C3    C18   A    
C78   C108  A    
C59   H27   S    
C12   C37   A    
C2    C38   A    
C6    H6    S    
C5    C16   A    
C52   C69   A    
C2    C50   A    
C1    C40   A    
C74   C107  A    
C25   O11   A    
C4    C75   A    
C49   C72   A    
C58   C98   A    
C27   O28   A    
C44   C70   A    
C51   C70   A    
C72   O24   S    
C60   H28   S    
C21   C61   A    
C85   C103  A    
C34   C87   A    
C19   C108  A    
C49   C98   A    
C80   C100  A    
C94   I1    S    
C39   C65   A    
C7    H10   S    
C57   H25   S    
C61   H29   S    
C10   H20   S    
C11   H21   S    
C15   C35   A    
C31   O3    A    
C8    O20   S    
C1    C34   A    
O1    Zn1   S    
C41   C68   A    
C88   C94   A    
C55   H12   S    
C28   C45   S    
C6    O18   S    
C77   C90   A    
C57   C84   A    
C33   C40   S    
O15   Zn3   S    
C62   C79   A    
C95   I9    S    
C32   C64   A    
C13   C36   A    
C1    C60   A    
O6    Zn2   S    
C2    C59   A    
C23   C50   S    
C29   O7    A    
C54   C62   A    
C61   C73   A    
C18   C38   A    
C29   O30   A    
C42   C69   A    
C3    C105  A    
O27   Zn6   S    
C83   C105  A    
C4    C102  A    
C7    H8    S    
C37   C43   A    
C70   O21   S    
C6    H5    S    
O11   Zn6   S    
O14   Zn4   S    
C86   C93   A    
C13   C52   A    
C68   O19   S    
C99   I6    S    
C30   O2    A    
C38   C54   A    
C88   I10   S    
C48   C87   A    
C18   C104  A    
C15   C101  A    
O2    Zn3   S    
C25   C48   S    
C79   C92   A    
C12   C56   A    
C19   C39   A    
C26   C47   S    
C46   C65   A    
C21   C41   A    
C4    C17   A    
C19   C105  A    
C27   C46   S    
C16   C102  A    
C14   C107  A    
C62   H30   S    
C45   C54   A    
C7    O19   S    
C28   O10   A    
C92   I12   S    
C9    O21   S    
C53   C76   A    
C22   O17   A    
C5    C77   A    
C10   H19   S    
C11   H22   S    
C90   C99   A    
C104  C108  A    
C12   C51   A    
C47   C68   A    
C40   C67   A    
C23   O14   A    
C26   O27   A    
C53   H1    S    
C24   C49   S    
C30   O8    A    
C11   O24   S    
C82   C104  A    
C82   C95   A    
C31   C41   S    
C33   O4    A    
C97   I7    S    
C20   O16   A    
C39   C98   A    
C93   I5    S    
C14   C34   A    
C31   O5    A    
O5    Zn1   S    
C14   C100  A    
C23   O23   A    
C17   C37   A    
C78   C91   A    
C96   I8    S    
C100  C106  A    
C20   O1    A    
O13   Zn5   S    
C74   C88   A    
O9    Zn5   S    
C63   H2    S    
C21   C35   A    
C17   C103  A    
C29   C44   S    
C58   C83   A    
C16   C36   A    
C81   C94   A    
C25   O26   A    
C8    H14   S    
C73   C106  A    
O17   Zn1   S    
O8    Zn4   S    
C43   C44   A    
C43   C66   A    
C83   C96   A    
C86   I11   S    
C60   C74   A    
C9    H15   S    
O29   Zn5   S    
C24   O15   A    
C69   O20   S    
C48   C67   A    
C55   C87   A    
C28   O29   A    
C9    H17   S    
C6    H7    S    
C90   I3    S    
C64   H3    S    
C75   C89   A    
C91   C95   A    
C91   I2    S    
O28   Zn6   S    
O3    Zn2   S    
O23   Zn3   S    
C20   C52   S    
C89   C97   A    
C32   C42   A    
C71   O22   S    
C30   C42   S    
C73   C86   A    
O7    Zn3   S    
C66   H4    S    
C80   C93   A    
C10   H18   S    
C24   O25   A    
C27   O9    A    
C56   H23   S    
O30   Zn4   S    
C8    H11   S    
C22   C51   S    
O25   Zn4   S    
C63   C78   A    
