data_str_m4_o4_o24_f0_acs.sym.71
_audit_creation_date              2012-12-11T15:50:42-0500
_audit_creation_method            fapswitch 2.2
_symmetry_space_group_name_H-M    P1
_symmetry_Int_Tables_number       1
_space_group_crystal_system       triclinic
_cell_length_a                    18.911337
_cell_length_b                    11.115995
_cell_length_c                    18.695302
_cell_angle_alpha                 89.862305
_cell_angle_beta                  91.097764
_cell_angle_gamma                 90.003897
_cell_volume                      3929.36244368

loop_
_atom_site_label
_atom_site_type_symbol
_atom_type_description
_atom_site_fract_x
_atom_site_fract_y
_atom_site_fract_z
_atom_type_partial_charge
C1    C     C_R   0.274766 0.036408 0.856353 0.558722
C2    C     C_R   0.760456 0.571216 0.930033 -0.007412
C3    C     C_R   0.229465 0.547323 0.352666 0.558927
C4    C     C_R   0.467936 0.822888 0.645879 0.539381
C5    C     C_R   0.529416 0.823918 0.352197 0.553660
C6    C     C_R   0.967935 0.322888 0.645879 0.539590
C7    C     C_R   0.029415 0.323918 0.352196 0.553750
C8    C     C_R   0.273698 0.687223 0.636575 0.562458
C9    C     C_R   0.725181 0.691692 0.362969 0.567863
C10   C     C_R   0.773699 0.187224 0.636575 0.562409
C11   C     C_R   0.225181 0.191693 0.362968 0.567872
C12   C     C_3   0.507717 0.937661 0.021425 -0.140122
C13   C     C_R   0.740076 0.071614 0.070802 -0.027252
C14   C     C_3   0.556226 0.902293 0.957493 -0.198096
C15   C     C_3   0.008564 0.438610 0.020685 -0.148565
C16   C     C_3   0.056163 0.396752 0.957404 -0.199676
C17   C     C_3   0.449442 0.854405 0.990032 0.256211
C18   C     C_3   0.583744 0.794196 0.000894 0.214700
C19   C     C_3   0.948107 0.359252 0.990117 0.255483
C20   C     C_3   0.080236 0.287897 0.002038 0.217304
C21   C     C_3   0.497005 0.822495 0.927620 -0.014822
C22   C     C_3   0.536512 0.826892 0.063643 -0.012849
C23   C     C_3   0.994861 0.321124 0.928305 -0.014886
C24   C     C_R   0.262183 0.065375 0.931684 -0.010879
C25   C     C_3   0.034124 0.327199 0.064238 -0.016087
C26   C     C_R   0.292898 0.520837 0.033084 0.156106
C27   C     C_R   0.700697 0.531807 0.965984 0.195690
C28   C     C_R   0.800388 0.034372 0.034781 0.150471
C29   C     C_R   0.202215 0.026237 0.967557 0.193530
C30   C     C_R   0.299677 0.538675 0.960046 -0.023986
C31   C     C_R   0.696646 0.539238 0.040274 0.060346
C32   C     C_R   0.803095 0.042489 0.960532 -0.026910
C33   C     C_R   0.726269 0.038871 0.144847 0.547418
C34   C     C_R   0.198307 0.032403 0.041912 0.062129
C35   C     C_R   0.177303 0.605729 0.951317 0.054817
C36   C     C_R   0.818011 0.606063 0.046060 0.101557
C37   C     C_R   0.682071 0.115346 0.955758 0.056048
C38   C     C_R   0.319711 0.097982 0.048185 0.100294
C39   C     C_R   0.172606 0.592121 0.025032 -0.173901
C40   C     C_R   0.818025 0.614108 0.971729 -0.070533
C41   C     C_R   0.682165 0.115221 0.030092 -0.176266
C42   C     C_R   0.320261 0.105437 0.973695 -0.074576
C43   C     C_3   0.332084 0.404880 0.031253 0.111493
C44   C     C_R   0.774058 0.538373 0.855588 0.557240
C45   C     C_3   0.667995 0.410820 0.964944 0.109341
C46   C     C_3   0.834730 0.913541 0.035330 0.109901
C47   C     C_3   0.167874 0.906530 0.965623 0.105007
C48   C     C_3   0.337971 0.422438 0.951165 -0.258985
C49   C     C_3   0.661799 0.419799 0.045605 -0.273831
C50   C     C_3   0.835872 0.921037 0.954457 -0.266286
C51   C     C_3   0.163317 0.912813 0.046505 -0.267011
C52   C     C_R   0.242849 0.579908 0.918207 0.022210
C53   C     C_R   0.754631 0.577814 0.081264 0.015848
C54   C     C_R   0.745073 0.083388 0.920212 0.023834
C55   C     C_R   0.213999 0.508910 0.138649 0.528765
C56   C     C_R   0.255881 0.071991 0.083120 0.013065
C57   C     C_R   0.495819 0.837209 0.420886 0.019368
C58   C     C_R   0.484811 0.828380 0.570520 0.021080
C59   C     C_R   0.995816 0.337208 0.420884 0.018894
C60   C     C_R   0.984808 0.328379 0.570518 0.021046
C61   C     C_R   0.469812 0.820268 0.854947 0.569517
C62   C     C_R   0.559824 0.817760 0.138090 0.578318
C63   C     C_R   0.968899 0.319946 0.855387 0.569312
C64   C     C_R   0.058703 0.317939 0.138031 0.562487
C65   C     C_R   0.462309 0.740222 0.453542 0.023454
C66   C     C_3   0.525443 0.714594 0.969757 0.252461
C67   C     C_R   0.459739 0.735051 0.526791 0.036611
C68   C     C_R   0.962307 0.240222 0.453540 0.022790
C69   C     C_R   0.959737 0.235050 0.526790 0.036686
C70   C     C_R   0.506070 0.935361 0.537505 -0.176221
C71   C     C_R   0.511539 0.939921 0.462911 -0.165755
C72   C     C_R   0.006066 0.435360 0.537504 -0.176137
C73   C     C_R   0.011535 0.439921 0.462909 -0.165768
C74   C     C_3   0.470421 0.606408 0.447554 -0.272178
C75   C     C_3   0.473894 0.602920 0.528625 -0.265166
C76   C     C_3   0.970421 0.106408 0.447551 -0.272612
C77   C     C_3   0.477998 0.746819 0.031641 0.214205
C78   C     C_3   0.973895 0.102919 0.528622 -0.264858
C79   C     C_R   0.254677 0.599515 0.418304 0.025797
C80   C     C_R   0.748035 0.616659 0.584249 0.027180
C81   C     C_R   0.754680 0.099518 0.418302 0.026164
C82   C     C_R   0.248036 0.116657 0.584249 0.027150
C83   C     C_R   0.227751 0.708431 0.443435 0.030793
C84   C     C_R   0.798272 0.686566 0.548695 0.030881
C85   C     C_R   0.727756 0.208436 0.443433 0.029913
C86   C     C_R   0.298273 0.186564 0.548694 0.030917
C87   C     C_R   0.234794 0.736923 0.515024 0.006942
C88   C     C_3   0.019760 0.212123 0.971947 0.263856
C89   C     C_R   0.789019 0.714839 0.477890 0.008835
C90   C     C_R   0.734798 0.236928 0.515022 0.007088
C91   C     C_R   0.289019 0.214838 0.477890 0.008663
C92   C     C_R   0.298187 0.551460 0.536746 -0.154817
C93   C     C_R   0.671513 0.633845 0.479858 -0.164479
C94   C     C_R   0.798188 0.051463 0.536745 -0.154865
C95   C     C_R   0.171513 0.133844 0.479857 -0.164390
C96   C     C_R   0.293833 0.525417 0.464759 -0.177627
C97   C     C_R   0.681077 0.604010 0.552519 -0.168847
C98   C     C_R   0.793836 0.025421 0.464758 -0.176741
C99   C     C_3   0.973395 0.251105 0.033345 0.217349
C100  C     C_R   0.181078 0.104007 0.552518 -0.168824
C101  C     C_3   0.153960 0.757156 0.438886 -0.266047
C102  C     C_3   0.876125 0.667399 0.540182 -0.265545
C103  C     C_3   0.653966 0.257165 0.438881 -0.266366
C104  C     C_3   0.376125 0.167395 0.540181 -0.265565
C105  C     C_3   0.160979 0.784156 0.517659 -0.274772
C106  C     C_3   0.865650 0.696936 0.462006 -0.269218
C107  C     C_3   0.660983 0.284164 0.517654 -0.274431
C108  C     C_3   0.365650 0.196934 0.462005 -0.269202
C109  C     C_R   0.258748 0.632945 0.849409 0.560891
C110  C     C_R   0.228961 0.545407 0.066053 -0.034435
C111  C     C_R   0.740887 0.632530 0.150414 0.549227
C112  C     C_R   0.759082 0.133504 0.849971 0.559434
C113  C     C_R   0.241155 0.131432 0.150902 0.543351
C114  C     C_R   0.267947 0.657169 0.562378 0.029747
C115  C     C_R   0.728424 0.678317 0.440385 0.016247
C116  C     C_R   0.767949 0.157173 0.562376 0.029703
C117  C     C_R   0.228424 0.178317 0.440384 0.016056
C118  C     C_R   0.270817 0.049115 0.647236 0.541624
C119  C     C_R   0.729464 0.047321 0.352668 0.552385
C120  C     C_R   0.770816 0.549115 0.647236 0.541020
Cr1   Cr    Cr6+3 0.229640 0.835880 0.747370 1.043483
Cr2   Cr    Cr6+3 0.614230 0.677220 0.250660 1.022536
Cr3   Cr    Cr6+3 0.885770 0.177220 0.749340 1.028816
Cr4   Cr    Cr6+3 0.114230 0.177220 0.250660 1.020175
Cr5   Cr    Cr6+3 0.770360 0.835880 0.252630 1.026041
Cr6   Cr    Cr6+3 0.729640 0.335880 0.747370 1.043454
Cr7   Cr    Cr6+3 0.270360 0.335880 0.252630 1.031102
Cr8   Cr    Cr6+3 0.387390 0.989720 0.750850 1.023258
Cr9   Cr    Cr6+3 0.612610 0.989720 0.249150 1.004490
Cr10  Cr    Cr6+3 0.887390 0.489720 0.750850 1.025246
Cr11  Cr    Cr6+3 0.112610 0.489720 0.249150 1.004145
Cr12  Cr    Cr6+3 0.385770 0.677220 0.749340 1.027922
H1    H     H_    0.520515 0.013403 0.569154 0.127459
H2    H     H_    0.527251 0.582060 0.550227 0.128988
H3    H     H_    0.922266 0.064341 0.424341 0.143816
H4    H     H_    0.027252 0.082062 0.550224 0.128991
H5    H     H_    0.322253 0.485886 0.572570 0.137692
H6    H     H_    0.622639 0.612778 0.453287 0.129433
H7    H     H_    0.822254 0.985889 0.572569 0.137611
H8    H     H_    0.122640 0.112777 0.453286 0.129508
H9    H     H_    0.315494 0.441544 0.446728 0.135182
H10   H     H_    0.639618 0.559688 0.581437 0.115242
H11   H     H_    0.815495 0.941546 0.446728 0.135495
H12   H     H_    0.534296 0.019615 0.439330 0.135270
H13   H     H_    0.139618 0.059685 0.581436 0.115191
H14   H     H_    0.112668 0.688509 0.427614 0.152365
H15   H     H_    0.891817 0.572432 0.549249 0.166462
H16   H     H_    0.612673 0.188521 0.427608 0.152755
H17   H     H_    0.391817 0.072428 0.549248 0.166506
H18   H     H_    0.150342 0.839475 0.405091 0.148714
H19   H     H_    0.908330 0.735395 0.569725 0.134747
H20   H     H_    0.650351 0.339483 0.405085 0.147923
H21   H     H_    0.408331 0.235390 0.569724 0.134653
H22   H     H_    0.159284 0.880794 0.529199 0.142945
H23   H     H_    0.020512 0.513403 0.569153 0.127644
H24   H     H_    0.892886 0.781064 0.446045 0.126634
H25   H     H_    0.659290 0.380803 0.529193 0.142918
H26   H     H_    0.392886 0.281061 0.446044 0.126638
H27   H     H_    0.125697 0.727937 0.550989 0.151331
H28   H     H_    0.875359 0.618251 0.426859 0.167720
H29   H     H_    0.625700 0.227947 0.550983 0.151201
H30   H     H_    0.375358 0.118248 0.426858 0.167828
H31   H     H_    0.502913 0.030079 0.042656 0.157211
H32   H     H_    0.590991 0.939593 0.916886 0.195455
H33   H     H_    0.004213 0.531686 0.041043 0.152318
H34   H     H_    0.034291 0.519616 0.439328 0.135160
H35   H     H_    0.092781 0.430459 0.917297 0.194234
H36   H     H_    0.122450 0.610384 0.049713 0.139527
H37   H     H_    0.867573 0.638175 0.947265 0.172921
H38   H     H_    0.633503 0.140607 0.055659 0.147723
H39   H     H_    0.370004 0.128490 0.949295 0.172379
H40   H     H_    0.800719 0.841850 0.057062 0.154334
H41   H     H_    0.203602 0.836224 0.945294 0.145054
H42   H     H_    0.299432 0.327912 0.048092 0.140385
H43   H     H_    0.705452 0.342005 0.946083 0.147017
H44   H     H_    0.392744 0.435358 0.932487 0.146830
H45   H     H_    0.018568 0.073002 0.422148 0.151197
H46   H     H_    0.606821 0.428297 0.065050 0.155968
H47   H     H_    0.889504 0.924389 0.931558 0.146735
H48   H     H_    0.108712 0.920725 0.067031 0.163643
H49   H     H_    0.306582 0.355858 0.919588 0.120119
H50   H     H_    0.695081 0.353437 0.075395 0.118589
H51   H     H_    0.799710 0.855474 0.927769 0.125426
H52   H     H_    0.196881 0.844655 0.074544 0.127250
H53   H     H_    0.356001 0.805276 0.960628 0.322155
H54   H     H_    0.676613 0.838066 0.033119 0.295741
H55   H     H_    0.853572 0.316333 0.961009 0.318979
H56   H     H_    0.932090 0.049275 0.553381 0.146895
H57   H     H_    0.173524 0.318324 0.038472 0.284227
H58   H     H_    0.485907 0.565910 0.938154 0.334040
H59   H     H_    0.466762 0.599274 0.082490 0.374990
H60   H     H_    0.975928 0.066373 0.941147 0.336008
H61   H     H_    0.958132 0.110690 0.089722 0.385603
H62   H     H_    0.115274 0.718196 0.886858 0.296375
H63   H     H_    0.069695 0.638230 0.943152 0.205595
H64   H     H_    0.889738 0.694175 0.111266 0.264842
H65   H     H_    0.888300 0.542253 0.120399 0.267901
H66   H     H_    0.616485 0.217831 0.888094 0.302544
H67   H     H_    0.518568 0.573000 0.422151 0.151088
H68   H     H_    0.574334 0.148395 0.952471 0.204305
H69   H     H_    0.390558 0.189597 0.112434 0.266388
H70   H     H_    0.388864 0.038233 0.124754 0.267071
H71   H     H_    0.428300 0.351179 0.047375 0.311006
H72   H     H_    0.568966 0.364675 0.954369 0.314021
H73   H     H_    0.930138 0.851850 0.046008 0.317639
H74   H     H_    0.068853 0.861007 0.955392 0.316668
H75   H     H_    0.432089 0.549279 0.553384 0.146931
H76   H     H_    0.422266 0.564342 0.424344 0.144501
N1    N     N_3   0.113625 0.634046 0.910184 -0.628081
N2    N     N_3   0.884729 0.613332 0.083753 -0.633236
N3    N     N_3   0.616282 0.139018 0.917311 -0.638379
N4    N     N_3   0.385884 0.107126 0.086618 -0.635422
O1    O     O_R   0.214300 0.709080 0.827500 -0.511271
O2    O     O_R   0.543340 0.717710 0.330180 -0.528263
O3    O     O_R   0.956660 0.217710 0.669820 -0.520164
O4    O     O_R   0.043340 0.217710 0.330180 -0.528143
O5    O     O_R   0.320590 0.625770 0.672930 -0.513139
O6    O     O_R   0.679410 0.625770 0.327070 -0.509933
O7    O     O_R   0.820590 0.125770 0.672930 -0.512954
O8    O     O_R   0.179410 0.125770 0.327070 -0.508497
O9    O     O_3   0.334270 0.834280 0.749190 -0.288241
O10   O     O_3   0.665730 0.834280 0.250810 -0.303213
O11   O     O_3   0.834270 0.334280 0.749190 -0.288837
O12   O     O_R   0.785700 0.709080 0.172500 -0.528813
O13   O     O_3   0.165730 0.334280 0.250810 -0.314438
O14   O     O_R   0.236190 0.958390 0.823150 -0.474699
O15   O     O_R   0.763810 0.958390 0.176850 -0.476743
O16   O     O_R   0.736190 0.458390 0.823150 -0.473595
O17   O     O_R   0.263810 0.458390 0.176850 -0.455417
O18   O     O_R   0.332090 0.075280 0.831290 -0.525359
O19   O     O_R   0.667910 0.075280 0.168710 -0.537253
O20   O     O_R   0.832090 0.575280 0.831290 -0.524411
O21   O     O_R   0.167910 0.575280 0.168710 -0.522055
O22   O     O_R   0.446280 0.918040 0.826620 -0.487831
O23   O     O_R   0.714300 0.209080 0.827500 -0.511841
O24   O     O_R   0.553720 0.918040 0.173380 -0.504526
O25   O     O_R   0.946280 0.418040 0.826620 -0.484542
O26   O     O_R   0.053720 0.418040 0.173380 -0.512029
O27   O     O_R   0.457080 0.716270 0.831760 -0.495620
O28   O     O_R   0.542920 0.716270 0.168240 -0.484983
O29   O     O_R   0.957080 0.216270 0.831760 -0.495988
O30   O     O_R   0.042920 0.216270 0.168240 -0.487120
O31   O     O_R   0.320980 0.624440 0.823040 -0.504438
O32   O     O_R   0.679020 0.624440 0.176960 -0.501067
O33   O     O_R   0.820980 0.124440 0.823040 -0.503885
O34   O     O_R   0.285700 0.209080 0.172500 -0.529635
O35   O     O_R   0.179020 0.124440 0.176960 -0.498947
O36   O     O_R   0.213880 0.710510 0.665560 -0.515667
O37   O     O_R   0.786120 0.710510 0.334440 -0.521216
O38   O     O_R   0.713880 0.210510 0.665560 -0.516111
O39   O     O_R   0.286120 0.210510 0.334440 -0.521542
O40   O     O_R   0.235800 0.959720 0.673040 -0.518056
O41   O     O_R   0.764200 0.959720 0.326960 -0.522700
O42   O     O_R   0.735800 0.459720 0.673040 -0.518137
O43   O     O_R   0.264200 0.459720 0.326960 -0.520000
O44   O     O_R   0.331670 0.076720 0.669350 -0.522470
O45   O     O_R   0.445900 0.919370 0.676500 -0.510916
O46   O     O_R   0.668330 0.076720 0.330650 -0.524330
O47   O     O_R   0.831670 0.576720 0.669350 -0.522797
O48   O     O_R   0.168330 0.576720 0.330650 -0.521967
O49   O     O_3   0.377222 0.877705 0.983245 -0.684679
O50   O     O_3   0.655752 0.769587 0.006344 -0.711451
O51   O     O_3   0.876713 0.388120 0.982422 -0.685614
O52   O     O_3   0.151257 0.256699 0.007370 -0.704611
O53   O     O_3   0.533996 0.600731 0.941357 -0.612076
O54   O     O_3   0.435288 0.667235 0.069256 -0.634734
O55   O     O_3   0.025145 0.095714 0.946040 -0.606048
O56   O     O_R   0.554100 0.919370 0.323500 -0.506481
O57   O     O_3   0.928290 0.178371 0.072730 -0.650606
O58   O     O_3   0.397162 0.413573 0.067834 -0.683696
O59   O     O_3   0.603406 0.413252 0.927216 -0.641029
O60   O     O_3   0.902346 0.918114 0.067105 -0.696802
O61   O     O_3   0.102408 0.913553 0.929684 -0.634220
O62   O     O_R   0.945900 0.419370 0.676500 -0.510470
O63   O     O_R   0.054100 0.419370 0.323500 -0.506124
O64   O     O_R   0.456660 0.717710 0.669820 -0.520050

loop_
_geom_bond_atom_site_label_1
_geom_bond_atom_site_label_2
_ccdc_geom_bond_type
C1    O14   A    
C9    O6    A    
C83   C87   A    
Cr3   O29   S    
Cr4   O8    S    
Cr10  O25   S    
C34   C56   A    
C111  O32   A    
C94   H7    S    
Cr3   O3    S    
C21   C66   S    
C84   C102  S    
C3    O48   A    
C14   C18   S    
C35   C39   A    
C50   H51   S    
H53   O49   S    
Cr7   O17   S    
C80   C84   A    
C86   C104  S    
C89   C115  A    
Cr4   O13   S    
C35   N1    S    
C75   H2    S    
C82   C86   A    
C74   H76   S    
Cr5   O10   S    
Cr11  O21   S    
C15   C19   S    
C28   C46   S    
C34   C51   S    
C4    O45   A    
C29   C47   S    
Cr7   O43   S    
C60   C69   A    
C14   C21   S    
C30   C48   S    
Cr10  O11   S    
H71   O58   S    
Cr12  O27   S    
C76   C78   S    
C90   C107  S    
H63   N1    S    
C109  O1    A    
C86   C91   A    
C45   H43   S    
C48   H49   S    
C98   H11   S    
C43   H42   S    
C48   H44   S    
C15   C25   S    
C76   H45   S    
C64   O30   A    
C81   C98   A    
C94   C98   A    
C16   H35   S    
C113  O34   A    
C63   O29   A    
C12   C22   S    
C101  H18   S    
C92   C96   A    
C62   O28   A    
C77   O54   S    
C18   O50   S    
Cr12  O5    S    
C93   C115  A    
C32   C54   A    
C39   H36   S    
C55   O17   A    
C24   C29   A    
C37   N3    S    
C87   C114  A    
Cr3   O7    S    
H65   N2    S    
C96   H9    S    
C4    O64   A    
C75   H75   S    
C1    O18   A    
C25   C99   S    
C39   C110  A    
Cr2   O28   S    
C6    O3    A    
C107  H29   S    
C2    C44   S    
C68   C69   A    
C65   C67   A    
C92   C114  A    
C12   C17   S    
C10   O7    A    
C70   H1    S    
Cr8   O18   S    
C56   C113  S    
C91   C117  A    
C13   C28   A    
Cr1   O9    S    
C2    C27   A    
C36   C53   A    
C90   C116  A    
C104  H21   S    
Cr10  O62   S    
Cr2   O6    S    
C43   C48   S    
C59   C73   A    
H69   N4    S    
C64   O26   A    
C7    O4    A    
C85   C103  S    
C8    C114  S    
C102  H19   S    
C38   C56   A    
H64   N2    S    
C53   C111  S    
C46   C50   S    
C23   C63   S    
C105  H22   S    
H73   O60   S    
C3    C79   S    
C43   O58   S    
C72   H23   S    
C13   C33   S    
C37   C41   A    
C61   O22   A    
C69   C78   S    
C82   C100  A    
C31   C49   S    
C92   H5    S    
C119  O41   A    
C28   C32   A    
C7    C59   S    
C40   H37   S    
C107  H25   S    
C76   H3    S    
C26   C43   S    
Cr10  O47   S    
C120  O42   A    
Cr1   O36   S    
C102  H15   S    
C101  C105  S    
C112  O33   A    
C101  H14   S    
H68   N3    S    
C62   O24   A    
C74   C75   S    
C93   H6    S    
Cr9   O24   S    
C27   C31   A    
Cr12  O9    S    
C61   O27   A    
C6    C60   S    
C36   C40   A    
C26   C110  A    
C51   H52   S    
C9    C115  S    
C57   C65   A    
C65   C74   S    
Cr3   O33   S    
C94   C116  A    
C95   C100  A    
C58   C70   A    
Cr1   O40   S    
C47   C51   S    
C113  O35   A    
Cr3   O11   S    
C29   C34   A    
C99   O57   S    
C14   H32   S    
C11   O39   A    
Cr1   O14   S    
Cr11  O48   S    
H57   O52   S    
C10   O38   A    
H60   O55   S    
Cr1   O1    S    
C104  H17   S    
C89   C106  S    
C19   C23   S    
C17   C21   S    
Cr11  O63   S    
Cr6   O23   S    
C95   C117  A    
C59   C68   A    
C22   C62   S    
Cr11  O13   S    
Cr12  O31   S    
C87   C105  S    
Cr10  O20   S    
C100  H13   S    
C16   C20   S    
C17   C77   S    
C45   C49   S    
C95   H8    S    
C54   C112  S    
Cr6   O42   S    
Cr7   O34   S    
C73   H34   S    
C57   C71   A    
H54   O50   S    
Cr5   O41   S    
C24   C42   A    
C44   O16   A    
C32   C50   S    
C47   H41   S    
Cr9   O56   S    
C118  O44   A    
C103  H20   S    
C5    O56   A    
C37   C54   A    
C66   O53   S    
C12   C14   S    
Cr9   O46   S    
C16   C23   S    
C106  H24   S    
C23   C88   S    
C55   C110  S    
Cr2   O10   S    
C103  H16   S    
H59   O54   S    
C80   C120  S    
C31   C53   A    
Cr8   O22   S    
C78   H56   S    
C84   C89   A    
C82   C118  S    
Cr4   O30   S    
C51   H48   S    
C11   C117  S    
C93   C97   A    
C104  C108  S    
C70   C71   A    
C10   C116  S    
C103  C107  S    
C49   H46   S    
Cr4   O4    S    
Cr5   O12   S    
C45   O59   S    
C66   C77   S    
C30   C52   A    
C18   C66   S    
Cr9   O10   S    
C46   O60   S    
C83   C101  S    
H74   O61   S    
C63   O25   A    
C18   C22   S    
C21   C61   S    
C91   C108  S    
C55   O21   A    
Cr6   O16   S    
C22   C77   S    
H70   N4    S    
C72   C73   A    
C33   O15   A    
Cr8   O9    S    
C8    O5    A    
Cr2   O32   S    
C85   C90   A    
C47   O61   S    
C88   O55   S    
C38   C42   A    
C13   C41   A    
C68   C76   S    
C120  O47   A    
C41   H38   S    
C81   C119  S    
C7    O63   A    
C5    C57   S    
C9    O37   A    
C19   C99   S    
Cr8   O45   S    
C80   C97   A    
Cr4   O35   S    
Cr5   O37   S    
C50   H47   S    
C44   O20   A    
C79   C96   A    
H66   N3    S    
C20   O52   S    
H62   N1    S    
C79   C83   A    
C27   C45   S    
C105  H27   S    
C108  H30   S    
C52   C109  S    
C106  H28   S    
C5    O2    A    
C20   C88   S    
H55   O51   S    
C60   C72   A    
Cr8   O44   S    
C46   H40   S    
C102  C106  S    
C67   C75   S    
Cr7   O39   S    
C111  O12   A    
H58   O53   S    
C17   O49   S    
C33   O19   A    
C6    O62   A    
C3    O43   A    
C97   H10   S    
Cr6   O11   S    
C88   C99   S    
C42   H39   S    
Cr9   O19   S    
C19   O51   S    
C49   H50   S    
H72   O59   S    
C2    C40   A    
C58   C67   A    
C119  O46   A    
C108  H26   S    
C74   H67   S    
C8    O36   A    
C1    C24   S    
H61   O57   S    
Cr6   O38   S    
C20   C25   S    
C4    C58   S    
C35   C52   A    
Cr7   O13   S    
C109  O31   A    
C15   H33   S    
C118  O40   A    
Cr11  O26   S    
C38   N4    S    
Cr5   O15   S    
C78   H4    S    
C11   O8    A    
C25   C64   S    
C112  O23   A    
C81   C85   A    
Cr2   O2    S    
C15   C16   S    
C36   N2    S    
C71   H12   S    
C12   H31   S    
C26   C30   A    
Cr12  O64   S    
