data_str_m9_o11_o16_f0_sra.sym.152
_audit_creation_date              2012-12-11T14:17:32-0500
_audit_creation_method            fapswitch 2.2
_symmetry_space_group_name_H-M    P1
_symmetry_Int_Tables_number       1
_space_group_crystal_system       triclinic
_cell_length_a                    6.945073
_cell_length_b                    13.689988
_cell_length_c                    20.360234
_cell_angle_alpha                 102.015893
_cell_angle_beta                  89.955677
_cell_angle_gamma                 90.38277
_cell_volume                      1893.3532091

loop_
_atom_site_label
_atom_site_type_symbol
_atom_type_description
_atom_site_fract_x
_atom_site_fract_y
_atom_site_fract_z
_atom_type_partial_charge
O1    O     O_R   0.506860 0.599390 0.449240 -0.536927
O2    O     O_R   0.180220 0.594600 0.586780 -0.550794
O3    O     O_R   0.004500 0.400610 0.550760 -0.531633
C1    C     C_R   0.348958 0.616385 0.613346 0.743202
O4    O     O_R   0.177490 0.611290 0.451970 -0.551545
O5    O     O_R   0.001750 0.417420 0.414990 -0.517378
C2    C     C_R   0.346921 0.638405 0.435696 0.752721
O6    O     O_R   0.509610 0.582580 0.585010 -0.545365
O7    O     O_3   0.337420 0.436370 0.488020 -0.351472
V1    V     V_3+5 0.064680 0.511800 0.502220 1.466933
O8    O     O_R   0.671710 0.405400 0.413220 -0.536254
C3    C     C_R   0.841100 0.381868 0.387302 0.794830
O9    O     O_R   0.674440 0.388710 0.548030 -0.551599
C4    C     C_R   0.843357 0.362147 0.564739 0.742858
V2    V     V_3+5 0.564010 0.488200 0.497780 1.474137
O10   O     O_3   0.841140 0.563630 0.511980 -0.384052
C5    C     C_R   0.943865 0.117354 0.613844 -0.234704
H1    H     H_    0.000703 0.997551 0.698434 0.123257
H2    H     H_    0.986522 0.042304 0.590446 0.111126
C6    C     C_R   0.855199 0.284032 0.603835 -0.065898
C7    C     C_R   0.795920 0.310626 0.927933 0.180199
C8    C     C_R   0.767404 0.384273 0.891199 -0.112369
C9    C     C_R   0.791870 0.363482 0.821779 -0.203694
C10   C     C_R   0.846354 0.267170 0.786670 0.095451
C11   C     C_R   0.881941 0.192660 0.824726 0.031869
C12   C     C_R   0.864707 0.241969 0.715129 0.089553
C13   C     C_R   0.921413 0.143812 0.683725 0.106090
C14   C     C_R   0.957165 0.072545 0.722149 -0.183350
C15   C     C_R   0.937489 0.096288 0.791401 -0.183779
C16   C     C_R   0.829694 0.310742 0.673473 -0.287373
C17   C     C_R   0.913162 0.186981 0.573596 0.281826
C18   C     C_R   0.856303 0.215205 0.895375 -0.134003
H3    H     H_    0.787770 0.386730 0.693528 0.110086
H4    H     H_    0.764998 0.424470 0.797206 0.121344
H5    H     H_    0.722278 0.458101 0.916510 0.153103
H6    H     H_    0.966157 0.037883 0.818579 0.112595
C19   C     C_2   0.001122 0.259936 0.293389 0.179811
C20   C     C_2   0.848306 0.316879 0.319205 -0.318646
H7    H     H_    0.721715 0.319223 0.288547 0.135417
C21   C     C_2   0.010076 0.202629 0.222544 -0.136730
C22   C     C_2   0.856747 0.178039 0.181985 -0.307357
H8    H     H_    0.150712 0.175213 0.204220 0.160156
H9    H     H_    0.712931 0.199098 0.200004 0.144876
C23   C     C_2   0.205230 0.792810 0.781741 -0.138253
C24   C     C_2   0.363868 0.815977 0.819818 -0.298517
H10   H     H_    0.068024 0.824384 0.800751 0.130228
H11   H     H_    0.501950 0.784872 0.802095 0.128902
C25   C     C_2   0.203131 0.724375 0.714234 -0.137286
C26   C     C_2   0.360953 0.685034 0.679898 -0.300757
H12   H     H_    0.061941 0.706496 0.691895 0.134380
H13   H     H_    0.504032 0.702830 0.700107 0.125675
C27   C     C_R   0.427351 0.886867 0.387732 -0.227966
H14   H     H_    0.462334 0.009974 0.303841 0.150188
H15   H     H_    0.460624 0.963436 0.411622 0.121637
C28   C     C_R   0.359183 0.716717 0.396724 -0.070822
C29   C     C_R   0.315730 0.688569 0.072694 -0.196519
C30   C     C_R   0.294480 0.613741 0.108834 0.248004
C31   C     C_R   0.309618 0.635708 0.178634 -0.178257
C32   C     C_R   0.347291 0.734434 0.214311 0.050563
C33   C     C_R   0.371665 0.810612 0.176680 0.059994
C34   C     C_R   0.362256 0.760047 0.285877 0.092503
C35   C     C_R   0.405969 0.860244 0.317775 0.103847
C36   C     C_R   0.429435 0.933369 0.279750 -0.171992
C37   C     C_R   0.411539 0.909273 0.210397 -0.181453
C38   C     C_R   0.336443 0.689648 0.327048 -0.279296
C39   C     C_R   0.406210 0.815584 0.427502 0.279670
C40   C     C_R   0.354476 0.786503 0.105823 -0.112118
H16   H     H_    0.301555 0.612497 0.306691 0.121793
H17   H     H_    0.301253 0.670366 0.018507 0.129284
H18   H     H_    0.291692 0.573669 0.203017 0.141544
H19   H     H_    0.430717 0.968877 0.183351 0.118029
O11   O     O_R   0.203230 0.917310 0.915020 -0.545108
O12   O     O_R   0.535500 0.888690 0.048040 -0.543995
O13   O     O_R   0.711080 0.082610 0.085000 -0.540200
C41   C     C_R   0.366388 0.863034 0.065457 0.696693
O14   O     O_R   0.532630 0.905370 0.913230 -0.550353
O15   O     O_R   0.708190 0.099410 0.949230 -0.533236
C42   C     C_R   0.364525 0.884348 0.886451 0.733070
O16   O     O_R   0.206120 0.900510 0.050790 -0.542776
O17   O     O_3   0.375360 0.063570 0.011990 -0.359016
V3    V     V_3+5 0.648170 0.988200 0.997780 1.454513
O18   O     O_R   0.038240 0.111390 0.951940 -0.534428
C43   C     C_R   0.869288 0.136972 0.934532 0.739336
O19   O     O_R   0.041120 0.094710 0.086750 -0.537531
C44   C     C_R   0.872051 0.114529 0.113858 0.789713
V4    V     V_3+5 0.148810 0.011930 0.002180 1.476684
O20   O     O_3   0.871750 0.936430 0.988010 -0.382501
N1    N     N_2   0.947587 0.160130 0.503182 -0.515876
H20   H     H_    0.052651 0.106674 0.489994 0.265285
C45   C     C_3   0.775588 0.135925 0.462936 -0.532775
H21   H     H_    0.703663 0.069239 0.475179 0.179029
H22   H     H_    0.814714 0.119378 0.408866 0.214038
H23   H     H_    0.674054 0.199586 0.471911 0.213928
N2    N     N_2   0.436371 0.843307 0.498113 -0.531056
H24   H     H_    0.536400 0.899950 0.511876 0.255877
C46   C     C_3   0.261128 0.862855 0.536867 -0.571784
H25   H     H_    0.182306 0.925409 0.522345 0.188835
H26   H     H_    0.296782 0.883438 0.591188 0.200488
H27   H     H_    0.167076 0.795576 0.528562 0.207853
I1    I     I_    0.236699 0.466764 0.057276 -0.354373
I2    I     I_    0.737972 0.345782 0.032675 -0.321303
I3    I     I_    0.249326 0.240482 0.350800 -0.448556

loop_
_geom_bond_atom_site_label_1
_geom_bond_atom_site_label_2
_ccdc_geom_bond_type
C22   H9    S    
C2    C28   S    
C1    O6    A    
C45   H21   S    
C6    C16   A    
C8    H5    S    
C15   H6    S    
C12   C13   A    
C35   C36   A    
C14   C15   A    
O14   C42   A    
C19   C21   S    
O5    C3    A    
C19   I3    S    
O15   C43   A    
V2    O10   S    
C46   H27   S    
C29   C30   A    
C37   H19   S    
O11   C42   A    
O8    V2    S    
C33   C40   A    
C27   H15   S    
C26   H13   S    
C46   H26   S    
O17   V4    S    
C9    C10   A    
C24   C42   S    
O1    V2    S    
O7    V1    S    
C39   N2    S    
C7    I2    S    
C38   H16   S    
C11   C18   A    
C21   H8    S    
C32   C33   A    
O9    C4    A    
O12   C41   A    
C34   C35   A    
O12   V3    S    
C28   C38   A    
C23   H10   S    
C24   H11   S    
C11   C15   A    
C7    C18   A    
C32   C34   A    
C5    C13   A    
C4    C6    S    
H1    C14   S    
C10   C11   A    
O4    C2    A    
V4    O20   S    
C31   H18   S    
C31   C32   A    
O18   V4    S    
C30   I1    S    
O18   C43   A    
O2    C1    A    
C19   C20   D    
C45   H22   S    
O15   V3    S    
C9    H4    S    
C46   H25   S    
O19   C44   A    
N2    C46   S    
V3    O20   S    
O3    C4    A    
C21   C22   D    
N1    C45   S    
C12   C16   A    
O6    V2    S    
O9    V2    S    
C5    C17   A    
C40   C41   S    
O13   V3    S    
O2    V1    S    
C28   C39   A    
C27   C39   A    
C23   C24   D    
C45   H23   S    
C18   C43   S    
C25   C26   D    
C17   N1    S    
C16   H3    S    
O1    C2    A    
C10   C12   A    
O17   V3    S    
O14   V3    S    
O5    V1    S    
O11   V4    S    
O8    C3    A    
C29   C40   A    
C22   C44   S    
C1    C26   S    
C33   C37   A    
O7    V2    S    
O4    V1    S    
O3    V1    S    
V1    O10   S    
H14   C36   S    
C30   C31   A    
C20   H7    S    
C25   H12   S    
C5    H2    S    
O13   C44   A    
C3    C20   S    
N2    H24   S    
C36   C37   A    
C34   C38   A    
N1    H20   S    
C29   H17   S    
C13   C14   A    
C8    C9    A    
O19   V4    S    
C27   C35   A    
C7    C8    A    
C41   O16   A    
O16   V4    S    
C23   C25   S    
C6    C17   A    
