data_str_m3_o40_o41_f0_fof.sym.118
_audit_creation_date              2012-12-10T16:37:46-0500
_audit_creation_method            fapswitch 2.2
_symmetry_space_group_name_H-M    P1
_symmetry_Int_Tables_number       1
_space_group_crystal_system       triclinic
_cell_length_a                    28.130208
_cell_length_b                    18.499919
_cell_length_c                    17.083009
_cell_angle_alpha                 90.554115
_cell_angle_beta                  62.142764
_cell_angle_gamma                 90.272925
_cell_volume                      7859.50857701

loop_
_atom_site_label
_atom_site_type_symbol
_atom_type_description
_atom_site_fract_x
_atom_site_fract_y
_atom_site_fract_z
_atom_type_partial_charge
C1    C     C_R   0.704506 0.274517 0.674792 0.887579
C2    C     C_R   0.290695 0.717830 0.330504 0.881297
C3    C     C_R   0.292303 0.279377 0.328767 0.883841
C4    C     C_R   0.703573 0.729304 0.675532 0.906904
C5    C     C_R   0.202962 0.769447 0.675853 0.898027
C6    C     C_R   0.795585 0.225590 0.325172 0.903564
C7    C     C_R   0.792069 0.779772 0.328906 0.866545
C8    C     C_R   0.203671 0.229243 0.675365 0.900640
C9    C     C_R   0.906140 0.495123 0.477092 0.073528
C10   C     C_R   0.095719 0.495696 0.510823 0.068034
C11   C     C_R   0.406306 0.994959 0.476681 0.074916
C12   C     C_R   0.596246 0.995379 0.509361 0.074723
C13   C     C_R   0.114473 0.374267 0.448724 -0.214498
C14   C     C_R   0.882711 0.612376 0.549826 -0.213682
C15   C     C_R   0.927126 0.373966 0.413516 -0.208175
C16   C     C_R   0.074826 0.615734 0.576546 -0.226331
C17   C     C_R   0.614763 0.873786 0.447968 -0.217250
C18   C     C_R   0.382932 0.112178 0.549528 -0.213526
C19   C     C_R   0.427147 0.873722 0.413314 -0.205947
C20   C     C_R   0.575175 0.115187 0.575693 -0.227603
C21   C     C_R   0.720947 0.270748 0.954315 0.025575
C22   C     C_R   0.272647 0.722965 0.054706 0.044672
C23   C     C_R   0.276788 0.267223 0.051833 -0.007805
C24   C     C_R   0.715623 0.740565 0.960301 -0.009237
C25   C     C_R   0.213664 0.755151 0.962218 0.052953
C26   C     C_R   0.780540 0.231863 0.044654 0.014714
C27   C     C_R   0.775004 0.770427 0.052668 -0.007315
C28   C     C_R   0.218386 0.235022 0.958291 -0.011251
C29   C     C_R   0.776042 0.250971 0.905935 0.096624
C30   C     C_R   0.218462 0.747247 0.101275 0.063671
C31   C     C_R   0.222328 0.244500 0.097757 0.092124
C32   C     C_R   0.767585 0.771501 0.916676 0.107702
C33   C     C_R   0.264547 0.721027 0.918636 0.053098
C34   C     C_R   0.725499 0.251852 0.092890 0.061258
C35   C     C_R   0.720488 0.747525 0.098883 0.094436
C36   C     C_R   0.270456 0.265333 0.914795 0.113227
C37   C     C_R   0.805242 0.226877 0.951046 0.000333
C38   C     C_R   0.191273 0.772258 0.053495 -0.049365
C39   C     C_R   0.195117 0.219896 0.049747 0.002377
C40   C     C_R   0.800313 0.776152 0.959969 0.030429
C41   C     C_R   0.297636 0.715373 0.961657 -0.081813
C42   C     C_R   0.696528 0.276476 0.047795 -0.044869
C43   C     C_R   0.692635 0.724303 0.051361 0.003850
C44   C     C_R   0.302570 0.271148 0.958976 0.028835
C45   C     C_R   0.636931 0.311468 0.955136 0.013107
C46   C     C_R   0.355396 0.681109 0.056541 -0.068092
C47   C     C_R   0.358632 0.312838 0.054368 0.040108
C48   C     C_R   0.636911 0.689738 0.952948 -0.053020
C49   C     C_R   0.136355 0.810462 0.954518 0.014889
C50   C     C_R   0.864179 0.190292 0.044505 -0.032032
C51   C     C_R   0.857425 0.814506 0.054791 0.038726
C52   C     C_R   0.138902 0.186352 0.951637 -0.043574
C53   C     C_R   0.610632 0.335951 0.905577 -0.108062
C54   C     C_R   0.378532 0.647316 0.106808 -0.181590
C55   C     C_R   0.380723 0.349295 0.104983 -0.122106
C56   C     C_R   0.617720 0.653432 0.898656 -0.170950
C57   C     C_R   0.117318 0.846051 0.899790 -0.121778
C58   C     C_R   0.889977 0.164642 0.094330 -0.199641
C59   C     C_R   0.879341 0.851154 0.105688 -0.120741
C60   C     C_R   0.117295 0.153754 0.898739 -0.169337
C61   C     C_R   0.629506 0.312470 0.818678 -0.126740
C62   C     C_R   0.351604 0.650165 0.199287 -0.118193
C63   C     C_R   0.354530 0.345022 0.197476 -0.141600
C64   C     C_R   0.646379 0.659278 0.806691 -0.102268
C65   C     C_R   0.145905 0.839118 0.808145 -0.147846
C66   C     C_R   0.870713 0.186953 0.181777 -0.102500
C67   C     C_R   0.851899 0.848795 0.198422 -0.132515
C68   C     C_R   0.142787 0.163482 0.807327 -0.132345
C69   C     C_R   0.683285 0.291166 0.770246 -0.174567
C70   C     C_R   0.305727 0.691451 0.240872 -0.165016
C71   C     C_R   0.308597 0.303479 0.238517 -0.149647
C72   C     C_R   0.684593 0.713716 0.769913 -0.173117
C73   C     C_R   0.183362 0.784033 0.771122 -0.154645
C74   C     C_R   0.817102 0.209164 0.229656 -0.139126
C75   C     C_R   0.807532 0.804591 0.238972 -0.163784
C76   C     C_R   0.184676 0.213166 0.769447 -0.169956
C77   C     C_R   0.715873 0.285866 0.814577 0.061969
C78   C     C_R   0.275511 0.707059 0.195290 0.078769
C79   C     C_R   0.278924 0.286406 0.192306 0.070638
C80   C     C_R   0.708650 0.743705 0.821600 0.075860
C81   C     C_R   0.206363 0.752760 0.823257 0.076281
C82   C     C_R   0.784915 0.215349 0.184777 0.068806
C83   C     C_R   0.777928 0.786867 0.192880 0.072383
C84   C     C_R   0.210940 0.239158 0.819790 0.083362
C85   C     C_R   0.693238 0.128266 0.527897 0.917971
C86   C     C_R   0.309245 0.869544 0.461381 0.921165
C87   C     C_R   0.304865 0.127504 0.477370 0.902939
C88   C     C_R   0.700953 0.870735 0.504877 0.859426
C89   C     C_R   0.193165 0.628281 0.528351 0.867347
C90   C     C_R   0.809231 0.369573 0.461464 0.890373
C91   C     C_R   0.804842 0.627521 0.477398 0.904276
C92   C     C_R   0.200084 0.370876 0.507005 0.889174
C93   C     C_R   0.691139 0.288974 0.908214 0.041638
C94   C     C_R   0.301160 0.703591 0.101946 0.072889
C95   C     C_R   0.304863 0.288652 0.099310 0.051040
C96   C     C_R   0.687451 0.723788 0.911371 0.084194
C97   C     C_R   0.185935 0.773838 0.913071 0.039310
C98   C     C_R   0.810000 0.212883 0.091081 0.077075
C99   C     C_R   0.803533 0.790431 0.099873 0.052966
C100  C     C_R   0.189932 0.218879 0.909411 0.081197
C101  C     C_R   0.612046 0.311551 0.049117 0.011886
C102  C     C_R   0.384028 0.693802 0.963893 -0.025642
C103  C     C_R   0.387538 0.298800 0.961868 -0.095800
C104  C     C_R   0.610076 0.688727 0.046619 -0.081827
C105  C     C_R   0.110225 0.814003 0.048435 0.006615
C106  C     C_R   0.889834 0.192354 0.950666 -0.090616
C107  C     C_R   0.886179 0.801207 0.961885 -0.099497
C108  C     C_R   0.112645 0.185644 0.045089 -0.075814
C109  C     C_R   0.644515 0.308876 0.092177 -0.142309
C110  C     C_R   0.354795 0.706299 0.915522 -0.059948
C111  C     C_R   0.359551 0.278278 0.914041 -0.096897
C112  C     C_R   0.641073 0.690394 0.091934 -0.026718
C113  C     C_R   0.141420 0.810313 0.093539 -0.146836
C114  C     C_R   0.858009 0.196401 0.906481 -0.016589
C115  C     C_R   0.857453 0.783117 0.914314 -0.090650
C116  C     C_R   0.143564 0.186652 0.090217 -0.014080
C117  C     C_R   0.772330 0.279771 0.769325 -0.166303
C118  C     C_R   0.219930 0.721272 0.240007 -0.152604
C119  C     C_R   0.223511 0.271744 0.236061 -0.163914
C120  C     C_R   0.753325 0.791503 0.788824 -0.183028
C121  C     C_R   0.248968 0.701910 0.790945 -0.170867
C122  C     C_R   0.728473 0.221529 0.229598 -0.150221
C123  C     C_R   0.722658 0.771304 0.236961 -0.168321
C124  C     C_R   0.256889 0.284887 0.786300 -0.192123
C125  C     C_R   0.801597 0.263570 0.814025 -0.122832
C126  C     C_R   0.192034 0.740098 0.193999 -0.248603
C127  C     C_R   0.195650 0.253136 0.190037 -0.124231
C128  C     C_R   0.783167 0.802592 0.833836 -0.161210
C129  C     C_R   0.278331 0.688442 0.836255 -0.239849
C130  C     C_R   0.699570 0.238581 0.184613 -0.243316
C131  C     C_R   0.694385 0.754107 0.191295 -0.125014
C132  C     C_R   0.286744 0.295274 0.831281 -0.172746
C133  C     C_R   0.073820 0.100425 0.934863 0.846545
C134  C     C_R   0.925447 0.900291 0.066025 0.997888
C135  C     C_R   0.929110 0.104118 0.062730 0.865334
C136  C     C_R   0.073969 0.899716 0.934648 0.987525
C137  C     C_R   0.574247 0.599971 0.934453 0.868294
C138  C     C_R   0.425992 0.399675 0.065586 0.969692
C139  C     C_R   0.425489 0.599730 0.066328 0.854794
C140  C     C_R   0.571162 0.396099 0.937062 0.967198
C141  C     C_R   0.526000 0.113861 0.572788 0.103269
C142  C     C_R   0.473892 0.873097 0.422362 0.100362
C143  C     C_R   0.429755 0.112489 0.559088 0.097576
C144  C     C_R   0.567830 0.873058 0.440276 0.106080
C145  C     C_R   0.025721 0.614405 0.573306 0.099725
C146  C     C_R   0.973885 0.373488 0.422501 0.098878
C147  C     C_R   0.929550 0.612849 0.559319 0.095974
C148  C     C_R   0.067722 0.373603 0.440592 0.105312
C149  C     C_R   0.490156 0.172329 0.604927 -0.170649
C150  C     C_R   0.508290 0.813193 0.393722 -0.168503
C151  C     C_R   0.442396 0.171589 0.598229 -0.121637
C152  C     C_R   0.554901 0.813041 0.403021 -0.201159
C153  C     C_R   0.989895 0.672921 0.605132 -0.174893
C154  C     C_R   0.008438 0.313766 0.393504 -0.163167
C155  C     C_R   0.942214 0.672114 0.598187 -0.120144
C156  C     C_R   0.055042 0.313722 0.402793 -0.206630
C157  C     C_R   0.465141 0.053521 0.527312 0.025554
C158  C     C_R   0.533694 0.933296 0.469355 0.032295
C159  C     C_R   0.512924 0.053911 0.534968 0.029933
C160  C     C_R   0.486497 0.933249 0.460641 0.028131
C161  C     C_R   0.964924 0.553885 0.527736 0.026130
C162  C     C_R   0.033500 0.433743 0.469872 0.033802
C163  C     C_R   0.012657 0.554361 0.535554 0.030004
C164  C     C_R   0.986369 0.433623 0.461007 0.025927
C165  C     C_R   0.952357 0.494128 0.488983 -0.039883
C166  C     C_R   0.047137 0.494551 0.505883 -0.038660
C167  C     C_R   0.452541 0.993844 0.488537 -0.039853
C168  C     C_R   0.547460 0.994124 0.505054 -0.040746
C169  C     C_R   0.892209 0.433730 0.442907 0.043171
C170  C     C_R   0.112114 0.558231 0.540214 0.041496
C171  C     C_R   0.128387 0.434006 0.485787 0.052273
C172  C     C_R   0.872975 0.556699 0.501189 0.029042
C173  C     C_R   0.392308 0.933597 0.442567 0.045201
C174  C     C_R   0.612626 0.057949 0.538504 0.024723
C175  C     C_R   0.629081 0.933773 0.484113 0.066624
C176  C     C_R   0.373157 0.056588 0.500841 0.030328
C177  C     C_R   0.843283 0.434055 0.439050 -0.208243
C178  C     C_R   0.166602 0.561335 0.526207 -0.160746
C179  C     C_R   0.175548 0.435422 0.495210 -0.130581
C180  C     C_R   0.832885 0.560621 0.472129 -0.163838
C181  C     C_R   0.343337 0.933994 0.438837 -0.215503
C182  C     C_R   0.667260 0.061451 0.523293 -0.129300
C183  C     C_R   0.676723 0.935493 0.492461 -0.186302
C184  C     C_R   0.332985 0.060580 0.471935 -0.162256
C185  C     C_R   0.820948 0.499357 0.435247 -0.106313
C186  C     C_R   0.199313 0.500183 0.494248 -0.111115
C187  C     C_R   0.320999 0.999328 0.435099 -0.108700
C188  C     C_R   0.700534 0.000894 0.489785 -0.103563
H1    H     H_    0.081128 0.266860 0.380561 0.142200
H2    H     H_    0.915762 0.718579 0.621479 0.157988
H3    H     H_    0.999363 0.267122 0.363942 0.180019
H4    H     H_    0.999102 0.719747 0.634197 0.135649
H5    H     H_    0.580820 0.766015 0.381148 0.142519
H6    H     H_    0.415846 0.217943 0.622026 0.153342
H7    H     H_    0.499090 0.766483 0.364430 0.178250
H8    H     H_    0.499442 0.219078 0.633997 0.141516
H9    H     H_    0.140697 0.328842 0.421737 0.153929
H10   H     H_    0.854321 0.655537 0.581908 0.180248
H11   H     H_    0.919066 0.328640 0.380783 0.174951
H12   H     H_    0.083220 0.661707 0.607670 0.172377
H13   H     H_    0.640821 0.828210 0.421335 0.152414
H14   H     H_    0.354583 0.155384 0.581602 0.179593
H15   H     H_    0.419018 0.828381 0.380697 0.175358
H16   H     H_    0.583532 0.161063 0.606997 0.175890
H17   H     H_    0.795210 0.290058 0.699310 0.175146
H18   H     H_    0.196593 0.714275 0.310734 0.175056
H19   H     H_    0.200063 0.278149 0.306056 0.149534
H20   H     H_    0.767075 0.822199 0.729214 0.187786
H21   H     H_    0.260838 0.670425 0.731544 0.186038
H22   H     H_    0.705336 0.210573 0.299410 0.181809
H23   H     H_    0.699452 0.776133 0.307108 0.149409
H24   H     H_    0.271522 0.315573 0.726640 0.185434
H25   H     H_    0.844889 0.262412 0.775414 0.153874
H26   H     H_    0.148955 0.746435 0.232046 0.148745
H27   H     H_    0.152553 0.247938 0.227879 0.144209
H28   H     H_    0.817896 0.837760 0.804214 0.135736
H29   H     H_    0.310793 0.649698 0.807518 0.178691
H30   H     H_    0.656220 0.239740 0.222708 0.147904
H31   H     H_    0.651364 0.748242 0.229612 0.140075
H32   H     H_    0.321865 0.329735 0.801314 0.129491
O1    O     O_R   0.746490 0.236330 0.638080 -0.630666
O2    O     O_R   0.253510 0.763670 0.361920 -0.640373
O3    O     O_R   0.253510 0.236330 0.361920 -0.641820
O4    O     O_R   0.746490 0.763670 0.638080 -0.658346
O5    O     O_R   0.246490 0.736330 0.638080 -0.647077
O6    O     O_R   0.753510 0.263670 0.361920 -0.649615
O7    O     O_R   0.753510 0.736330 0.361920 -0.638711
O8    O     O_R   0.246490 0.263670 0.638080 -0.660529
O9    O     O_R   0.674170 0.186160 0.516270 -0.647489
O10   O     O_R   0.325830 0.813840 0.483730 -0.629412
O11   O     O_R   0.325830 0.186160 0.483730 -0.644688
O12   O     O_R   0.674170 0.813840 0.516270 -0.624720
O13   O     O_R   0.174170 0.686160 0.516270 -0.646225
O14   O     O_R   0.825830 0.313840 0.483730 -0.646863
O15   O     O_R   0.825830 0.686160 0.483730 -0.643213
O16   O     O_R   0.174170 0.313840 0.516270 -0.639727
O17   O     O_R   0.739960 0.127620 0.525000 -0.608942
O18   O     O_R   0.260040 0.872380 0.475000 -0.568650
O19   O     O_R   0.260040 0.127620 0.475000 -0.570086
O20   O     O_R   0.739960 0.872380 0.525000 -0.650160
O21   O     O_R   0.239960 0.627620 0.525000 -0.659062
O22   O     O_R   0.760040 0.372380 0.475000 -0.573418
O23   O     O_R   0.760040 0.627620 0.475000 -0.569665
O24   O     O_R   0.239960 0.372380 0.525000 -0.642229
O25   O     O_R   0.680700 0.294870 0.629350 -0.614717
O26   O     O_R   0.319300 0.705130 0.370650 -0.631645
O27   O     O_R   0.319300 0.294870 0.370650 -0.622472
O28   O     O_R   0.680700 0.705130 0.629350 -0.595035
O29   O     O_R   0.180700 0.794870 0.629350 -0.610797
O30   O     O_R   0.819300 0.205130 0.370650 -0.603388
O31   O     O_R   0.819300 0.794870 0.370650 -0.623595
O32   O     O_R   0.180700 0.205130 0.629350 -0.604984
O33   O     O_R   0.062020 0.072840 0.007170 -0.629026
O34   O     O_R   0.937980 0.927160 0.992830 -0.641667
O35   O     O_R   0.937980 0.072840 0.992830 -0.627084
O36   O     O_R   0.062020 0.927160 0.007170 -0.610067
O37   O     O_R   0.562020 0.572840 0.007170 -0.627223
O38   O     O_R   0.437980 0.427160 0.992830 -0.644310
O39   O     O_R   0.437980 0.572840 0.992830 -0.600228
O40   O     O_R   0.562020 0.427160 0.007170 -0.606353
O41   O     O_R   0.947860 0.073950 0.109290 -0.605831
O42   O     O_R   0.052140 0.926050 0.890710 -0.622753
O43   O     O_R   0.052140 0.073950 0.890710 -0.619129
O44   O     O_R   0.947860 0.926050 0.109290 -0.602200
O45   O     O_R   0.447860 0.573950 0.109290 -0.621480
O46   O     O_R   0.552140 0.426050 0.890710 -0.626293
O47   O     O_R   0.552140 0.573950 0.890710 -0.590164
O48   O     O_R   0.447860 0.426050 0.109290 -0.615109
Zn1   Zn    Zn3+2 0.792340 0.208750 0.507670 1.001396
Zn2   Zn    Zn3+2 0.207660 0.791250 0.492330 1.010205
Zn3   Zn    Zn3+2 0.207660 0.208750 0.492330 1.034995
Zn4   Zn    Zn3+2 0.792340 0.791250 0.507670 0.947478
Zn5   Zn    Zn3+2 0.292340 0.708750 0.507670 0.961189
Zn6   Zn    Zn3+2 0.707660 0.291250 0.492330 1.019041
Zn7   Zn    Zn3+2 0.707660 0.708750 0.492330 1.043228
Zn8   Zn    Zn3+2 0.292340 0.291250 0.507670 0.952968
Zn9   Zn    Zn3+2 0.505960 0.500000 0.080520 1.041713
Zn10  Zn    Zn3+2 0.494040 0.500000 0.919480 1.031402
Zn11  Zn    Zn3+2 0.005960 0.000000 0.080520 1.038852
Zn12  Zn    Zn3+2 0.994040 1.000000 0.919480 0.979138
C189  C     C_2   0.790295 0.502350 0.384164 0.490547
H33   H     H_    0.811928 0.501526 0.312386 0.039993
O49   O     O_2   0.741185 0.502871 0.421635 -0.512454
C190  C     C_2   0.258864 0.503438 0.441618 0.458836
H34   H     H_    0.283984 0.512563 0.473363 0.098962
O50   O     O_2   0.279868 0.493396 0.361754 -0.616805
C191  C     C_2   0.290221 0.002354 0.384224 0.491298
H35   H     H_    0.311765 0.001660 0.312440 0.040493
O51   O     O_2   0.241109 0.002800 0.421868 -0.512861
C192  C     C_2   0.759927 0.006599 0.434035 0.440432
H36   H     H_    0.787393 0.978012 0.450754 0.098562
O52   O     O_2   0.778437 0.044095 0.367853 -0.576746
C193  C     C_1   0.593609 0.311563 0.779230 0.315852
N1    N     N_1   0.566148 0.310696 0.745703 -0.229770
C194  C     C_1   0.368693 0.608059 0.253691 0.364217
N2    N     N_1   0.382494 0.575665 0.297126 -0.160968
C195  C     C_1   0.372446 0.386150 0.252446 0.365063
N3    N     N_1   0.386856 0.417841 0.296268 -0.161050
C196  C     C_1   0.642759 0.602645 0.749485 0.277153
N4    N     N_1   0.640122 0.557569 0.704157 -0.154920
C197  C     C_1   0.142334 0.894535 0.750974 0.248635
N5    N     N_1   0.139944 0.937849 0.704603 -0.157370
C198  C     C_1   0.905665 0.183481 0.222913 0.277667
N6    N     N_1   0.932537 0.179997 0.257334 -0.145920
C199  C     C_1   0.864985 0.896985 0.253852 0.290005
N7    N     N_1   0.875663 0.935102 0.297505 -0.175083
C200  C     C_1   0.127728 0.119360 0.750807 0.315165
N8    N     N_1   0.115441 0.085516 0.705741 -0.143000
C201  C     C_2   0.552862 0.300329 0.103510 0.473738
H37   H     H_    0.533973 0.303404 0.175116 0.106585
O53   O     O_2   0.524859 0.282293 0.069519 -0.555494
C202  C     C_2   0.443123 0.708476 0.924593 0.477324
H38   H     H_    0.460006 0.724266 0.967836 0.001248
O54   O     O_2   0.473730 0.702275 0.845640 -0.511494
C203  C     C_2   0.446950 0.293645 0.917258 0.445917
H39   H     H_    0.469696 0.313214 0.850621 0.045610
O55   O     O_2   0.470511 0.266705 0.954348 -0.531288
C204  C     C_2   0.550687 0.700063 0.095866 0.432227
H40   H     H_    0.527445 0.703576 0.060167 0.052323
O56   O     O_2   0.527383 0.709789 0.175911 -0.625679
C205  C     C_2   0.050960 0.803532 0.100823 0.483583
H41   H     H_    0.030920 0.808983 0.172315 0.102858
O57   O     O_2   0.024179 0.784021 0.065185 -0.548972
C206  C     C_2   0.949456 0.201944 0.900147 0.427685
H42   H     H_    0.973943 0.200413 0.933754 0.053167
O58   O     O_2   0.971768 0.216805 0.821552 -0.597119
C207  C     C_2   0.945818 0.793347 0.917068 0.460025
H43   H     H_    0.969887 0.808956 0.848613 0.025000
O59   O     O_2   0.968558 0.767565 0.956140 -0.523490
C208  C     C_2   0.054646 0.204239 0.094682 0.417144
H44   H     H_    0.029061 0.201798 0.063006 0.049075
O60   O     O_2   0.035769 0.228397 0.170004 -0.615376
C209  C     C_2   0.629862 0.355624 0.172191 0.376007
H45   H     H_    0.658306 0.364620 0.197450 0.113140
O61   O     O_2   0.587629 0.389176 0.207309 -0.585679
C210  C     C_2   0.384023 0.721623 0.819333 0.470476
H46   H     H_    0.375374 0.770781 0.794189 0.058809
O62   O     O_2   0.414985 0.677341 0.767193 -0.516335
C211  C     C_2   0.390635 0.251078 0.821558 0.377876
H47   H     H_    0.426324 0.279076 0.774274 0.020802
O63   O     O_2   0.376933 0.195577 0.798365 -0.545478
C212  C     C_2   0.624350 0.640637 0.168480 0.418321
H48   H     H_    0.582590 0.625494 0.207959 0.124190
O64   O     O_2   0.657730 0.611571 0.184427 -0.549429
C213  C     C_2   0.127849 0.859863 0.170693 0.379139
H49   H     H_    0.156423 0.869039 0.195660 0.112109
O65   O     O_2   0.086282 0.894955 0.203841 -0.586734
C214  C     C_2   0.875312 0.151087 0.824941 0.392399
H50   H     H_    0.917307 0.138847 0.782459 0.126486
O66   O     O_2   0.842203 0.122047 0.807678 -0.570851
C215  C     C_2   0.887918 0.758163 0.820848 0.370839
H51   H     H_    0.923221 0.787121 0.773980 0.017570
O67   O     O_2   0.874143 0.703452 0.796286 -0.548927
C216  C     C_2   0.124840 0.139645 0.169448 0.418321
H52   H     H_    0.082503 0.126909 0.208436 0.111445
O68   O     O_2   0.156898 0.110462 0.188446 -0.551273

loop_
_geom_bond_atom_site_label_1
_geom_bond_atom_site_label_2
_ccdc_geom_bond_type
C154  H3    S    
C85   C182  S    
C68   C200  S    
C9    C169  A    
C34   C42   A    
C181  C187  A    
C127  H27   S    
C197  N5    T    
O46   Zn10  S    
C27   C99   A    
C170  C178  A    
C175  C183  A    
C190  H34   S    
C118  H18   S    
C42   C109  A    
C24   C96   A    
C149  H8    S    
C30   C38   A    
C1    O1    A    
O18   Zn2   S    
O7    Zn7   S    
C125  H25   S    
C206  H42   S    
C191  O51   D    
C147  C155  A    
C143  C151  A    
C90   C177  S    
C11   C167  A    
C82   C98   A    
O12   Zn7   S    
C76   C84   A    
C73   C81   A    
C161  C163  A    
C162  C164  A    
C66   C198  S    
C203  O55   D    
C208  H44   S    
C6    O30   A    
C84   C100  A    
C85   O9    A    
C133  O33   A    
C212  H48   S    
C37   C114  A    
C27   C35   A    
C10   C171  A    
C209  H45   S    
C21   C29   A    
O48   Zn9   S    
C92   O16   A    
C81   C121  A    
C23   C31   A    
C24   C32   A    
O3    Zn3   S    
C112  C212  S    
O4    Zn4   S    
C198  N6    T    
C146  C154  A    
C102  C202  S    
C120  C128  A    
C17   H13   S    
C134  O34   A    
C88   O12   A    
C63   C71   A    
O10   Zn5   S    
C36   C44   A    
C10   C170  A    
C12   C174  A    
C176  C184  A    
C140  O40   A    
O5    Zn5   S    
O29   Zn2   S    
C210  H46   S    
C137  O37   A    
C148  C162  A    
C104  C204  S    
C1    O25   A    
C183  C188  A    
O40   Zn9   S    
C108  C116  A    
C21   C93   A    
C78   C94   A    
C214  H50   S    
C86   O18   A    
C5    O5    A    
C49   C97   A    
C21   C42   A    
C40   C115  A    
C51   C107  A    
C205  H41   S    
C24   C43   A    
C16   C145  A    
C108  C208  S    
C82   C122  A    
C161  C165  A    
C17   C175  A    
C18   C176  A    
C138  O38   A    
O37   Zn9   S    
C29   C125  A    
C69   C77   A    
C215  H51   S    
C31   C127  A    
C45   C93   A    
C174  C182  A    
C71   C79   A    
C8    O8    A    
C179  C186  A    
C62   C70   A    
C11   C176  A    
C13   H9    S    
C17   C144  A    
C151  H6    S    
C105  C113  A    
C18   C143  A    
C78   C118  A    
O8    Zn8   S    
C149  C151  A    
O43   Zn12  S    
C66   C74   A    
C91   O15   A    
C8    C76   S    
C103  C203  S    
C202  H38   S    
C124  C132  A    
C89   O13   A    
C130  H30   S    
C110  C210  S    
C52   C60   A    
C59   C67   A    
C53   C61   A    
C141  C159  A    
C20   C174  A    
C116  C216  S    
C55   C63   A    
C86   C181  S    
C122  H22   S    
C89   O21   A    
O33   Zn11  S    
C16   H12   S    
C156  H1    S    
C139  O45   A    
C45   C53   A    
C22   C94   A    
C171  C179  A    
C169  C177  A    
C51   C59   A    
C201  O53   D    
C50   C98   A    
C87   O19   A    
O28   Zn7   S    
O13   Zn2   S    
C207  O59   D    
O1    Zn1   S    
C145  C163  A    
C65   C197  S    
C146  C164  A    
C14   C147  A    
C52   C100  A    
C7    O31   A    
O25   Zn6   S    
C132  H32   S    
C178  C186  A    
C193  N1    T    
C25   C38   A    
C54   C139  S    
C46   C94   A    
C27   C40   A    
C10   C166  A    
C57   C65   A    
C91   C180  S    
C50   C58   A    
C182  C188  A    
C89   C178  S    
C60   C68   A    
C128  H28   S    
C25   C97   A    
C199  N7    T    
C90   O22   A    
C140  O46   A    
C153  C155  A    
O23   Zn7   S    
C67   C199  S    
C133  O43   A    
C8    O32   A    
C3    O3    A    
C22   C30   A    
C20   C141  A    
O31   Zn4   S    
C15   C146  A    
O32   Zn3   S    
C58   C135  S    
C68   C76   A    
O6    Zn6   S    
C141  C149  A    
O47   Zn10  S    
C184  C187  A    
C83   C123  A    
C32   C128  A    
C190  O50   D    
C72   C80   A    
C56   C137  S    
O11   Zn8   S    
C150  C152  A    
C5    C73   S    
C150  H7    S    
C13   C171  A    
C67   C75   A    
C206  O58   D    
C216  H52   S    
O24   Zn8   S    
C23   C95   A    
O30   Zn1   S    
C117  C125  A    
C25   C33   A    
C119  C127  A    
C105  C205  S    
O35   Zn12  S    
O36   Zn11  S    
C157  C167  A    
C30   C126  A    
C158  C168  A    
C208  O60   D    
C164  C165  A    
C117  H17   S    
C212  O64   D    
C22   C41   A    
C101  C109  A    
C88   O20   A    
C2    O2    A    
O44   Zn11  S    
C177  C185  A    
C103  C111  A    
C192  H36   S    
O21   Zn5   S    
C129  H29   S    
C126  H26   S    
C48   C96   A    
C162  C166  A    
O34   Zn12  S    
C75   C83   A    
C79   C119  A    
O38   Zn10  S    
C213  O65   D    
C154  C156  A    
C172  C180  A    
C173  C181  A    
C203  H39   S    
C157  C159  A    
C83   C99   A    
C158  C160  A    
C3    O27   A    
C74   C82   A    
C6    C74   S    
C209  O61   D    
O9    Zn6   S    
C63   C195  S    
C47   C103  A    
C136  O42   A    
C200  N8    T    
C86   O10   A    
C5    O29   A    
C163  C166  A    
C20   H16   S    
C210  O62   D    
C147  C161  A    
C194  N2    T    
C38   C113  A    
C49   C105  A    
C124  H24   S    
C28   C39   A    
O15   Zn4   S    
O16   Zn3   S    
C1    C69   S    
C23   C44   A    
C120  H20   S    
C3    C71   S    
C196  N4    T    
C19   C173  A    
C79   C95   A    
C92   C179  S    
C14   H10   S    
C211  H47   S    
O41   Zn11  S    
O42   Zn12  S    
C46   C54   A    
C64   C196  S    
C214  O66   D    
C62   C194  S    
C18   H14   S    
C45   C101  A    
C113  C213  S    
C19   C142  A    
C61   C193  S    
C102  C110  A    
C189  O49   D    
C35   C131  A    
C4    C72   S    
O14   Zn1   S    
C33   C129  A    
C134  O44   A    
C59   C134  S    
C36   C132  A    
C123  C131  A    
O26   Zn5   S    
C121  C129  A    
C215  O67   D    
C26   C37   A    
C7    O7    A    
C54   C62   A    
C33   C41   A    
C142  C150  A    
C9    C165  A    
C2    O26   A    
C207  H43   S    
O45   Zn9   S    
C138  O48   A    
C6    O6    A    
C77   C93   A    
C202  O54   D    
C85   O17   A    
C44   C111  A    
C16   C170  A    
C28   C36   A    
C144  C152  A    
C39   C116  A    
C29   C37   A    
C50   C106  A    
C9    C172  A    
O17   Zn1   S    
C148  C156  A    
C135  O35   A    
O27   Zn8   S    
C2    C70   S    
C60   C133  S    
C80   C120  A    
C70   C78   A    
C53   C140  S    
C137  O47   A    
C195  N3    T    
C49   C57   A    
C201  H37   S    
C46   C102  A    
C15   C169  A    
C55   C138  S    
C81   C97   A    
C152  H5    S    
C106  C114  A    
C155  H2    S    
C77   C117  A    
C48   C104  A    
C65   C73   A    
C159  C168  A    
C90   O14   A    
C131  H31   S    
C160  C167  A    
C4    O28   A    
C104  C112  A    
C58   C66   A    
C191  H35   S    
C205  O57   D    
C123  H23   S    
C204  O56   D    
C57   C136  S    
C121  H21   S    
C80   C96   A    
C145  C153  A    
C28   C100  A    
C32   C40   A    
C52   C108  A    
C187  C191  S    
C19   H15   S    
C26   C34   A    
C143  C157  A    
C51   C99   A    
C11   C173  A    
O22   Zn6   S    
C14   C172  A    
C87   C184  S    
C88   C183  S    
C7    C75   S    
C189  H33   S    
C4    O4    A    
C204  H40   S    
C15   H11   S    
C56   C64   A    
C107  C207  S    
C107  C115  A    
C186  C190  S    
C26   C98   A    
C12   C175  A    
C211  O63   D    
C91   O23   A    
C135  O41   A    
C216  O68   D    
C41   C110  A    
C111  C211  S    
C119  H19   S    
C43   C112  A    
C144  C158  A    
C35   C43   A    
C47   C55   A    
C61   C69   A    
C48   C56   A    
C106  C206  S    
C136  O36   A    
C142  C160  A    
C12   C168  A    
C188  C192  S    
C139  O39   A    
C84   C124  A    
O19   Zn3   S    
O20   Zn4   S    
C109  C209  S    
C92   O24   A    
C185  C189  S    
C87   O11   A    
C115  C215  S    
C31   C39   A    
C192  O52   D    
C64   C72   A    
C180  C185  A    
O2    Zn2   S    
C101  C201  S    
C34   C130  A    
C47   C95   A    
O39   Zn10  S    
C118  C126  A    
C13   C148  A    
C213  H49   S    
C122  C130  A    
C114  C214  S    
C153  H4    S    
