data_str_m2_o40_o40_f0_fof.sym.43
_audit_creation_date              2012-10-26T17:12:28-0400
_audit_creation_method            fapswitch 2.2
_symmetry_space_group_name_H-M    P1
_symmetry_Int_Tables_number       1
_space_group_crystal_system       triclinic
_cell_length_a                    16.850098
_cell_length_b                    16.781921
_cell_length_c                    16.848341
_cell_angle_alpha                 67.447466
_cell_angle_beta                  67.527418
_cell_angle_gamma                 67.65559
_cell_volume                      3910.61312374

loop_
_atom_site_label
_atom_site_type_symbol
_atom_type_description
_atom_site_fract_x
_atom_site_fract_y
_atom_site_fract_z
_atom_type_partial_charge
C1    C     C_R   0.030967 0.827635 0.563783 0.566919
C2    C     C_R   0.030154 0.564047 0.827965 0.560305
C3    C     C_R   0.171813 0.970193 0.436140 0.580825
C4    C     C_R   0.828233 0.030723 0.563573 0.569439
C5    C     C_R   0.509743 0.944686 0.733021 -0.109571
C6    C     C_R   0.491683 0.056320 0.265363 -0.089985
C7    C     C_R   0.069163 0.705329 0.451306 -0.084790
C8    C     C_R   0.943592 0.293636 0.544455 -0.082526
C9    C     C_R   0.733773 0.509664 0.942775 -0.112777
C10   C     C_R   0.263626 0.510627 0.042189 -0.091223
C11   C     C_R   0.296508 0.934469 0.545847 -0.087185
C12   C     C_R   0.970024 0.171899 0.436179 0.579928
C13   C     C_R   0.702002 0.073084 0.453350 -0.080896
C14   C     C_R   0.537252 0.305106 0.925169 -0.095063
C15   C     C_R   0.456698 0.701843 0.074078 -0.088388
C16   C     C_R   0.056628 0.493800 0.262250 -0.092148
C17   C     C_R   0.053718 0.452633 0.712287 -0.106379
C18   C     C_R   0.550729 0.008661 0.545990 0.047973
C19   C     C_R   0.449638 0.995346 0.452359 0.050097
C20   C     C_R   0.038162 0.536756 0.539530 0.047127
C21   C     C_R   0.011569 0.442570 0.448013 0.049865
C22   C     C_R   0.546976 0.555773 0.001130 0.043827
C23   C     C_R   0.830014 0.568457 0.019061 0.577256
C24   C     C_R   0.450008 0.458384 0.987001 0.044774
C25   C     C_R   0.574742 0.038073 0.451112 0.013803
C26   C     C_R   0.425282 0.966955 0.547164 0.013380
C27   C     C_R   0.021766 0.451717 0.584648 0.014274
C28   C     C_R   0.042935 0.519823 0.399612 0.020207
C29   C     C_R   0.452455 0.582076 0.029445 0.014619
C30   C     C_R   0.544485 0.433071 0.956578 0.013237
C31   C     C_R   0.522650 0.033206 0.404180 0.018823
C32   C     C_R   0.478031 0.970455 0.593965 0.016822
C33   C     C_R   0.404126 0.534290 0.020886 0.018731
C34   C     C_R   0.166875 0.429463 0.989928 0.565640
C35   C     C_R   0.593350 0.483510 0.961911 0.015699
C36   C     C_R   0.999054 0.409483 0.541272 0.013464
C37   C     C_R   0.048552 0.571404 0.446484 0.015865
C38   C     C_R   0.463192 0.933325 0.687362 -0.125117
C39   C     C_R   0.538317 0.068429 0.310556 -0.118341
C40   C     C_R   0.065512 0.655799 0.403519 -0.124490
C41   C     C_R   0.961816 0.336631 0.588790 -0.131443
C42   C     C_R   0.687181 0.465238 0.928888 -0.126526
C43   C     C_R   0.310421 0.558672 0.047759 -0.123453
C44   C     C_R   0.347154 0.937993 0.592198 -0.122619
C45   C     C_R   0.568436 0.019545 0.829717 0.567937
C46   C     C_R   0.651539 0.069707 0.406471 -0.120908
C47   C     C_R   0.586276 0.357274 0.923026 -0.123809
C48   C     C_R   0.409181 0.654543 0.067774 -0.128926
C49   C     C_R   0.070307 0.540675 0.305949 -0.119501
C50   C     C_R   0.034960 0.408727 0.669696 -0.140944
C51   C     C_R   0.572634 0.994648 0.687964 -0.039045
C52   C     C_R   0.428099 0.007050 0.311004 -0.025959
C53   C     C_R   0.053922 0.674600 0.545093 -0.026130
C54   C     C_R   0.964595 0.319385 0.450504 -0.025416
C55   C     C_R   0.689315 0.573392 0.991898 -0.031066
C56   C     C_R   0.431894 0.980029 0.170371 0.618297
C57   C     C_R   0.306609 0.436598 0.007508 -0.006031
C58   C     C_R   0.321236 0.958642 0.451985 -0.032885
C59   C     C_R   0.678313 0.045781 0.547186 -0.027862
C60   C     C_R   0.443884 0.325387 0.961123 -0.026398
C61   C     C_R   0.549697 0.678912 0.043984 -0.020256
C62   C     C_R   0.009928 0.427837 0.308999 -0.025027
C63   C     C_R   0.047787 0.545373 0.677959 -0.027464
C64   C     C_R   0.608898 0.023640 0.733035 -0.034646
C65   C     C_R   0.391690 0.977055 0.266800 0.004060
C66   C     C_R   0.052608 0.726661 0.596197 -0.035989
C67   C     C_R   0.432871 0.170738 0.978277 0.571659
C68   C     C_R   0.954711 0.271252 0.402875 -0.008394
C69   C     C_R   0.734105 0.608889 0.022437 -0.036550
C70   C     C_R   0.258346 0.387779 0.000474 -0.017977
C71   C     C_R   0.271020 0.954249 0.402959 -0.012502
C72   C     C_R   0.728963 0.048302 0.596662 -0.011735
C73   C     C_R   0.391907 0.266013 0.979278 -0.032522
C74   C     C_R   0.598421 0.728979 0.047588 -0.012233
C75   C     C_R   0.977641 0.391955 0.266298 0.003531
C76   C     C_R   0.050702 0.596141 0.727902 -0.027233
C77   C     C_R   0.684229 0.057827 0.683160 0.226983
C78   C     C_R   0.563884 0.828221 0.030651 0.561367
C79   C     C_R   0.316294 0.943189 0.317116 0.246322
C80   C     C_R   0.066184 0.681461 0.682083 0.170682
C81   C     C_R   0.942833 0.317145 0.317259 0.235399
C82   C     C_R   0.684819 0.684266 0.056815 0.141880
C83   C     C_R   0.297640 0.296488 0.009359 0.133234
C84   C     C_R   0.600017 0.017270 0.593558 0.026016
C85   C     C_R   0.400213 0.986082 0.405250 0.027290
C86   C     C_R   0.046136 0.586008 0.587757 0.024773
C87   C     C_R   0.994352 0.397174 0.402631 0.026461
C88   C     C_R   0.595366 0.602185 0.012840 0.027899
C89   C     C_R   0.980112 0.431870 0.170286 0.620302
C90   C     C_R   0.400399 0.406873 0.984857 0.031413
Cu1   Cu    Cu3+1 0.995180 0.995180 0.424630 1.106459
Cu2   Cu    Cu3+1 0.004820 0.004820 0.575370 1.086100
Cu3   Cu    Cu3+1 0.995180 0.424630 0.995180 1.048688
Cu4   Cu    Cu3+1 0.004820 0.575370 0.004820 1.107306
Cu5   Cu    Cu3+1 0.424630 0.995180 0.995180 1.077655
Cu6   Cu    Cu3+1 0.575370 0.004820 0.004820 1.066661
H1    H     H_    0.497168 0.911061 0.803721 0.147975
H2    H     H_    0.419210 0.753960 0.107301 0.197813
H3    H     H_    0.085202 0.509728 0.191476 0.130285
H4    H     H_    0.077826 0.409838 0.769510 0.158722
H5    H     H_    0.416814 0.893468 0.727336 0.114813
H6    H     H_    0.585659 0.107030 0.269865 0.110961
H7    H     H_    0.074707 0.686378 0.332593 0.113234
H8    H     H_    0.942849 0.314136 0.661061 0.110895
H9    H     H_    0.727003 0.416884 0.891511 0.108152
H10   H     H_    0.269468 0.614491 0.074657 0.101461
H11   H     H_    0.321728 0.919237 0.664014 0.123500
H12   H     H_    0.504799 0.088964 0.194469 0.151781
H13   H     H_    0.675773 0.091227 0.334681 0.120819
H14   H     H_    0.657582 0.334615 0.896628 0.113439
H15   H     H_    0.338210 0.676987 0.095136 0.109500
H16   H     H_    0.105420 0.591106 0.264640 0.102282
H17   H     H_    0.037686 0.338560 0.701564 0.109343
H18   H     H_    0.783705 0.115078 0.805689 0.345402
H19   H     H_    0.220203 0.880651 0.195706 0.340727
H20   H     H_    0.236134 0.725451 0.594649 0.351602
H21   H     H_    0.773969 0.365549 0.206040 0.363894
H22   H     H_    0.788602 0.794142 0.004992 0.333853
H23   H     H_    0.089847 0.765341 0.411273 0.193493
H24   H     H_    0.207576 0.217609 0.970054 0.325527
H25   H     H_    0.909305 0.242498 0.585492 0.191809
H26   H     H_    0.804860 0.494441 0.911937 0.147769
H27   H     H_    0.193115 0.530460 0.071564 0.132097
H28   H     H_    0.240211 0.908035 0.585949 0.216335
H29   H     H_    0.757289 0.101857 0.414469 0.200486
H30   H     H_    0.574452 0.249296 0.897262 0.197238
O1    O     O_R   0.124540 0.978640 0.385460 -0.427537
O2    O     O_R   0.124540 0.385460 0.978640 -0.491931
O3    O     O_R   0.021360 0.875460 0.614540 -0.431147
O4    O     O_R   0.978640 0.124540 0.385460 -0.431822
O5    O     O_R   0.013780 0.867370 0.487190 -0.540313
O6    O     O_R   0.986220 0.132630 0.512810 -0.538836
O7    O     O_R   0.867370 0.487190 0.013780 -0.522306
O8    O     O_R   0.132630 0.512810 0.986220 -0.521160
O9    O     O_R   0.487190 0.013780 0.867370 -0.540458
O10   O     O_R   0.512810 0.986220 0.132630 -0.522352
O11   O     O_R   0.512810 0.132630 0.986220 -0.537285
O12   O     O_R   0.875460 0.021360 0.614540 -0.442911
O13   O     O_R   0.487190 0.867370 0.013780 -0.543310
O14   O     O_R   0.986220 0.512810 0.132630 -0.525497
O15   O     O_R   0.013780 0.487190 0.867370 -0.565018
O16   O     O_R   0.132630 0.986220 0.512810 -0.533447
O17   O     O_R   0.867370 0.013780 0.487190 -0.537054
O18   O     O_2   0.760498 0.190457 0.636548 -0.288344
O19   O     O_2   0.626274 0.189237 0.762434 -0.304239
O20   O     O_3   0.774803 0.070271 0.787421 -0.504416
O21   O     O_2   0.376193 0.809533 0.240793 -0.301850
O22   O     O_2   0.241532 0.808916 0.366161 -0.315428
O23   O     O_R   0.978640 0.385460 0.124540 -0.401179
O24   O     O_3   0.227320 0.926519 0.213947 -0.463913
O25   O     O_2   0.068951 0.780976 0.773690 -0.231075
O26   O     O_2   0.186235 0.639182 0.772405 -0.267655
O27   O     O_3   0.198260 0.770519 0.628065 -0.532704
O28   O     O_2   0.921221 0.229969 0.225366 -0.248197
O29   O     O_2   0.806778 0.245797 0.366178 -0.300110
O30   O     O_3   0.806377 0.385987 0.229406 -0.488619
O31   O     O_2   0.640568 0.762429 0.187290 -0.224768
O32   O     O_2   0.765967 0.627790 0.186883 -0.206186
O33   O     O_3   0.790964 0.776396 0.067460 -0.473749
O34   O     O_R   0.021360 0.614540 0.875460 -0.435229
O35   O     O_2   0.283170 0.148155 0.147156 -0.269270
O36   O     O_2   0.148038 0.270329 0.143475 -0.273719
O37   O     O_3   0.201551 0.176831 0.031532 -0.449492
O38   O     O_R   0.385460 0.124540 0.978640 -0.450286
O39   O     O_R   0.614540 0.875460 0.021360 -0.475161
O40   O     O_R   0.614540 0.021360 0.875460 -0.434635
O41   O     O_R   0.385460 0.978640 0.124540 -0.393536
O42   O     O_R   0.875460 0.614540 0.021360 -0.452755
S1    S     S_3+6 0.710857 0.130965 0.716840 0.031675
S2    S     S_3+6 0.290887 0.868029 0.285127 0.036093
S3    S     S_3+6 0.129978 0.717729 0.718060 0.042715
S4    S     S_3+6 0.868501 0.291282 0.284653 0.053145
S5    S     S_3+6 0.720004 0.712181 0.128187 0.085536
S6    S     S_3+6 0.231005 0.221911 0.086154 0.063581

loop_
_geom_bond_atom_site_label_1
_geom_bond_atom_site_label_2
_ccdc_geom_bond_type
C25   C31   A    
C21   C87   A    
C26   C32   A    
Cu3   Cu4   S    
C65   C79   A    
C22   C29   A    
Cu4   O14   S    
C64   C77   A    
C23   C69   S    
Cu3   O23   S    
Cu5   Cu6   S    
C3    O16   A    
Cu2   O12   S    
C78   O13   A    
C4    O17   A    
C71   C79   A    
C36   C41   A    
Cu3   O15   S    
C66   C80   A    
Cu6   O10   S    
C21   C36   A    
C22   C35   A    
C12   C68   S    
C9    C42   A    
Cu1   O1    S    
C30   C35   A    
C68   C81   A    
C79   S2    S    
C52   C85   A    
Cu2   O6    S    
C38   H5    S    
C1    O3    A    
C54   C87   A    
C3    O1    A    
C58   C71   A    
Cu1   O5    S    
C63   C76   A    
C34   O8    A    
C56   C65   S    
C29   C33   A    
C60   C73   A    
O25   S3    D    
H19   O24   S    
C81   S4    S    
C55   C88   A    
C35   C42   A    
C19   C26   A    
C69   C82   A    
H24   O37   S    
C67   O38   A    
C11   H28   S    
C20   C86   A    
C18   C84   A    
C7    C40   A    
C53   C86   A    
C67   C73   S    
C32   C38   A    
C57   C70   A    
C11   C58   A    
Cu2   O16   S    
C45   O40   A    
C34   C70   S    
Cu1   Cu2   S    
O21   S2    D    
C59   C72   A    
C20   C37   A    
C13   H29   S    
C89   O23   A    
C19   C31   A    
C17   H4    S    
C5    C38   A    
H22   O33   S    
C18   C25   A    
C16   C62   A    
C15   C48   A    
C74   C82   A    
O29   S4    D    
C56   O10   A    
C24   C33   A    
C9    H26   S    
Cu1   O17   S    
O19   S1    D    
C45   O9    A    
C57   C90   A    
C23   O7    A    
C29   C48   A    
C26   C44   A    
C33   C43   A    
C7    H23   S    
C30   C47   A    
C10   C57   A    
C16   C49   A    
H18   O20   S    
C10   H27   S    
Cu4   O42   S    
Cu6   O11   S    
Cu1   O4    S    
O26   S3    D    
C75   C81   A    
C1    O5    A    
O18   S1    D    
O30   S4    S    
C24   C90   A    
C43   H10   S    
C3    C71   S    
C72   C77   A    
C70   C83   A    
C61   C88   A    
C28   C49   A    
O32   S5    D    
O22   S2    D    
C82   S5    S    
C89   O14   A    
O27   S3    S    
H21   O30   S    
Cu5   O9    S    
C1    C66   S    
C15   C61   A    
O28   S4    D    
C11   C44   A    
C8    C41   A    
C53   C66   A    
H20   O27   S    
C55   C69   A    
C12   O4    A    
C49   H16   S    
C13   C59   A    
C2    O34   A    
C21   C28   A    
C5    H1    S    
C22   C88   A    
C63   C86   A    
O33   S5    S    
C61   C74   A    
Cu6   O40   S    
C62   C75   A    
C46   H13   S    
C18   C32   A    
C7    C53   A    
C15   H2    S    
C8    C54   A    
C58   C85   A    
C4    C72   S    
C2    C76   S    
C39   H6    S    
C83   S6    S    
C44   H11   S    
C13   C46   A    
C77   S1    S    
C78   O39   A    
Cu4   O34   S    
C12   O6    A    
C10   C43   A    
Cu6   O39   S    
Cu5   O13   S    
C51   C64   A    
C76   C80   A    
C19   C85   A    
Cu5   O41   S    
C17   C50   A    
C27   C50   A    
C16   H3    S    
C14   C47   A    
O36   S6    D    
C20   C27   A    
C60   C90   A    
C27   C36   A    
C37   C40   A    
C47   H14   S    
C14   C60   A    
C62   C87   A    
C45   C64   S    
Cu3   O7    S    
C59   C84   A    
C14   H30   S    
C41   H8    S    
C50   H17   S    
Cu2   O3    S    
Cu3   O2    S    
Cu5   O38   S    
C17   C63   A    
C40   H7    S    
O35   S6    D    
O24   S2    S    
C28   C37   A    
C51   C84   A    
C56   O41   A    
Cu4   O8    S    
C31   C39   A    
C9    C55   A    
C67   O11   A    
C42   H9    S    
C24   C30   A    
C75   C89   S    
C4    O12   A    
C23   O42   A    
C48   H15   S    
C54   C68   A    
C34   O2    A    
C74   C78   S    
O20   S1    S    
C8    H25   S    
C2    O15   A    
C6    H12   S    
C6    C39   A    
C5    C51   A    
C80   S3    S    
C6    C52   A    
O37   S6    S    
C25   C46   A    
C73   C83   A    
C52   C65   A    
O31   S5    D    
