data_str_m4_o11_o15_f0_acs.sym.124
_audit_creation_date              2013-03-05T15:40:39-0500
_audit_creation_method            fapswitch 2.2
_symmetry_space_group_name_H-M    P1
_symmetry_Int_Tables_number       1
_space_group_crystal_system       triclinic
_cell_length_a                    18.943244
_cell_length_b                    11.027085
_cell_length_c                    19.033698
_cell_angle_alpha                 90.551826
_cell_angle_beta                  89.869893
_cell_angle_gamma                 90.196035
_cell_volume                      3975.70797889

loop_
_atom_site_label
_atom_site_type_symbol
_atom_site_description
_atom_site_fract_x
_atom_site_fract_y
_atom_site_fract_z
_atom_type_partial_charge
O1    O     O_R   0.043230 0.549300 0.667990 -0.475578
O2    O     O_R   0.956770 0.549300 0.332010 -0.498430
O3    O     O_R   0.543230 0.049300 0.667990 -0.467730
O4    O     O_R   0.456770 0.049300 0.332010 -0.502940
O5    O     O_R   0.178620 0.457600 0.674100 -0.496909
O6    O     O_R   0.821380 0.457600 0.325900 -0.502368
O7    O     O_R   0.678620 0.957600 0.674100 -0.504492
O8    O     O_R   0.321380 0.957600 0.325900 -0.498541
C1    C     C_R   0.222325 0.527458 0.641275 0.576748
C2    C     C_R   0.761512 0.471772 0.354940 0.590549
C3    C     C_R   0.739634 0.967327 0.646999 0.574415
C4    C     C_R   0.261623 0.972261 0.355067 0.593947
O9    O     O_R   0.284680 0.542100 0.669460 -0.476536
O10   O     O_R   0.715320 0.542100 0.330540 -0.477110
O11   O     O_R   0.784680 0.042100 0.669460 -0.483615
O12   O     O_R   0.215320 0.042100 0.330540 -0.480782
O13   O     O_R   0.262860 0.790390 0.676650 -0.483383
O14   O     O_R   0.737140 0.790390 0.323350 -0.483560
O15   O     O_R   0.762860 0.290390 0.676650 -0.461741
O16   O     O_R   0.237140 0.290390 0.323350 -0.493999
C5    C     C_R   0.228423 0.875342 0.648873 0.591271
C6    C     C_R   0.771952 0.876334 0.351125 0.613375
C7    C     C_R   0.728271 0.374996 0.648567 0.602497
C8    C     C_R   0.270375 0.382610 0.347256 0.618711
O17   O     O_R   0.167460 0.907030 0.670940 -0.482006
O18   O     O_R   0.832540 0.907030 0.329060 -0.497804
O19   O     O_R   0.667460 0.407030 0.670940 -0.481566
O20   O     O_R   0.332540 0.407030 0.329060 -0.496643
O21   O     O_R   0.053950 0.750220 0.675100 -0.526390
O22   O     O_R   0.946050 0.750220 0.324900 -0.529690
O23   O     O_R   0.553950 0.250220 0.675100 -0.522608
O24   O     O_R   0.446050 0.250220 0.324900 -0.526463
C9    C     C_R   0.028482 0.653316 0.645226 0.547243
C10   C     C_R   0.972233 0.656671 0.354133 0.590246
C11   C     C_R   0.528119 0.153248 0.645526 0.565863
C12   C     C_R   0.471872 0.156662 0.354430 0.585738
O25   O     O_R   0.043300 0.547370 0.827390 -0.460757
O26   O     O_R   0.956700 0.547370 0.172610 -0.466931
O27   O     O_R   0.543300 0.047370 0.827390 -0.461746
O28   O     O_R   0.456700 0.047370 0.172610 -0.467902
O29   O     O_R   0.178690 0.455820 0.821860 -0.429838
O30   O     O_R   0.821310 0.455820 0.178140 -0.434439
O31   O     O_R   0.678690 0.955820 0.821860 -0.436623
O32   O     O_R   0.321310 0.955820 0.178140 -0.433777
C13   C     C_R   0.240341 0.464028 0.849549 0.620625
C14   C     C_R   0.759440 0.462989 0.150612 0.612101
C15   C     C_R   0.740343 0.964017 0.849546 0.607919
C16   C     C_R   0.259439 0.962985 0.150614 0.613271
O33   O     O_R   0.284750 0.540170 0.828860 -0.493195
O34   O     O_R   0.715250 0.540170 0.171140 -0.492728
O35   O     O_R   0.784750 0.040170 0.828860 -0.497617
O36   O     O_R   0.215250 0.040170 0.171140 -0.492481
O37   O     O_R   0.262920 0.788600 0.824420 -0.462738
O38   O     O_R   0.737080 0.788600 0.175580 -0.468179
O39   O     O_R   0.762920 0.288600 0.824420 -0.464587
O40   O     O_R   0.237080 0.288600 0.175580 -0.470327
C17   C     C_R   0.225666 0.872184 0.854221 0.613244
C18   C     C_R   0.774032 0.872173 0.146127 0.610742
C19   C     C_R   0.725667 0.372186 0.854220 0.608123
C20   C     C_R   0.274028 0.372184 0.146133 0.608375
O41   O     O_R   0.167530 0.905110 0.830340 -0.478663
O42   O     O_R   0.832470 0.905110 0.169660 -0.482716
O43   O     O_R   0.667530 0.405110 0.830340 -0.482708
O44   O     O_R   0.332470 0.405110 0.169660 -0.484108
O45   O     O_R   0.054010 0.748440 0.822860 -0.460798
O46   O     O_R   0.945990 0.748440 0.177140 -0.460139
O47   O     O_R   0.554010 0.248440 0.822860 -0.463876
O48   O     O_R   0.445990 0.248440 0.177140 -0.460295
C21   C     C_R   0.029247 0.651588 0.850091 0.641024
C22   C     C_R   0.970803 0.651194 0.150042 0.647154
C23   C     C_R   0.529245 0.151589 0.850090 0.640121
C24   C     C_R   0.470800 0.151195 0.150040 0.645834
Cr1   Cr    Cr6+3 0.113970 0.508630 0.747920 1.128698
Cr2   Cr    Cr6+3 0.886030 0.508630 0.252080 1.123307
Cr3   Cr    Cr6+3 0.613970 0.008630 0.747920 1.133437
Cr4   Cr    Cr6+3 0.386030 0.008630 0.252080 1.125953
Cr5   Cr    Cr6+3 0.269200 0.666740 0.749850 1.120572
Cr6   Cr    Cr6+3 0.730800 0.666740 0.250150 1.120761
Cr7   Cr    Cr6+3 0.769200 0.166740 0.749850 1.131980
Cr8   Cr    Cr6+3 0.230800 0.166740 0.250150 1.118443
Cr9   Cr    Cr6+3 0.112300 0.820070 0.749800 1.119545
Cr10  Cr    Cr6+3 0.887700 0.820070 0.250200 1.120796
Cr11  Cr    Cr6+3 0.612300 0.320070 0.749800 1.129331
Cr12  Cr    Cr6+3 0.387700 0.320070 0.250200 1.122982
O49   O     O_3   0.165160 0.665150 0.749190 -0.352245
O50   O     O_3   0.834840 0.665150 0.250810 -0.318373
O51   O     O_3   0.665160 0.165150 0.749190 -0.323748
O52   O     O_3   0.334840 0.165150 0.250810 -0.316833
C25   C     C_2   0.259688 0.930445 0.586522 0.261831
C26   C     C_2   0.744808 0.927270 0.416696 0.257103
C27   C     C_2   0.758586 0.428377 0.585084 0.254012
C28   C     C_2   0.246615 0.441911 0.411036 0.280241
C29   C     C_2   0.249728 0.921291 0.424158 -0.016542
C30   C     C_2   0.754361 0.905539 0.581438 -0.008211
C31   C     C_2   0.749451 0.420072 0.423923 -0.021226
C32   C     C_2   0.218445 0.505955 0.566825 -0.040581
C33   C     C_2   0.304398 0.900746 0.466718 -0.058484
C34   C     C_2   0.702251 0.889801 0.535694 -0.051755
C35   C     C_2   0.804167 0.394963 0.465637 -0.059884
C36   C     C_2   0.255504 0.416866 0.538242 -0.085797
C37   C     C_2   0.290837 0.857302 0.537866 0.199573
C38   C     C_2   0.718989 0.848746 0.464808 0.193198
C39   C     C_2   0.791037 0.354303 0.537563 0.214261
C40   C     C_2   0.239750 0.370786 0.467734 0.165376
H1    H     H_    0.358721 0.909484 0.448925 0.153621
H2    H     H_    0.648599 0.915573 0.548402 0.128651
H3    H     H_    0.858328 0.398912 0.446811 0.153778
H4    H     H_    0.292446 0.365879 0.570044 0.194763
H5    H     H_    0.195880 0.912635 0.443516 0.131541
H6    H     H_    0.808666 0.887299 0.566402 0.128152
H7    H     H_    0.695752 0.415306 0.444119 0.127208
H8    H     H_    0.173453 0.543462 0.539701 0.117122
C41   C     C_R   0.006387 0.670480 0.424484 0.067503
C42   C     C_R   0.998545 0.655573 0.572595 0.064519
C43   C     C_R   0.504629 0.170069 0.425531 0.059926
C44   C     C_R   0.496648 0.155183 0.573601 0.077194
C45   C     C_R   0.986278 0.892852 0.435791 -0.120395
C46   C     C_R   0.962469 0.867953 0.579239 -0.130679
C47   C     C_R   0.482447 0.391985 0.437100 -0.118927
C48   C     C_R   0.458769 0.365897 0.580483 -0.125149
C49   C     C_R   0.962007 0.992592 0.475438 0.353015
C50   C     C_R   0.949256 0.979480 0.547271 0.315269
C51   C     C_R   0.455928 0.490067 0.476613 0.356977
C52   C     C_R   0.443250 0.476329 0.548427 0.320214
C53   C     C_R   0.985950 0.767214 0.539770 -0.034176
C54   C     C_R   0.993102 0.776805 0.465912 -0.050351
C55   C     C_R   0.483508 0.266368 0.540883 -0.030383
C56   C     C_R   0.490601 0.276149 0.467030 -0.047624
H9    H     H_    0.001074 0.908147 0.381759 0.145191
H10   H     H_    0.950497 0.858711 0.634568 0.131801
H11   H     H_    0.497653 0.408513 0.383328 0.145053
H12   H     H_    0.447317 0.356055 0.635900 0.135117
C57   C     C_R   0.006573 0.549571 0.529808 -0.036753
C58   C     C_R   0.025192 0.561990 0.458769 -0.021343
C59   C     C_R   0.503042 0.048975 0.530894 -0.022499
C60   C     C_R   0.522086 0.060943 0.459953 -0.012855
C61   C     C_R   0.996786 0.431076 0.555955 0.201647
C62   C     C_R   0.055288 0.461863 0.421946 0.203064
C63   C     C_R   0.490607 0.931119 0.556929 0.195256
C64   C     C_R   0.550022 0.959511 0.422833 0.207023
C65   C     C_R   0.029557 0.332105 0.521445 0.295123
C66   C     C_R   0.058219 0.346633 0.454473 0.264462
C67   C     C_R   0.518284 0.829506 0.520452 0.280165
C68   C     C_R   0.546460 0.842574 0.453071 0.261853
C69   C     C_2   0.239959 0.915806 0.925504 0.200197
C70   C     C_2   0.758785 0.916385 0.075726 0.198751
C71   C     C_2   0.739963 0.415819 0.925501 0.200425
C72   C     C_2   0.258771 0.416435 0.075747 0.199805
C73   C     C_2   0.240654 0.897969 0.085780 0.207143
C74   C     C_2   0.758446 0.902050 0.914719 0.206573
C75   C     C_2   0.740656 0.397980 0.085775 0.206843
C76   C     C_2   0.258437 0.402120 0.914742 0.206196
C77   C     C_2   0.186682 0.944032 0.046371 0.132152
C78   C     C_2   0.810787 0.951971 0.955525 0.131281
C79   C     C_2   0.686686 0.444052 0.046366 0.132175
C80   C     C_2   0.310752 0.452106 0.955558 0.129497
C81   C     C_2   0.183277 0.936892 0.969348 0.104396
C82   C     C_2   0.814971 0.940980 0.032024 0.108626
C83   C     C_2   0.683282 0.436918 0.969343 0.105082
C84   C     C_2   0.314950 0.441068 0.032048 0.108965
C85   C     C_2   0.993954 0.654008 0.917039 0.315470
C86   C     C_2   0.005388 0.652967 0.082854 0.317092
C87   C     C_2   0.493947 0.154016 0.917035 0.316574
C88   C     C_2   0.505375 0.152974 0.082848 0.316847
C89   C     C_2   0.983614 0.570426 0.034269 0.154530
C90   C     C_2   0.014088 0.570157 0.964733 0.157781
C91   C     C_2   0.483596 0.070433 0.034265 0.154568
C92   C     C_2   0.514069 0.070155 0.964730 0.157652
N1    N     N_R   0.114894 0.966727 0.941130 0.124730
O53   O     O_R   0.105609 0.071253 0.911318 -0.196822
O54   O     O_R   0.060104 0.901043 0.956537 -0.208128
N2    N     N_R   0.883651 0.970935 0.060152 0.126976
O55   O     O_R   0.893585 0.075388 0.091127 -0.199395
O56   O     O_R   0.937903 0.903965 0.044850 -0.208603
N3    N     N_R   0.614901 0.466765 0.941125 0.124853
O57   O     O_R   0.605625 0.571291 0.911309 -0.198506
O58   O     O_R   0.560106 0.401092 0.956531 -0.208181
N4    N     N_R   0.383635 0.471012 0.060169 0.127271
O59   O     O_R   0.393572 0.575449 0.091163 -0.198757
O60   O     O_R   0.437885 0.404050 0.044848 -0.208552
O61   O     O_3   0.283956 0.804709 0.063196 -0.613704
H13   H     H_    0.257434 0.754815 0.028498 0.330347
O62   O     O_3   0.716333 0.806319 0.935702 -0.617590
H14   H     H_    0.743159 0.757847 0.970135 0.330015
O63   O     O_3   0.783956 0.304720 0.063190 -0.613916
H15   H     H_    0.757435 0.254829 0.028490 0.330462
O64   O     O_3   0.216347 0.306360 0.935725 -0.616663
H16   H     H_    0.243180 0.257914 0.970164 0.330256
O65   O     O_3   0.309361 0.926928 0.946014 -0.659210
H17   H     H_    0.311522 0.993064 0.981585 0.331607
O66   O     O_3   0.689111 0.924666 0.055742 -0.661146
H18   H     H_    0.685946 0.990603 0.020889 0.331316
O67   O     O_3   0.809365 0.426932 0.946010 -0.659728
H19   H     H_    0.811530 0.493068 0.981581 0.331474
O68   O     O_3   0.189094 0.424715 0.055771 -0.661058
H20   H     H_    0.185923 0.490660 0.020923 0.330939
O69   O     O_3   0.931749 0.485618 0.049373 -0.662289
H21   H     H_    0.929572 0.425773 0.010193 0.399203
O70   O     O_3   0.065965 0.485467 0.949448 -0.663228
H22   H     H_    0.068057 0.426321 0.988323 0.395413
O71   O     O_3   0.431736 0.985621 0.049376 -0.662184
H23   H     H_    0.429560 0.925770 0.010199 0.399230
O72   O     O_3   0.565941 0.985453 0.949447 -0.662880
H24   H     H_    0.568037 0.926321 0.988329 0.395377
O73   O     O_3   0.059207 0.735951 0.072592 -0.629493
H25   H     H_    0.089302 0.709821 0.032709 0.317213
O74   O     O_3   0.940890 0.738088 0.927722 -0.629859
H26   H     H_    0.910452 0.712716 0.967304 0.319329
O75   O     O_3   0.559187 0.235968 0.072578 -0.629892
H27   H     H_    0.589278 0.209845 0.032691 0.317215
O76   O     O_3   0.440900 0.238128 0.927720 -0.628628
H28   H     H_    0.410461 0.212778 0.967306 0.319412
O77   O     O_3   0.301444 0.736101 0.551705 -0.662860
H29   H     H_    0.327240 0.699532 0.511550 0.410490
O78   O     O_3   0.716536 0.725817 0.449972 -0.652519
H30   H     H_    0.687649 0.686150 0.486637 0.397881
O79   O     O_3   0.804496 0.234634 0.553663 -0.627514
H31   H     H_    0.830163 0.197094 0.513654 0.405250
O80   O     O_3   0.233708 0.247012 0.458488 -0.654961
H32   H     H_    0.209047 0.215917 0.500463 0.402317
N5    N     N_R   0.262778 0.060544 0.581941 0.029620
O81   O     O_R   0.317524 0.111863 0.553147 -0.353929
O82   O     O_R   0.221432 0.126634 0.621240 -0.324234
N6    N     N_R   0.746107 0.057107 0.427624 0.047226
O83   O     O_R   0.699077 0.109662 0.467384 -0.353909
O84   O     O_R   0.785204 0.124681 0.387433 -0.328144
N7    N     N_R   0.756894 0.558075 0.576816 0.024597
O85   O     O_R   0.809225 0.612953 0.545891 -0.351852
O86   O     O_R   0.712899 0.622770 0.613923 -0.338342
N8    N     N_R   0.251215 0.572297 0.415461 0.038101
O87   O     O_R   0.194466 0.634108 0.429453 -0.357937
O88   O     O_R   0.303162 0.628088 0.384532 -0.327725
O89   O     O_3   0.949612 0.103627 0.445052 -0.604562
H33   H     H_    0.959534 0.097667 0.393965 0.335270
O90   O     O_3   0.923806 0.077132 0.585237 -0.638498
H34   H     H_    0.921386 0.055535 0.635625 0.328488
O91   O     O_3   0.441650 0.600244 0.446142 -0.588147
H35   H     H_    0.451709 0.594666 0.395064 0.345011
O92   O     O_3   0.415919 0.572426 0.586364 -0.627139
H36   H     H_    0.416774 0.552539 0.637033 0.332200
O93   O     O_3   0.084955 0.481492 0.356636 -0.659850
H37   H     H_    0.072903 0.411780 0.325712 0.328575
O94   O     O_3   0.951573 0.414334 0.612276 -0.652930
H38   H     H_    0.935848 0.328628 0.613096 0.364616
O95   O     O_3   0.583697 0.979457 0.359463 -0.665280
H39   H     H_    0.569896 0.914194 0.326132 0.331057
O96   O     O_3   0.447517 0.917717 0.615176 -0.651288
H40   H     H_    0.429252 0.833499 0.616493 0.363306
O97   O     O_3   0.038676 0.221793 0.553642 -0.582754
H41   H     H_    0.036520 0.234078 0.605249 0.340395
O98   O     O_3   0.087739 0.245268 0.423055 -0.629564
H42   H     H_    0.115981 0.268688 0.381806 0.346623
O99   O     O_3   0.525613 0.718458 0.552133 -0.589378
H43   H     H_    0.526567 0.730662 0.603781 0.337219
O100  O     O_3   0.571024 0.738781 0.419983 -0.642280
H44   H     H_    0.600061 0.759451 0.378719 0.344374
N9    N     N_R   0.128329 0.007825 0.079140 0.145224
O101  O     O_R   0.114070 0.118803 0.061428 -0.208625
O102  O     O_R   0.091345 0.956818 0.128504 -0.225082
N10   N     N_R   0.867752 0.021409 0.924764 0.140025
O103  O     O_R   0.877820 0.134042 0.943356 -0.214674
O104  O     O_R   0.910124 0.971294 0.879148 -0.218820
N11   N     N_R   0.628334 0.507848 0.079135 0.145213
O105  O     O_R   0.614081 0.618831 0.061427 -0.208590
O106  O     O_R   0.591343 0.456837 0.128492 -0.225438
N12   N     N_R   0.367688 0.521638 0.924817 0.139560
O107  O     O_R   0.377684 0.634290 0.943410 -0.215194
O108  O     O_R   0.410148 0.471553 0.879272 -0.216339

loop_
_geom_bond_atom_site_label_1
_geom_bond_atom_site_label_2
_geom_bond_distance
_ccdc_geom_bond_type
C18   O42   1.246746 A    
C73   O61   1.382331 S    
O72   H24   0.991988 S    
O4    C12   1.286096 A    
C57   C61   1.414162 A    
C89   C90   1.442711 S    
C87   C92   1.358198 D    
O39   C19   1.289126 A    
O20   Cr12  2.058242 S    
O5    Cr1   1.942262 S    
C65   O97   1.378898 S    
N1    O53   1.302264 A    
C35   C39   1.465138 S    
O92   H36   0.991281 S    
O8    Cr4   1.947663 S    
C60   C64   1.420367 A    
C71   C83   1.377414 D    
N6    O83   1.301646 A    
O26   C22   1.254393 A    
N4    O59   1.302168 A    
C48   C55   1.406506 A    
O1    C9    1.262407 A    
C59   C60   1.404167 A    
N3    O58   1.298241 A    
C44   C59   1.424512 A    
C5    C25   1.461731 S    
O61   H13   0.991916 S    
O45   C21   1.278840 A    
C10   C41   1.494705 S    
O7    C3    1.269241 A    
C32   H8    1.082825 S    
C9    C42   1.495897 S    
C23   C87   1.437725 S    
C16   C73   1.465157 S    
O24   C12   1.278837 A    
C21   C85   1.437727 S    
C78   C82   1.464604 S    
C17   C69   1.460754 S    
O40   Cr8   1.967040 S    
C72   C84   1.377151 D    
O99   H43   0.991129 S    
C31   C35   1.338399 D    
N4    O60   1.298492 A    
C43   C60   1.416166 A    
C30   C34   1.327572 D    
O94   H38   0.990209 S    
O21   C9    1.297661 A    
C36   C40   1.461483 S    
O23   Cr11  1.953671 S    
C83   N3    1.443685 S    
O75   H27   0.989568 S    
N11   O106  1.301727 A    
N9    O101  1.301863 A    
O71   H23   0.991854 S    
C2    O10   1.263407 A    
O32   Cr4   1.951926 S    
C1    O9    1.307287 A    
C90   O70   1.386461 S    
C26   C38   1.355712 D    
C25   N5    1.439087 S    
C73   C77   1.371253 D    
C81   N1    1.443682 S    
C42   C53   1.407240 A    
C3    O11   1.257307 A    
O11   Cr7   2.067966 S    
C4    O12   1.262456 A    
C37   O77   1.380158 S    
C44   C55   1.403734 A    
C47   H11   1.079617 S    
O90   H34   0.991346 S    
C46   C53   1.407837 A    
C7    O19   1.277026 A    
C45   H9    1.079987 S    
O89   H33   0.991568 S    
Cr4   O52   1.982980 S    
O47   C23   1.278835 A    
C85   C90   1.358192 D    
O2    Cr2   2.074462 S    
O48   C24   1.276143 A    
C82   N2    1.444012 S    
C27   N7    1.440798 S    
C47   C56   1.412710 A    
Cr6   O50   1.971061 S    
C91   O71   1.385682 S    
C14   C75   1.465155 S    
O42   Cr10  2.089418 S    
C77   N9    1.448965 S    
O70   H22   0.991986 S    
O18   Cr10  2.058242 S    
O14   C6    1.264980 A    
O95   H39   0.989647 S    
O17   Cr9   2.068354 S    
N1    O54   1.298239 A    
O65   H17   0.991122 S    
C63   C67   1.414143 A    
C76   O64   1.382464 S    
O97   H41   0.991043 S    
C8    C28   1.445029 S    
Cr7   O51   1.970941 S    
C51   O91   1.379174 S    
N2    O56   1.298485 A    
O29   C13   1.284923 A    
O6    Cr2   1.947663 S    
C67   O99   1.377732 S    
C63   O96   1.384005 S    
C24   C88   1.435813 S    
O24   Cr12  1.967400 S    
C68   O100  1.382588 S    
O9    Cr5   2.067966 S    
C36   H4    1.087844 S    
O30   Cr2   1.951926 S    
O22   C10   1.278896 A    
C79   C83   1.468943 S    
O74   H26   0.989620 S    
O48   Cr12  1.937719 S    
C76   C80   1.371504 D    
C51   C52   1.396883 A    
O32   C16   1.287870 A    
O98   H42   0.985073 S    
C62   C66   1.420108 A    
C91   C92   1.442704 S    
C52   O92   1.378273 S    
O16   Cr8   1.943656 S    
C15   O35   1.252147 A    
C41   C54   1.429352 A    
O30   C14   1.287873 A    
O76   H28   0.989618 S    
O79   H31   0.990624 S    
O73   H25   0.989569 S    
C30   H6    1.086072 S    
N8    O87   1.300523 A    
O13   C5    1.264088 A    
C43   C56   1.430468 A    
O40   C20   1.287359 A    
O43   Cr11  2.072888 S    
O12   Cr8   2.086144 S    
Cr9   O49   1.983035 S    
Cr12  O52   1.977317 S    
O22   Cr10  1.967400 S    
O15   C7    1.265235 A    
O78   H30   0.990103 S    
C40   O80   1.378885 S    
O5    C1    1.292973 A    
N5    O81   1.302116 A    
C46   H10   1.082448 S    
C34   C38   1.453664 S    
O46   Cr10  1.937719 S    
C86   C89   1.355244 D    
O39   Cr7   1.948838 S    
O25   C21   1.253109 A    
C72   O68   1.377972 S    
O45   Cr9   1.945546 S    
N7    O85   1.302116 A    
C15   C74   1.463958 S    
O3    C11   1.261302 A    
C88   O75   1.382412 S    
O8    C4    1.269811 A    
Cr11  O51   1.983035 S    
C84   N4    1.444023 S    
O13   Cr5   1.962961 S    
C13   O33   1.252099 A    
C6    C26   1.457087 S    
O62   H14   0.991750 S    
C11   C44   1.494787 S    
O47   Cr11  1.945546 S    
Cr2   O50   1.982980 S    
N8    O88   1.301391 A    
C1    C32   1.436506 S    
Cr1   O49   1.976791 S    
C49   C50   1.396657 A    
C74   O62   1.382462 S    
C62   O93   1.381704 S    
N12   O108  1.301589 A    
C39   O79   1.382283 S    
C3    C30   1.443114 S    
N10   O104  1.301590 A    
O14   Cr6   1.943656 S    
N7    O86   1.301559 A    
O21   Cr9   1.953671 S    
O67   H19   0.991124 S    
C49   O89   1.380212 S    
C41   C58   1.415254 A    
C86   O73   1.382411 S    
C6    O18   1.267327 A    
C53   C54   1.416941 A    
C8    O20   1.255794 A    
C7    C27   1.464427 S    
C4    C29   1.451906 S    
O38   Cr6   1.967040 S    
C87   O76   1.383202 S    
C45   C49   1.405855 A    
O100  H44   0.985910 S    
C29   C33   1.337547 D    
O80   H32   0.988222 S    
C46   C50   1.400908 A    
C78   N10   1.446952 S    
N2    O55   1.302167 A    
O31   Cr3   1.962488 S    
O38   C18   1.287363 A    
Cr3   O51   1.976791 S    
O66   H18   0.991020 S    
C75   O63   1.382334 S    
O15   Cr7   1.962961 S    
C5    O17   1.276664 A    
O37   C17   1.289118 A    
C66   O98   1.381878 S    
O28   C24   1.254401 A    
C25   C37   1.357478 D    
C28   N8    1.441790 S    
C48   H12   1.082799 S    
C28   C40   1.345966 D    
O36   Cr8   2.062785 S    
C33   H1    1.086865 S    
C59   C63   1.414149 A    
C88   C91   1.355241 D    
C64   C68   1.418473 A    
C27   C39   1.360098 D    
N10   O103  1.301701 A    
N6    O84   1.301374 A    
C26   N6    1.444905 S    
O6    C2    1.269974 A    
O7    Cr3   1.942262 S    
O96   H40   0.990454 S    
C18   C70   1.460136 S    
C17   O41   1.248776 A    
C55   C56   1.416898 A    
C70   C82   1.377182 D    
C80   C84   1.464494 S    
C47   C51   1.405022 A    
C58   C62   1.422287 A    
O68   H20   0.991018 S    
C35   H3    1.086877 S    
C69   C81   1.377419 D    
C14   O34   1.254887 A    
O25   Cr1   2.060317 S    
C75   C79   1.371255 D    
C34   H2    1.082481 S    
C92   O72   1.386465 S    
O44   Cr12  2.089418 S    
C20   O44   1.246732 A    
C13   C76   1.463945 S    
O1    Cr1   2.082766 S    
O33   Cr5   2.083645 S    
N11   O105  1.301863 A    
C22   C86   1.435824 S    
O3    Cr3   2.082766 S    
C79   N11   1.448966 S    
O64   H16   0.991747 S    
Cr8   O52   1.971061 S    
N3    O57   1.302264 A    
C31   H7    1.087907 S    
C65   C66   1.394850 A    
Cr10  O50   1.977317 S    
O2    C10   1.285895 A    
O63   H15   0.991917 S    
C57   C58   1.404467 A    
C2    C31   1.453728 S    
Cr5   O49   1.970941 S    
O93   H37   0.990053 S    
O77   H29   0.989582 S    
C32   C36   1.321583 D    
O34   Cr6   2.062785 S    
O19   Cr11  2.068354 S    
C42   C57   1.426525 A    
O26   Cr2   2.064456 S    
C19   O43   1.248777 A    
C71   O67   1.377009 S    
O23   C11   1.298383 A    
O10   Cr6   2.086144 S    
C77   C81   1.468952 S    
O69   H21   0.991855 S    
C70   O66   1.377973 S    
O35   Cr7   2.083645 S    
O4    Cr4   2.074462 S    
N12   O107  1.301698 A    
C61   C65   1.413104 A    
O29   Cr1   1.962488 S    
C64   O95   1.382309 S    
C61   O94   1.383977 S    
O28   Cr4   2.064456 S    
C38   O78   1.382642 S    
C16   O36   1.254892 A    
C80   N12   1.446934 S    
O46   C22   1.276159 A    
N5    O82   1.301839 A    
O27   Cr3   2.060317 S    
C74   C78   1.371468 D    
C50   O90   1.378819 S    
C85   O74   1.383187 S    
C45   C54   1.413698 A    
O41   Cr9   2.072888 S    
C20   C72   1.460057 S    
N9    O102  1.301728 A    
O37   Cr5   1.948838 S    
O91   H35   0.991638 S    
C12   C43   1.495894 S    
O31   C15   1.284918 A    
O16   C8    1.274966 A    
C89   O69   1.385684 S    
C33   C37   1.462689 S    
C67   C68   1.396573 A    
C69   O65   1.377004 S    
C29   H5    1.087985 S    
C48   C52   1.399695 A    
O27   C23   1.253122 A    
C19   C71   1.460753 S    
