data_str_m9_o5_o13_f0_sra.sym.44
_audit_creation_date              2012-12-11T17:12:46-0500
_audit_creation_method            fapswitch 2.2
_symmetry_space_group_name_H-M    P1
_symmetry_Int_Tables_number       1
_space_group_crystal_system       triclinic
_cell_length_a                    17.2113
_cell_length_b                    6.889642
_cell_length_c                    14.5525
_cell_angle_alpha                 90.003275
_cell_angle_beta                  110.58003
_cell_angle_gamma                 89.994647
_cell_volume                      1615.50487962

loop_
_atom_site_label
_atom_site_type_symbol
_atom_type_description
_atom_site_fract_x
_atom_site_fract_y
_atom_site_fract_z
_atom_type_partial_charge
O1    O     O_R   0.314130 0.635770 0.168990 -0.536817
O2    O     O_R   0.685870 0.364230 0.831010 -0.536817
O3    O     O_R   0.185870 0.135770 0.331010 -0.536770
O4    O     O_R   0.814130 0.864230 0.668990 -0.536767
O5    O     O_R   0.146800 0.302460 0.139760 -0.543850
O6    O     O_R   0.853200 0.697540 0.860240 -0.543851
O7    O     O_R   0.353200 0.802460 0.360240 -0.543892
O8    O     O_R   0.646800 0.197540 0.639760 -0.543896
C1    C     C_R   0.114016 0.475872 0.112852 0.761881
C2    C     C_R   0.885984 0.524128 0.887148 0.761886
C3    C     C_R   0.385985 0.975867 0.387147 0.761969
C4    C     C_R   0.614015 0.024133 0.612852 0.761969
O9    O     O_R   0.311100 0.305780 0.157130 -0.536281
O10   O     O_R   0.688900 0.694220 0.842870 -0.536285
O11   O     O_R   0.188900 0.805780 0.342870 -0.536297
O12   O     O_R   0.811100 0.194220 0.657130 -0.536304
O13   O     O_R   0.351340 0.139640 0.348510 -0.541699
O14   O     O_R   0.648660 0.860360 0.651490 -0.541701
O15   O     O_R   0.148660 0.639640 0.151490 -0.541779
O16   O     O_R   0.851340 0.360360 0.848510 -0.541782
C5    C     C_R   0.338082 0.474056 0.143032 0.761151
C6    C     C_R   0.661918 0.525944 0.856968 0.761154
C7    C     C_R   0.161900 0.974074 0.356944 0.761131
C8    C     C_R   0.838098 0.025925 0.643055 0.761137
C9    C     C_1   0.533586 0.008765 0.533117 -0.164887
C10   C     C_1   0.466414 0.991234 0.466883 -0.164897
C11   C     C_1   0.966413 0.508760 0.966884 -0.164890
C12   C     C_1   0.033586 0.491241 0.033117 -0.164904
O17   O     O_3   0.263010 0.470920 0.312770 -0.367775
O18   O     O_3   0.736990 0.529080 0.687230 -0.367773
O19   O     O_3   0.236990 0.970920 0.187230 -0.367786
O20   O     O_3   0.763010 0.029080 0.812770 -0.367785
V1    V     V_3+5 0.247590 0.194450 0.238360 1.460776
V2    V     V_3+5 0.752410 0.805550 0.761640 1.460772
V3    V     V_3+5 0.252410 0.694450 0.261640 1.460685
V4    V     V_3+5 0.747590 0.305550 0.738360 1.460675
C13   C     C_R   0.110313 0.983224 0.418701 -0.097717
C14   C     C_R   0.889686 0.016775 0.581297 -0.097719
C15   C     C_R   0.389676 0.483117 0.081278 -0.097729
C16   C     C_R   0.610324 0.516886 0.918723 -0.097730
C17   C     C_R   0.890516 0.007785 0.415296 -0.171789
C18   C     C_R   0.109483 0.992196 0.584702 -0.171789
C19   C     C_R   0.609460 0.508757 0.084720 -0.171765
C20   C     C_R   0.390540 0.491267 0.915280 -0.171763
C21   C     C_R   0.847412 0.012742 0.479634 0.233385
C22   C     C_R   0.152586 0.987249 0.520365 0.233392
C23   C     C_R   0.652578 0.513475 0.020395 0.233390
C24   C     C_R   0.347422 0.486544 0.979605 0.233394
C25   C     C_R   0.978612 0.012414 0.619684 -0.006443
C26   C     C_R   0.021386 0.987581 0.380314 -0.006450
C27   C     C_R   0.521402 0.512143 0.880318 -0.006430
C28   C     C_R   0.478598 0.487865 0.119683 -0.006433
C29   C     C_R   0.022058 0.000777 0.551542 0.051889
C30   C     C_R   0.977940 0.999211 0.448456 0.051890
C31   C     C_R   0.477951 0.500471 0.948453 0.051875
C32   C     C_R   0.522049 0.499542 0.051547 0.051878
H1    H     H_    0.852859 0.009990 0.338361 0.167609
H2    H     H_    0.147139 0.989976 0.661637 0.167611
H3    H     H_    0.647089 0.511643 0.161657 0.167611
H4    H     H_    0.352910 0.488398 0.838344 0.167613
C33   C     C_3   0.968055 0.980912 0.270204 -0.393813
C34   C     C_3   0.007586 0.947048 0.192425 -0.345307
C35   C     C_3   0.941018 0.936602 0.090148 -0.679289
H5    H     H_    0.893737 0.825461 0.087623 0.266272
H6    H     H_    0.910172 0.079778 0.068971 0.242795
H7    H     H_    0.969909 0.894756 0.036148 0.210679
H8    H     H_    0.049445 0.068641 0.191953 0.204872
H9    H     H_    0.041374 0.807061 0.207226 0.207482
H10   H     H_    0.923347 0.859250 0.260378 0.215260
H11   H     H_    0.932665 0.119331 0.251405 0.212001
C36   C     C_3   0.031943 0.019083 0.729793 -0.393808
C37   C     C_3   0.992411 0.052973 0.807569 -0.345338
C38   C     C_3   0.058980 0.063501 0.909841 -0.679301
H12   H     H_    0.089898 0.920399 0.931006 0.242845
H13   H     H_    0.106201 0.174794 0.912362 0.266259
H14   H     H_    0.030076 0.105189 0.963851 0.210674
H15   H     H_    0.958610 0.192941 0.792752 0.207488
H16   H     H_    0.950564 0.931363 0.808060 0.204879
H17   H     H_    0.067326 0.880655 0.748595 0.211986
H18   H     H_    0.076657 0.140732 0.739620 0.215273
C39   C     C_3   0.531907 0.481555 0.229807 -0.393775
C40   C     C_3   0.492407 0.446827 0.307546 -0.345209
C41   C     C_3   0.558978 0.436422 0.409824 -0.679365
H19   H     H_    0.606294 0.325346 0.412337 0.266153
H20   H     H_    0.589781 0.579634 0.431009 0.242879
H21   H     H_    0.530093 0.394545 0.463823 0.210700
H22   H     H_    0.450389 0.568017 0.308127 0.204899
H23   H     H_    0.458794 0.306616 0.292623 0.207425
H24   H     H_    0.576866 0.360408 0.239676 0.215266
H25   H     H_    0.567015 0.620336 0.248603 0.211907
C42   C     C_3   0.468092 0.518467 0.770195 -0.393774
C43   C     C_3   0.507595 0.553148 0.692454 -0.345243
C44   C     C_3   0.441024 0.563634 0.590181 -0.679368
H26   H     H_    0.410153 0.420493 0.569006 0.242922
H27   H     H_    0.393765 0.674855 0.587671 0.266141
H28   H     H_    0.469923 0.605364 0.536173 0.210691
H29   H     H_    0.541235 0.693323 0.707384 0.207432
H30   H     H_    0.549589 0.431909 0.691866 0.204907
H31   H     H_    0.432972 0.379703 0.751398 0.211900
H32   H     H_    0.423144 0.639637 0.760326 0.215276
Br1   Br    Br    0.271960 0.989737 0.576862 -0.610237
Br2   Br    Br    0.728038 0.010259 0.423137 -0.610224
Br3   Br    Br    0.228054 0.488554 0.923069 -0.610355
Br4   Br    Br    0.771947 0.511488 0.076931 -0.610339

loop_
_geom_bond_atom_site_label_1
_geom_bond_atom_site_label_2
_ccdc_geom_bond_type
C33   H11   S    
C2    C11   S    
C16   C23   A    
C31   C32   A    
C35   H6    S    
O1    C5    A    
C44   H26   S    
C38   H12   S    
O3    C7    A    
C18   H2    S    
C36   H17   S    
C39   C40   S    
C43   H30   S    
C14   C25   A    
C29   C30   A    
O7    C3    A    
C26   C30   A    
C34   H8    S    
O20   V4    S    
C18   C29   A    
O8    V4    S    
O4    C8    A    
C25   C29   A    
O3    V1    S    
O2    V4    S    
C40   H22   S    
O17   V1    S    
C18   C22   A    
C14   C21   A    
C37   H16   S    
C37   H15   S    
C27   C42   S    
C1    O15   A    
C2    O16   A    
O5    V1    S    
O2    C6    A    
C8    C14   S    
O19   V1    S    
C42   H32   S    
C19   H3    S    
C39   H24   S    
O11   C7    A    
C15   C28   A    
C35   H7    S    
O12   C8    A    
O9    V1    S    
C38   H13   S    
C28   C39   S    
O13   V1    S    
O11   V3    S    
C36   H18   S    
C43   H29   S    
C22   Br1   S    
O4    V2    S    
O18   V2    S    
C42   C43   S    
C3    C10   S    
C9    C10   T    
C7    C13   S    
C24   Br3   S    
O6    V2    S    
O20   V2    S    
O6    C2    A    
O5    C1    A    
C34   C35   S    
C41   H19   S    
C5    C15   S    
O8    C4    A    
C6    C16   S    
O9    C5    A    
O14   V2    S    
C39   H25   S    
C41   H20   S    
C44   H28   S    
C38   H14   S    
O19   V3    S    
O1    V3    S    
C33   H10   S    
C3    O13   A    
C23   Br4   S    
O7    V3    S    
C37   C38   S    
O10   V2    S    
C34   H9    S    
C16   C27   A    
O17   V3    S    
O18   V4    S    
C4    C9    S    
O10   C6    A    
C17   H1    S    
C36   C37   S    
O15   V3    S    
O12   V4    S    
C13   C26   A    
C20   C31   A    
C20   H4    S    
C40   H23   S    
C43   C44   S    
C27   C31   A    
C33   C34   S    
C17   C30   A    
C21   Br2   S    
C35   H5    S    
O16   V4    S    
C20   C24   A    
C19   C32   A    
C41   H21   S    
C44   H27   S    
C40   C41   S    
C25   C36   S    
C4    O14   A    
C11   C12   T    
C26   C33   S    
C17   C21   A    
C42   H31   S    
C13   C22   A    
C19   C23   A    
C28   C32   A    
C1    C12   S    
C15   C24   A    
