data_str_m3_o1_o10_f0_pcu.sym.181
_audit_creation_date              2012-12-10T18:42:31-0500
_audit_creation_method            fapswitch 2.2
_symmetry_space_group_name_H-M    P1
_symmetry_Int_Tables_number       1
_space_group_crystal_system       triclinic
_cell_length_a                    8.59205
_cell_length_b                    10.838031
_cell_length_c                    9.839279
_cell_angle_alpha                 88.867881
_cell_angle_beta                  98.481003
_cell_angle_gamma                 90.141839
_cell_volume                      906.046287479

loop_
_atom_site_label
_atom_site_type_symbol
_atom_type_description
_atom_site_fract_x
_atom_site_fract_y
_atom_site_fract_z
_atom_type_partial_charge
C1    C     C_R   0.498292 0.259759 0.501888 0.870005
C2    C     C_R   0.498323 0.740239 0.497676 0.869710
C3    C     C_R   0.201141 0.500079 0.464171 0.973334
C4    C     C_R   0.798846 0.500005 0.535821 0.971483
C5    C     C_2   0.036192 0.500315 0.444798 -0.391360
C6    C     C_2   0.963781 0.499924 0.555174 -0.392477
C7    C     C_R   0.493425 0.069672 0.379284 -0.259111
C8    C     C_R   0.493071 0.930317 0.618968 -0.259405
C9    C     C_R   0.490440 0.943154 0.369618 0.100710
C10   C     C_R   0.490063 0.056834 0.627860 0.100684
C11   C     C_R   0.494350 0.872803 0.493160 -0.082327
C12   C     C_R   0.494324 0.127190 0.505378 -0.082370
C13   C     C_R   0.638228 0.498789 0.089513 -0.085293
C14   C     C_R   0.361858 0.500912 0.910545 -0.099454
C15   C     C_R   0.638216 0.499349 0.945806 -0.090937
C16   C     C_R   0.361876 0.501067 0.054157 -0.105876
H1    H     H_    0.974861 0.500825 0.339949 0.163148
H2    H     H_    0.025105 0.499444 0.660019 0.163549
H3    H     H_    0.494907 0.123833 0.285686 0.173311
H4    H     H_    0.494260 0.876150 0.712911 0.173263
H5    H     H_    0.749071 0.497916 0.157264 0.131117
H6    H     H_    0.250999 0.501624 0.842800 0.130209
H7    H     H_    0.748983 0.498593 0.906161 0.133824
H8    H     H_    0.251096 0.502003 0.093792 0.132979
N1    N     N_R   0.499960 0.499970 0.857200 -0.074306
N2    N     N_R   0.500040 0.500030 0.142800 -0.074309
O1    O     O_R   0.499990 0.316750 0.614620 -0.627892
O2    O     O_R   0.500010 0.683250 0.385380 -0.628000
O3    O     O_R   0.499990 0.316780 0.385290 -0.619665
O4    O     O_R   0.500010 0.683220 0.614710 -0.619734
O5    O     O_R   0.271750 0.499990 0.587840 -0.623056
O6    O     O_R   0.728250 0.500010 0.412160 -0.622966
O7    O     O_R   0.271750 0.500010 0.358510 -0.638975
O8    O     O_R   0.728250 0.499990 0.641490 -0.638980
Zn1   Zn    Zn3+2 0.500000 0.499980 0.653120 0.930740
Zn2   Zn    Zn3+2 0.500000 0.500020 0.346880 0.930735
C17   C     C_3   0.482140 0.891800 0.225647 -0.390966
C18   C     C_3   0.645947 0.856096 0.194137 -0.314023
C19   C     C_3   0.637865 0.814749 0.045912 -0.889942
H9    H     H_    0.753694 0.777369 0.029475 0.244169
H10   H     H_    0.546777 0.742557 0.022606 0.278477
H11   H     H_    0.607614 0.893644 0.973834 0.255603
H12   H     H_    0.726417 0.936667 0.210229 0.210709
H13   H     H_    0.697594 0.780521 0.264014 0.244393
H14   H     H_    0.396625 0.814899 0.208246 0.219917
H15   H     H_    0.432212 0.962536 0.147959 0.176268
C20   C     C_3   0.481354 0.108160 0.769638 -0.389472
C21   C     C_3   0.645015 0.143660 0.843713 -0.316648
C22   C     C_3   0.636580 0.184618 0.989938 -0.889221
H16   H     H_    0.545002 0.256476 0.989934 0.278232
H17   H     H_    0.606818 0.105455 0.054005 0.255661
H18   H     H_    0.752162 0.222251 0.036366 0.244748
H19   H     H_    0.725559 0.063088 0.848235 0.210058
H20   H     H_    0.696737 0.219376 0.787473 0.243029
H21   H     H_    0.395883 0.185170 0.764831 0.220324
H22   H     H_    0.431223 0.037434 0.834317 0.176377

loop_
_geom_bond_atom_site_label_1
_geom_bond_atom_site_label_2
_ccdc_geom_bond_type
C3    O5    A    
C18   H13   S    
C17   C18   S    
C4    O8    A    
C7    H3    S    
C20   C21   S    
C2    O4    A    
C22   H18   S    
C14   H6    S    
C9    C17   S    
C3    C5    S    
C13   H5    S    
C18   H12   S    
C16   H8    S    
C8    H4    S    
C21   H20   S    
C9    C11   A    
O3    Zn2   S    
O2    Zn2   S    
C1    O3    A    
C4    O6    A    
C1    C12   S    
C10   C12   A    
O4    Zn1   S    
N1    Zn1   S    
C8    C11   A    
C5    C6    D    
C2    C11   S    
O6    Zn2   S    
C15   H7    S    
C21   C22   S    
C22   H16   S    
C19   H11   S    
O5    Zn1   S    
C13   C15   A    
C14   N1    A    
C16   N2    A    
C21   H19   S    
C6    H2    S    
C14   C16   A    
C7    C12   A    
C15   N1    A    
C4    C6    S    
C5    H1    S    
C13   N2    A    
C17   H14   S    
C7    C9    A    
C19   H9    S    
O7    Zn2   S    
C18   C19   S    
C19   H10   S    
C20   H21   S    
O8    Zn1   S    
N2    Zn2   S    
C10   C20   S    
C1    O1    A    
C3    O7    A    
C2    O2    A    
O1    Zn1   S    
C17   H15   S    
C8    C10   A    
C20   H22   S    
C22   H17   S    
