data_str_m4_o15_o24_f0_acs.sym.111
_audit_creation_date              2012-12-11T14:28:13-0500
_audit_creation_method            fapswitch 2.2
_symmetry_space_group_name_H-M    P1
_symmetry_Int_Tables_number       1
_space_group_crystal_system       triclinic
_cell_length_a                    10.926287
_cell_length_b                    19.682362
_cell_length_c                    18.731246
_cell_angle_alpha                 89.756545
_cell_angle_beta                  89.277678
_cell_angle_gamma                 89.551423
_cell_volume                      4027.77240342

loop_
_atom_site_label
_atom_site_type_symbol
_atom_type_description
_atom_site_fract_x
_atom_site_fract_y
_atom_site_fract_z
_atom_type_partial_charge
C1    C     C_R   0.319533 0.940035 0.637430 0.527694
C2    C     C_R   0.317725 0.963883 0.855491 0.576766
C3    C     C_R   0.318616 0.061155 0.362519 0.521619
C4    C     C_R   0.317502 0.063918 0.137950 0.546576
C5    C     C_R   0.819531 0.440028 0.637430 0.527695
C6    C     C_R   0.817722 0.463887 0.855489 0.576789
C7    C     C_R   0.818616 0.561154 0.362519 0.521614
C8    C     C_R   0.817500 0.563918 0.137950 0.546598
C9    C     C_3   0.158200 0.722718 0.463675 -0.064874
C10   C     C_3   0.221262 0.750773 0.048568 -0.120234
C11   C     C_3   0.142793 0.306009 0.518069 -0.129026
C12   C     C_3   0.202218 0.284217 0.959572 -0.128093
C13   C     C_3   0.658241 0.222725 0.463682 -0.064900
C14   C     C_3   0.721270 0.250772 0.048569 -0.120270
C15   C     C_3   0.642785 0.806008 0.518066 -0.129037
C16   C     C_3   0.702256 0.784181 0.959552 -0.128069
C17   C     C_3   0.025558 0.725397 0.438078 0.045747
C18   C     C_3   0.087754 0.747508 0.073627 0.036059
C19   C     C_3   0.061539 0.261376 0.566482 0.035591
C20   C     C_3   0.085375 0.254956 0.926937 0.036934
C21   C     C_3   0.525608 0.225416 0.438077 0.045752
C22   C     C_3   0.587763 0.247507 0.073631 0.036047
C23   C     C_3   0.561516 0.761383 0.566477 0.035586
C24   C     C_3   0.585372 0.754950 0.926938 0.036907
C25   C     C_R   0.336588 0.038021 0.436265 -0.037679
C26   C     C_R   0.326554 0.047486 0.061968 -0.026263
C27   C     C_R   0.335890 0.966304 0.565271 -0.014143
C28   C     C_R   0.319673 0.996237 0.924028 -0.016363
C29   C     C_R   0.836588 0.538020 0.436265 -0.037682
C30   C     C_R   0.826540 0.547488 0.061967 -0.026219
C31   C     C_R   0.835886 0.466299 0.565270 -0.014136
C32   C     C_R   0.819657 0.496251 0.924022 -0.016325
C33   C     C_R   0.572322 0.020838 0.429217 0.425463
C34   C     C_R   0.563229 0.032435 0.052585 0.410255
C35   C     C_R   0.571032 0.965078 0.563022 0.398471
C36   C     C_R   0.540106 0.014830 0.909548 0.433092
C37   C     C_R   0.072322 0.520837 0.429217 0.425467
C38   C     C_R   0.063216 0.532434 0.052572 0.410226
C39   C     C_R   0.071030 0.465075 0.563022 0.398442
C40   C     C_R   0.040072 0.514884 0.909529 0.433070
C41   C     C_R   0.674996 0.989189 0.454791 -0.072872
C42   C     C_R   0.660917 0.009329 0.010943 -0.092546
C43   C     C_R   0.675306 0.966233 0.522680 -0.114060
C44   C     C_R   0.647462 0.994145 0.940267 -0.097353
C45   C     C_R   0.174997 0.489192 0.454793 -0.072863
C46   C     C_R   0.160894 0.509325 0.010919 -0.092592
C47   C     C_R   0.175306 0.466237 0.522683 -0.114055
C48   C     C_R   0.147425 0.494173 0.940235 -0.097331
C49   C     C_R   0.453065 0.982880 0.533463 -0.047629
C50   C     C_R   0.431909 0.017839 0.951487 -0.065807
C51   C     C_R   0.453694 0.015202 0.464717 -0.037737
C52   C     C_R   0.440350 0.032565 0.024793 -0.040594
C53   C     C_R   0.953062 0.482876 0.533462 -0.047634
C54   C     C_R   0.931883 0.517870 0.951475 -0.065835
C55   C     C_R   0.953693 0.515199 0.464717 -0.037734
C56   C     C_R   0.940333 0.532578 0.024784 -0.040561
C57   C     C_R   0.227184 0.979159 0.528291 0.029497
C58   C     C_R   0.211152 0.997752 0.966555 -0.000172
C59   C     C_R   0.227733 0.027417 0.475151 -0.006875
C60   C     C_R   0.212564 0.037497 0.026905 -0.007964
C61   C     C_R   0.727178 0.479161 0.528293 0.029498
C62   C     C_R   0.711138 0.497752 0.966554 -0.000164
C63   C     C_R   0.727734 0.527420 0.475152 -0.006884
C64   C     C_R   0.712545 0.537492 0.026908 -0.007960
C65   C     C_R   0.115685 0.945501 0.543247 -0.070896
C66   C     C_R   0.101670 0.959869 0.953582 -0.098013
C67   C     C_R   0.114450 0.056405 0.455568 -0.094071
C68   C     C_R   0.097439 0.056261 0.056510 -0.064495
C69   C     C_R   0.615672 0.445510 0.543250 -0.070897
C70   C     C_R   0.601666 0.459859 0.953582 -0.098013
C71   C     C_R   0.614455 0.556413 0.455569 -0.094079
C72   C     C_R   0.597413 0.556238 0.056524 -0.064497
C73   C     C_R   0.008643 0.965012 0.510833 -0.087992
C74   C     C_R   0.996898 0.968363 0.995210 -0.157898
C75   C     C_R   0.005658 0.023977 0.470907 -0.072688
C76   C     C_R   0.996482 0.015948 0.048686 -0.082219
C77   C     C_R   0.508636 0.465023 0.510832 -0.087994
C78   C     C_R   0.496904 0.468328 0.995225 -0.157935
C79   C     C_R   0.505659 0.523988 0.470904 -0.072675
C80   C     C_R   0.496484 0.515897 0.048716 -0.082251
C81   C     C_R   0.137972 0.759303 0.642230 0.524885
C82   C     C_R   0.183842 0.771095 0.863240 0.534893
C83   C     C_R   0.130525 0.241632 0.355103 0.562562
C84   C     C_R   0.180374 0.230350 0.136210 0.525864
C85   C     C_R   0.637979 0.259305 0.642231 0.524899
C86   C     C_R   0.683838 0.271095 0.863242 0.534898
C87   C     C_R   0.630522 0.741632 0.355101 0.562560
C88   C     C_R   0.680395 0.730345 0.136211 0.525865
C89   C     C_R   0.537011 0.772665 0.642540 0.526130
C90   C     C_R   0.543087 0.770259 0.854719 0.524349
C91   C     C_R   0.497429 0.212979 0.362632 0.531389
C92   C     C_R   0.542794 0.229581 0.144878 0.538340
C93   C     C_R   0.037026 0.272660 0.642544 0.526120
C94   C     C_R   0.043091 0.270259 0.854717 0.524358
C95   C     C_R   0.997393 0.712965 0.362623 0.531412
C96   C     C_R   0.042789 0.729580 0.144875 0.538343
C97   C     C_3   0.001850 0.792352 0.477562 -0.113508
C98   C     C_3   0.052716 0.810072 0.029737 -0.119796
C99   C     C_3   0.105342 0.196026 0.531145 -0.125391
C100  C     C_3   0.105981 0.186017 0.962552 -0.094071
C101  C     C_3   0.501901 0.292370 0.477562 -0.113516
C102  C     C_3   0.552721 0.310072 0.029746 -0.119807
C103  C     C_3   0.605305 0.696029 0.531143 -0.125379
C104  C     C_3   0.605936 0.686008 0.962556 -0.094113
C105  C     C_3   0.134986 0.789709 0.503801 -0.155007
C106  C     C_3   0.187277 0.814029 0.002662 -0.175928
C107  C     C_3   0.187049 0.239990 0.482365 -0.165386
C108  C     C_3   0.223636 0.214281 0.996330 -0.171724
C109  C     C_3   0.635029 0.289716 0.503811 -0.154959
C110  C     C_3   0.687279 0.314030 0.002666 -0.175879
C111  C     C_3   0.687027 0.739985 0.482365 -0.165389
C112  C     C_3   0.723631 0.714243 0.996315 -0.171695
C113  C     C_3   0.091539 0.749065 0.569704 0.001926
C114  C     C_3   0.154135 0.766525 0.940431 0.001231
C115  C     C_3   0.083343 0.246753 0.428570 0.021569
C116  C     C_3   0.146285 0.238551 0.060465 0.005174
C117  C     C_3   0.591555 0.249070 0.569706 0.001927
C118  C     C_3   0.654128 0.266528 0.940434 0.001245
C119  C     C_3   0.583329 0.746755 0.428566 0.021565
C120  C     C_3   0.646325 0.738540 0.060459 0.005184
C121  C     C_3   0.959483 0.751561 0.544569 -0.161628
C122  C     C_3   0.021325 0.763025 0.966741 -0.133346
C123  C     C_3   0.000760 0.202293 0.476368 -0.122661
C124  C     C_3   0.029699 0.211224 0.028130 -0.099664
C125  C     C_3   0.459507 0.251578 0.544561 -0.161638
C126  C     C_3   0.521321 0.263028 0.966749 -0.133361
C127  C     C_3   0.500730 0.702302 0.476363 -0.122651
C128  C     C_3   0.529700 0.711242 0.028143 -0.099720
C129  C     C_3   0.981892 0.684001 0.503606 -0.181828
C130  C     C_3   0.055221 0.700541 0.011737 -0.104500
C131  C     C_3   0.955029 0.267510 0.513562 -0.100838
C132  C     C_3   0.008451 0.280079 0.991001 -0.119682
C133  C     C_3   0.481912 0.184019 0.503597 -0.181819
C134  C     C_3   0.555221 0.200542 0.011741 -0.104508
C135  C     C_3   0.455011 0.767523 0.513554 -0.100833
C136  C     C_3   0.508494 0.780100 0.991010 -0.119756
C137  C     C_3   0.114210 0.682610 0.529343 0.017940
C138  C     C_3   0.187859 0.704386 0.985862 0.084283
C139  C     C_3   0.036988 0.311054 0.464167 0.051164
C140  C     C_3   0.124871 0.307161 0.024049 0.072069
C141  C     C_3   0.614222 0.182616 0.529343 0.017937
C142  C     C_3   0.687859 0.204388 0.985862 0.084238
C143  C     C_3   0.536984 0.811060 0.464161 0.051160
C144  C     C_3   0.624955 0.807152 0.024036 0.072094
Cr1   Cr    Cr6+3 0.488160 0.884660 0.750000 1.155549
Cr2   Cr    Cr6+3 0.488160 0.115340 0.250000 1.184755
Cr3   Cr    Cr6+3 0.988160 0.384660 0.750000 1.155520
Cr4   Cr    Cr6+3 0.988160 0.615340 0.250000 1.184720
Cr5   Cr    Cr6+3 0.173480 0.883120 0.750000 1.019735
Cr6   Cr    Cr6+3 0.173480 0.116880 0.250000 1.007561
Cr7   Cr    Cr6+3 0.673480 0.383120 0.750000 1.019733
Cr8   Cr    Cr6+3 0.673480 0.616880 0.250000 1.007565
Cr9   Cr    Cr6+3 0.333410 0.727260 0.750000 1.115797
Cr10  Cr    Cr6+3 0.333410 0.272740 0.250000 1.068525
Cr11  Cr    Cr6+3 0.833410 0.227260 0.750000 1.115778
Cr12  Cr    Cr6+3 0.833410 0.772740 0.250000 1.068522
H1    H     H_    0.199921 0.831995 0.500665 0.156208
H2    H     H_    0.243054 0.860592 0.999463 0.127643
H3    H     H_    0.278239 0.226855 0.461810 0.114539
H4    H     H_    0.308826 0.184496 0.999792 0.101339
H5    H     H_    0.699973 0.332004 0.500706 0.156184
H6    H     H_    0.743054 0.360594 0.999469 0.127700
H7    H     H_    0.778215 0.726836 0.461815 0.114522
H8    H     H_    0.808804 0.684439 0.999760 0.101346
H9    H     H_    0.931011 0.933244 0.516963 0.083595
H10   H     H_    0.916649 0.938013 0.985640 0.129011
H11   H     H_    0.922178 0.043124 0.448422 0.144030
H12   H     H_    0.918198 0.024169 0.083243 0.157164
H13   H     H_    0.431002 0.433256 0.516956 0.083585
H14   H     H_    0.416662 0.437972 0.985653 0.128918
H15   H     H_    0.422183 0.543137 0.448414 0.144048
H16   H     H_    0.418195 0.524096 0.083278 0.157276
H17   H     H_    0.953308 0.836031 0.453083 0.138153
H18   H     H_    0.994181 0.849936 0.054033 0.176924
H19   H     H_    0.135955 0.150481 0.561335 0.144206
H20   H     H_    0.099667 0.137294 0.933408 0.148953
H21   H     H_    0.453379 0.336051 0.453075 0.138159
H22   H     H_    0.494186 0.349927 0.054058 0.176832
H23   H     H_    0.635904 0.650484 0.561337 0.144222
H24   H     H_    0.599575 0.637285 0.933418 0.148904
H25   H     H_    0.880472 0.763681 0.580164 0.132708
H26   H     H_    0.944982 0.766262 0.928921 0.137252
H27   H     H_    0.937981 0.163226 0.456219 0.151534
H28   H     H_    0.964734 0.185653 0.064777 0.180508
H29   H     H_    0.380493 0.263701 0.580154 0.132704
H30   H     H_    0.444964 0.266275 0.928938 0.137245
H31   H     H_    0.437947 0.663236 0.456215 0.151572
H32   H     H_    0.464746 0.685690 0.064811 0.180569
H33   H     H_    0.916079 0.641955 0.506305 0.093523
H34   H     H_    0.999603 0.654936 0.016677 0.105322
H35   H     H_    0.862874 0.278179 0.534658 0.115438
H36   H     H_    0.924208 0.310185 0.984733 0.105919
H37   H     H_    0.416093 0.141971 0.506269 0.093498
H38   H     H_    0.499607 0.154935 0.016681 0.105350
H39   H     H_    0.362853 0.778207 0.534642 0.115427
H40   H     H_    0.424266 0.810229 0.984765 0.105899
H41   H     H_    0.239270 0.710933 0.429575 0.158163
H42   H     H_    0.297550 0.747474 0.086705 0.139555
H43   H     H_    0.211574 0.341416 0.538185 0.123631
H44   H     H_    0.266422 0.317924 0.930267 0.119887
H45   H     H_    0.739310 0.210937 0.429582 0.158147
H46   H     H_    0.797563 0.247468 0.086702 0.139550
H47   H     H_    0.711573 0.841411 0.538181 0.123622
H48   H     H_    0.766456 0.817877 0.930229 0.119907
H49   H     H_    0.758540 0.988529 0.423535 0.148513
H50   H     H_    0.750459 0.007960 0.032539 0.163936
H51   H     H_    0.758830 0.953166 0.548236 0.159541
H52   H     H_    0.727569 0.982868 0.907635 0.154529
H53   H     H_    0.258542 0.488534 0.423539 0.148512
H54   H     H_    0.250443 0.507933 0.032513 0.164039
H55   H     H_    0.258830 0.453175 0.548241 0.159557
H56   H     H_    0.227522 0.482891 0.907597 0.154585
H57   H     H_    0.110807 0.100341 0.422016 0.153263
H58   H     H_    0.087056 0.096786 0.093310 0.167465
H59   H     H_    0.110216 0.902137 0.577948 0.150751
H60   H     H_    0.095526 0.918077 0.917202 0.172949
H61   H     H_    0.610818 0.600351 0.422019 0.153261
H62   H     H_    0.587010 0.596768 0.093319 0.167508
H63   H     H_    0.610192 0.402147 0.577954 0.150754
H64   H     H_    0.595522 0.418075 0.917193 0.172966
O1    O     O_R   0.575450 0.828820 0.667950 -0.466661
O2    O     O_R   0.575450 0.828820 0.832050 -0.523586
O3    O     O_R   0.575450 0.171180 0.332050 -0.430993
O4    O     O_R   0.575450 0.171180 0.167950 -0.445796
O5    O     O_R   0.075450 0.328820 0.667950 -0.466650
O6    O     O_R   0.075450 0.328820 0.832050 -0.523598
O7    O     O_R   0.075450 0.671180 0.332050 -0.431004
O8    O     O_R   0.075450 0.671180 0.167950 -0.445788
O9    O     O_R   0.416860 0.942890 0.674680 -0.379580
O10   O     O_R   0.416860 0.942890 0.825320 -0.431285
O11   O     O_R   0.416860 0.057110 0.325320 -0.396832
O12   O     O_R   0.416860 0.057110 0.174680 -0.372384
O13   O     O_R   0.916860 0.442890 0.674680 -0.379575
O14   O     O_R   0.916860 0.442890 0.825320 -0.431309
O15   O     O_R   0.916860 0.557110 0.325320 -0.396846
O16   O     O_R   0.916860 0.557110 0.174680 -0.372389
O17   O     O_R   0.213790 0.953680 0.668330 -0.517089
O18   O     O_R   0.213790 0.953680 0.831670 -0.547675
O19   O     O_R   0.213790 0.046320 0.331670 -0.512620
O20   O     O_R   0.213790 0.046320 0.168330 -0.519170
O21   O     O_R   0.713790 0.453680 0.668330 -0.517089
O22   O     O_R   0.713790 0.453680 0.831670 -0.547682
O23   O     O_R   0.713790 0.546320 0.331670 -0.512611
O24   O     O_R   0.713790 0.546320 0.168330 -0.519167
O25   O     O_R   0.121360 0.817890 0.672660 -0.534821
O26   O     O_R   0.121360 0.817890 0.827340 -0.526567
O27   O     O_R   0.121360 0.182110 0.327340 -0.545646
O28   O     O_R   0.121360 0.182110 0.172660 -0.547171
O29   O     O_R   0.621360 0.317890 0.672660 -0.534834
O30   O     O_R   0.621360 0.317890 0.827340 -0.526568
O31   O     O_R   0.621360 0.682110 0.327340 -0.545649
O32   O     O_R   0.621360 0.682110 0.172660 -0.547160
O33   O     O_R   0.206850 0.711370 0.665820 -0.463697
O34   O     O_R   0.206850 0.711370 0.834180 -0.415556
O35   O     O_R   0.206850 0.288630 0.334180 -0.468673
O36   O     O_R   0.206850 0.288630 0.165820 -0.439284
O37   O     O_R   0.706850 0.211370 0.665820 -0.463694
O38   O     O_R   0.706850 0.211370 0.834180 -0.415572
O39   O     O_R   0.706850 0.788630 0.334180 -0.468674
O40   O     O_R   0.706850 0.788630 0.165820 -0.439275
O41   O     O_R   0.457710 0.733190 0.672630 -0.497648
O42   O     O_R   0.457710 0.733190 0.827370 -0.514023
O43   O     O_R   0.457710 0.266810 0.327370 -0.510562
O44   O     O_R   0.457710 0.266810 0.172630 -0.515223
O45   O     O_R   0.957710 0.233190 0.672630 -0.497660
O46   O     O_R   0.957710 0.233190 0.827370 -0.514012
O47   O     O_R   0.957710 0.766810 0.327370 -0.510564
O48   O     O_R   0.957710 0.766810 0.172630 -0.515215
O49   O     O_3   0.331690 0.831680 0.750000 -0.351160
O50   O     O_3   0.331690 0.168320 0.250000 -0.377862
O51   O     O_3   0.831690 0.331680 0.750000 -0.351156
O52   O     O_3   0.831690 0.668320 0.250000 -0.377898
C145  C     C_2   0.177637 0.622566 0.561615 0.604990
O53   O     O_2   0.278030 0.605083 0.539105 -0.520154
O54   O     O_R   0.128145 0.590578 0.621942 -0.571349
H65   H     H_    0.044428 0.609093 0.635903 0.315116
C146  C     C_2   0.254440 0.643993 0.956401 0.578298
O55   O     O_2   0.213520 0.614884 0.905213 -0.448913
O56   O     O_R   0.362365 0.620652 0.984472 -0.762476
H66   H     H_    0.404277 0.587933 0.950284 0.335002
C147  C     C_2   0.983792 0.363457 0.414974 0.545230
O57   O     O_2   0.047997 0.389750 0.368928 -0.465032
O58   O     O_R   0.857916 0.375890 0.416357 -0.738846
H67   H     H_    0.830634 0.406804 0.376097 0.364721
C148  C     C_2   0.130613 0.370677 0.066079 0.590268
O59   O     O_2   0.036274 0.395040 0.091023 -0.490087
O60   O     O_R   0.245008 0.394568 0.086778 -0.720964
H68   H     H_    0.238606 0.429690 0.126124 0.362723
C149  C     C_2   0.677608 0.122565 0.561624 0.605013
O61   O     O_2   0.778003 0.105070 0.539132 -0.520106
O62   O     O_R   0.628074 0.090583 0.621941 -0.571348
H69   H     H_    0.544358 0.109108 0.635887 0.315083
C150  C     C_2   0.754397 0.143995 0.956373 0.578358
O63   O     O_2   0.713369 0.114882 0.905225 -0.448862
O64   O     O_R   0.862410 0.120682 0.984341 -0.762476
H70   H     H_    0.904238 0.087938 0.950148 0.335043
C151  C     C_2   0.483796 0.863463 0.414965 0.545231
O65   O     O_2   0.548003 0.889752 0.368919 -0.465009
O66   O     O_R   0.357920 0.875899 0.416348 -0.738848
H71   H     H_    0.330641 0.906811 0.376085 0.364723
C152  C     C_2   0.630816 0.870668 0.066055 0.590245
O67   O     O_2   0.536536 0.895044 0.091069 -0.489937
O68   O     O_R   0.745273 0.894527 0.086689 -0.721120
H72   H     H_    0.738970 0.929642 0.126048 0.362599
F1    F     F_    0.603123 0.057448 0.371646 -0.592438
F2    F     F_    0.599317 0.052483 0.117422 -0.594847
F3    F     F_    0.602602 0.954877 0.631638 -0.552773
F4    F     F_    0.544088 0.037653 0.840808 -0.548924
F5    F     F_    0.103121 0.557446 0.371646 -0.592445
F6    F     F_    0.099311 0.552472 0.117411 -0.594892
F7    F     F_    0.102600 0.454869 0.631637 -0.552800
F8    F     F_    0.044027 0.537702 0.840787 -0.548979

loop_
_geom_bond_atom_site_label_1
_geom_bond_atom_site_label_2
_ccdc_geom_bond_type
C6    C32   S    
Cr1   O10   S    
C7    C29   S    
C119  C143  S    
Cr4   O52   S    
O62   H69   S    
C120  C144  S    
C110  C118  S    
C36   C50   A    
C152  O67   D    
C16   C112  S    
C4    O12   A    
C121  H25   S    
C16   C144  S    
Cr8   O24   S    
C57   C59   A    
Cr1   O1    S    
C8    O24   A    
C58   C60   A    
C62   C70   A    
C61   C63   A    
C62   C64   A    
Cr10  O43   S    
C23   C103  S    
C48   H56   S    
C49   C51   A    
C34   C42   A    
C84   O36   A    
C50   C52   A    
C23   C89   S    
C140  C148  S    
C88   O32   A    
C97   C105  S    
C128  H32   S    
C73   C75   A    
C42   C44   A    
C20   C132  S    
C21   C133  S    
C116  C140  S    
Cr3   O6    S    
Cr10  O35   S    
C45   C47   A    
C112  H8    S    
C46   C48   A    
C115  C123  S    
C139  C147  S    
Cr2   O50   S    
C27   C57   A    
C87   O39   A    
C112  C120  S    
Cr11  O38   S    
C19   C99   S    
C29   C55   A    
C46   H54   S    
C30   C56   A    
C100  C124  S    
C15   C111  S    
Cr11  O51   S    
O68   H72   S    
C104  C128  S    
C12   C20   S    
C13   C21   S    
C85   C117  S    
C92   O44   A    
C63   C71   A    
C113  C137  S    
C36   C44   A    
C33   C51   A    
C80   H16   S    
C37   C45   A    
C130  C138  S    
C91   O43   A    
C39   C47   A    
C40   C48   A    
Cr9   O33   S    
C133  C141  S    
C39   F7    S    
C40   F8    S    
C24   C90   S    
C15   H47   S    
C28   C58   A    
C72   H62   S    
C98   C106  S    
C33   C41   A    
C148  O60   S    
C10   C18   S    
C76   H12   S    
C95   O7    A    
C34   F2    S    
C2    C28   S    
C32   C62   A    
C93   O5    A    
C134  H38   S    
C129  C137  S    
C126  C134  S    
Cr6   O19   S    
C83   O27   A    
C10   C138  S    
C81   O33   A    
Cr10  O50   S    
C130  H34   S    
C144  C152  S    
C96   O48   A    
C14   C142  S    
C85   O29   A    
Cr5   O26   S    
C47   H55   S    
C69   C77   A    
Cr4   O8    S    
Cr6   O50   S    
C71   C79   A    
C110  H6    S    
Cr6   O28   S    
C74   C76   A    
C96   O8    A    
C105  C113  S    
C65   H59   S    
C89   O1    A    
C78   C80   A    
C9    C105  S    
C66   C74   A    
C78   H14   S    
C124  C132  S    
C125  H29   S    
C20   C94   S    
C97   C121  S    
C59   C67   A    
C129  H33   S    
C35   C49   A    
C101  C125  S    
C35   C43   A    
C132  H36   S    
C24   C136  S    
C135  C143  S    
C6    O14   A    
C127  H31   S    
C84   C116  S    
C146  O55   D    
C151  O66   S    
C9    H41   S    
Cr7   O30   S    
Cr2   O11   S    
C100  C108  S    
C82   O26   A    
C83   C115  S    
C103  C127  S    
C73   H9    S    
C3    O11   A    
C104  C112  S    
C94   O6    A    
C1    O17   A    
C45   H53   S    
C87   C119  S    
C150  O63   D    
Cr7   O21   S    
Cr2   O4    S    
C95   O47   A    
Cr12  O48   S    
C57   C65   A    
C149  O61   D    
C12   H44   S    
C15   C143  S    
C40   C54   A    
C102  H22   S    
C10   C106  S    
C67   C75   A    
Cr8   O32   S    
C14   C110  S    
Cr1   O9    S    
C102  C126  S    
C147  O58   S    
C113  C121  S    
C84   O28   A    
Cr4   O15   S    
C85   O37   A    
C14   C22   S    
C72   C80   A    
C16   H48   S    
C14   H46   S    
C145  O54   S    
C114  C138  S    
C66   H60   S    
C90   O42   A    
C38   C46   A    
Cr10  O44   S    
C2    O10   A    
C37   C55   A    
Cr3   O14   S    
C38   C56   A    
C133  H37   S    
O58   H67   S    
C22   C92   S    
C6    O22   A    
C25   C59   A    
C17   C97   S    
C27   C49   A    
C119  C127  S    
C29   C63   A    
C30   C64   A    
C41   C43   A    
C31   C61   A    
O54   H65   S    
Cr3   O5    S    
C109  C117  S    
Cr10  O36   S    
C11   C19   S    
C127  C135  S    
C136  H40   S    
C128  C136  S    
C35   F3    S    
Cr11  O37   S    
C93   O45   A    
C101  C109  S    
C103  C111  S    
C79   H15   S    
C11   C139  S    
C86   O38   A    
Cr3   O51   S    
C9    C137  S    
C105  H1    S    
C38   F6    S    
C100  H20   S    
O56   H66   S    
C12   C140  S    
C17   C95   S    
C13   C141  S    
C88   C120  S    
C68   H58   S    
C19   C93   S    
Cr12  O39   S    
C77   C79   A    
C71   H61   S    
C32   C54   A    
C152  O68   S    
C7    O15   A    
C43   H51   S    
C126  H30   S    
C97   H17   S    
Cr8   O23   S    
O64   H70   S    
C131  C139  S    
Cr1   O2    S    
C83   O35   A    
C117  C141  S    
O66   H71   S    
C148  O59   D    
C134  C142  S    
O60   H68   S    
C20   C100  S    
C92   O4    A    
Cr5   O18   S    
C4    O20   A    
C86   C118  S    
C8    O16   A    
C22   C134  S    
Cr6   O20   S    
C102  C110  S    
C68   C76   A    
C91   O3    A    
C74   H10   S    
C143  C151  S    
C12   C108  S    
C21   C91   S    
Cr5   O25   S    
C116  C124  S    
C123  C131  S    
C69   H63   S    
C121  C129  S    
C4    C26   S    
C120  C128  S    
C124  H28   S    
Cr12  O52   S    
C132  C140  S    
C99   C107  S    
C34   C52   A    
C36   F4    S    
C23   C135  S    
C8    C30   S    
C108  C116  S    
Cr5   O49   S    
C136  C144  S    
C24   C104  S    
C39   C53   A    
C42   H50   S    
C103  H23   S    
C11   H43   S    
Cr11  O46   S    
C101  H21   S    
C88   O40   A    
C135  H39   S    
C60   C68   A    
C81   C113  S    
Cr5   O17   S    
C82   O34   A    
C3    O19   A    
C86   O30   A    
Cr9   O34   S    
C70   C78   A    
C18   C96   S    
C151  O65   D    
Cr7   O29   S    
Cr2   O12   S    
C142  C150  S    
C106  C114  S    
C111  C119  S    
C90   O2    A    
C98   H18   S    
C44   H52   S    
C65   C73   A    
Cr1   O49   S    
C5    C31   S    
C28   C50   A    
C58   C66   A    
C13   C109  S    
C21   C101  S    
C15   C23   S    
C16   C24   S    
C5    O13   A    
Cr4   O7    S    
C10   H42   S    
C53   C55   A    
C19   C131  S    
Cr6   O27   S    
C94   O46   A    
C54   C56   A    
C17   C129  S    
C81   O25   A    
C111  H7    S    
C82   C114  S    
C2    O18   A    
C147  O57   D    
C106  H2    S    
C70   H64   S    
Cr4   O16   S    
C25   C51   A    
C26   C52   A    
C125  C133  S    
C145  O53   D    
C99   H19   S    
Cr11  O45   S    
C31   C53   A    
Cr9   O42   S    
C107  C115  S    
C98   C122  S    
Cr3   O13   S    
C9    C17   S    
C146  O56   S    
C138  C146  S    
C11   C107  S    
C67   H57   S    
C33   F1    S    
Cr9   O41   S    
C99   C123  S    
C61   C69   A    
Cr9   O49   S    
C115  C139  S    
C118  C142  S    
C107  H3    S    
C141  C149  S    
C108  H4    S    
C131  H35   S    
C118  C126  S    
C22   C102  S    
C37   F5    S    
C87   O31   A    
C150  O64   S    
C109  H5    S    
Cr7   O22   S    
Cr2   O3    S    
Cr7   O51   S    
C104  H24   S    
Cr12  O47   S    
C26   C60   A    
Cr8   O52   S    
C137  C145  S    
C149  O62   S    
C13   H45   S    
C64   C72   A    
C41   H49   S    
C18   C130  S    
C114  C122  S    
C1    O9    A    
C122  H26   S    
C3    C25   S    
C89   O41   A    
C77   H13   S    
C123  H27   S    
C7    O23   A    
C1    C27   S    
C75   H11   S    
C18   C98   S    
C5    O21   A    
C117  C125  S    
C122  C130  S    
Cr8   O31   S    
Cr12  O40   S    
