data_str_m9_o2_o4_f0_sra.sym.105
_audit_creation_date              2012-12-11T16:37:14-0500
_audit_creation_method            fapswitch 2.2
_symmetry_space_group_name_H-M    P1
_symmetry_Int_Tables_number       1
_space_group_crystal_system       triclinic
_cell_length_a                    19.482635
_cell_length_b                    6.941116
_cell_length_c                    17.626965
_cell_angle_alpha                 89.935395
_cell_angle_beta                  108.826029
_cell_angle_gamma                 90.082923
_cell_volume                      2256.19100187

loop_
_atom_site_label
_atom_site_type_symbol
_atom_type_description
_atom_site_fract_x
_atom_site_fract_y
_atom_site_fract_z
_atom_type_partial_charge
O1    O     O_R   0.561710 0.369960 0.440200 -0.538691
O2    O     O_R   0.061710 0.630040 0.940200 -0.535586
O3    O     O_R   0.412630 0.033330 0.406330 -0.542120
O4    O     O_R   0.912630 0.966670 0.906330 -0.543435
O5    O     O_R   0.438290 0.869790 0.559800 -0.539384
O6    O     O_R   0.938290 0.130210 0.059800 -0.534969
C1    C     C_R   0.384580 0.203064 0.383589 0.696224
C2    C     C_R   0.884575 0.796888 0.883600 0.694624
O7    O     O_R   0.559570 0.039810 0.430640 -0.542705
O8    O     O_R   0.059570 0.960190 0.930640 -0.539397
O9    O     O_R   0.586280 0.876320 0.584290 -0.538142
O10   O     O_R   0.086280 0.123680 0.084290 -0.539413
C3    C     C_R   0.580698 0.209156 0.414917 0.711214
C4    C     C_R   0.081070 0.791311 0.915930 0.707980
O11   O     O_R   0.413720 0.363440 0.415710 -0.537342
O12   O     O_R   0.913720 0.636560 0.915710 -0.538720
O13   O     O_3   0.508590 0.205630 0.550380 -0.368229
O14   O     O_3   0.008590 0.794370 0.050380 -0.366831
V1    V     V_3+5 0.498410 0.928130 0.490650 1.386102
V2    V     V_3+5 0.998410 0.071870 0.990650 1.404199
O15   O     O_R   0.587370 0.546990 0.593670 -0.539867
O16   O     O_R   0.087370 0.453010 0.093670 -0.541329
C5    C     C_R   0.615597 0.716793 0.616428 0.696225
C6    C     C_R   0.115604 0.283257 0.116418 0.693578
O17   O     O_R   0.440430 0.540520 0.569360 -0.541972
O18   O     O_R   0.940430 0.459480 0.069360 -0.536436
C7    C     C_R   0.419223 0.709096 0.585070 0.715531
C8    C     C_R   0.918938 0.290753 0.084196 0.710989
V3    V     V_3+5 0.501590 0.428960 0.509350 1.391193
V4    V     V_3+5 0.001590 0.571040 0.009350 1.411016
O19   O     O_3   0.491410 0.701330 0.449620 -0.369999
O20   O     O_3   0.991410 0.298670 0.949620 -0.369875
C9    C     C_R   0.290370 0.902639 0.688825 -0.167152
C10   C     C_R   0.746759 0.240873 0.137822 -0.164692
H1    H     H_    0.264022 0.038166 0.692002 0.189097
H2    H     H_    0.689304 0.223909 0.106576 0.120289
C11   C     C_R   0.336947 0.893060 0.643092 -0.200389
C12   C     C_R   0.794596 0.251752 0.093297 -0.174446
H3    H     H_    0.345053 0.021718 0.612198 0.138459
H4    H     H_    0.773426 0.240214 0.028595 0.104554
C13   C     C_R   0.371301 0.719443 0.635936 -0.099033
C14   C     C_R   0.869002 0.280201 0.131750 -0.077623
C15   C     C_R   0.358898 0.556205 0.677177 -0.267788
C16   C     C_R   0.895254 0.294990 0.215564 -0.254928
H5    H     H_    0.383532 0.420323 0.670646 0.124959
H6    H     H_    0.952637 0.317850 0.245765 0.108691
C17   C     C_R   0.314025 0.566373 0.726207 0.410083
C18   C     C_R   0.847846 0.276639 0.261100 0.451447
C19   C     C_R   0.277821 0.740443 0.730238 0.028726
C20   C     C_R   0.772570 0.254166 0.221850 0.034885
C21   C     C_R   0.247661 0.690440 0.857155 -0.155144
C22   C     C_R   0.716678 0.395776 0.318596 -0.166243
H7    H     H_    0.301760 0.634832 0.885622 0.139595
H8    H     H_    0.748988 0.524306 0.321413 0.163738
C23   C     C_R   0.199857 0.699928 0.901586 -0.188529
C24   C     C_R   0.670390 0.386122 0.364878 -0.196040
H9    H     H_    0.217369 0.647751 0.962803 0.110045
H10   H     H_    0.668463 0.507539 0.402674 0.136297
C25   C     C_R   0.130809 0.781059 0.868228 -0.083240
C26   C     C_R   0.628445 0.220505 0.363841 -0.103412
C27   C     C_R   0.109569 0.849506 0.789169 -0.248826
C28   C     C_R   0.632710 0.066483 0.313721 -0.255846
H11   H     H_    0.056430 0.913431 0.763046 0.114453
H12   H     H_    0.601633 0.936450 0.312680 0.133378
C29   C     C_R   0.155799 0.830103 0.742401 0.443807
C30   C     C_R   0.676757 0.078679 0.263995 0.404408
C31   C     C_R   0.226396 0.754286 0.777182 0.021723
C32   C     C_R   0.720973 0.242454 0.268446 0.020106
C33   C     C_R   0.767935 0.624012 0.811933 0.106775
C34   C     C_R   0.268099 0.375968 0.311811 0.107752
C35   C     C_R   0.814228 0.782817 0.817915 -0.111746
C36   C     C_R   0.314244 0.217127 0.317875 -0.111558
C37   C     C_R   0.790685 0.927711 0.759498 -0.186654
C38   C     C_R   0.290608 0.072395 0.259474 -0.185723
H13   H     H_    0.824150 0.053084 0.761454 0.132824
H14   H     H_    0.324003 0.947141 0.261438 0.132361
C39   C     C_R   0.726139 0.905286 0.694464 -0.172067
C40   C     C_R   0.226068 0.094860 0.194447 -0.172735
H15   H     H_    0.711530 0.016268 0.648918 0.127315
H16   H     H_    0.211379 0.983966 0.148926 0.125310
C41   C     C_R   0.683241 0.736922 0.685629 -0.110293
C42   C     C_R   0.183269 0.263138 0.185590 -0.111147
C43   C     C_R   0.704120 0.601748 0.747663 0.095428
C44   C     C_R   0.204278 0.398272 0.247546 0.097287
C45   C     C_3   0.714863 0.390035 0.743960 -0.418534
C46   C     C_3   0.215275 0.609912 0.243617 -0.420172
C47   C     C_3   0.784155 0.413801 0.814453 -0.389084
C48   C     C_3   0.284573 0.586123 0.314068 -0.387859
H17   H     H_    0.724704 0.346704 0.687686 0.168457
H18   H     H_    0.225114 0.653023 0.187268 0.165328
H19   H     H_    0.672349 0.306188 0.759024 0.175631
H20   H     H_    0.172889 0.693963 0.258650 0.178341
H21   H     H_    0.834148 0.382689 0.799280 0.173090
H22   H     H_    0.334572 0.616962 0.298789 0.172178
H23   H     H_    0.781466 0.344655 0.870350 0.161066
H24   H     H_    0.282030 0.655538 0.369906 0.167432
O21   O     O_3   0.298656 0.403831 0.763837 -0.580323
C49   C     C_3   0.363148 0.314436 0.812304 0.036827
H25   H     H_    0.405439 0.421863 0.843816 0.107358
H26   H     H_    0.384864 0.219522 0.774685 0.134125
C50   C     C_3   0.345684 0.191391 0.875780 -0.260484
H27   H     H_    0.331074 0.286671 0.918809 0.184248
H28   H     H_    0.298352 0.097662 0.846627 0.209590
C51   C     C_3   0.409855 0.065337 0.921510 -0.865490
H29   H     H_    0.423652 0.963999 0.879873 0.232877
H30   H     H_    0.395475 0.979975 0.967550 0.230070
H31   H     H_    0.457841 0.156167 0.951900 0.229527
O22   O     O_3   0.874289 0.289762 0.343911 -0.580506
C52   C     C_3   0.911470 0.118339 0.376912 0.051331
H32   H     H_    0.946302 0.151701 0.439044 0.154464
H33   H     H_    0.948636 0.067483 0.344524 0.107979
C53   C     C_3   0.858146 0.957939 0.380452 -0.320938
H34   H     H_    0.819466 0.013537 0.409741 0.210183
H35   H     H_    0.827035 0.911012 0.318694 0.217216
C54   C     C_3   0.897470 0.783260 0.426977 -0.813112
H36   H     H_    0.936850 0.726138 0.399060 0.240617
H37   H     H_    0.857587 0.668402 0.426337 0.250807
H38   H     H_    0.926246 0.823141 0.490235 0.215166
O23   O     O_3   0.133588 0.893268 0.663637 -0.578542
C55   C     C_3   0.082043 0.763980 0.614318 0.049875
H39   H     H_    0.055161 0.839574 0.556867 0.148489
H40   H     H_    0.038453 0.725613 0.639916 0.107562
C56   C     C_3   0.118473 0.581480 0.596071 -0.303602
H41   H     H_    0.162701 0.622793 0.572159 0.207186
H42   H     H_    0.142360 0.497119 0.651984 0.212718
C57   C     C_3   0.064217 0.453610 0.535014 -0.818788
H43   H     H_    0.018674 0.413487 0.556922 0.234859
H44   H     H_    0.091609 0.319820 0.525626 0.237758
H45   H     H_    0.042520 0.529651 0.476726 0.231092
O24   O     O_3   0.683244 0.922514 0.217851 -0.581568
C58   C     C_3   0.616325 0.881295 0.157808 0.059694
H46   H     H_    0.623049 0.909419 0.098538 0.136704
H47   H     H_    0.569644 0.971184 0.160570 0.099998
C59   C     C_3   0.597856 0.668357 0.162388 -0.280268
H48   H     H_    0.643306 0.578544 0.157187 0.205191
H49   H     H_    0.590601 0.638440 0.221267 0.195163
C60   C     C_3   0.528573 0.612897 0.095613 -0.866467
H50   H     H_    0.481950 0.698124 0.100468 0.231273
H51   H     H_    0.517047 0.457515 0.100673 0.229318
H52   H     H_    0.534908 0.638857 0.036022 0.231980

loop_
_geom_bond_atom_site_label_1
_geom_bond_atom_site_label_2
_ccdc_geom_bond_type
C30   C32   A    
C48   H24   S    
C50   H27   S    
C23   C25   A    
C40   C42   A    
C37   H13   S    
O4    C2    A    
C58   C59   S    
V1    O19   S    
C59   C60   S    
C51   H30   S    
O21   C49   S    
C45   H19   S    
C56   H41   S    
C17   C19   A    
C3    C26   S    
C4    C25   S    
C60   H51   S    
O9    V1    S    
C57   H43   S    
C38   H14   S    
C44   C46   S    
C12   C14   A    
O3    C1    A    
C52   H33   S    
C46   C48   S    
C56   H42   S    
C9    C19   A    
C54   H36   S    
O13   V3    S    
O22   C52   S    
C26   C28   A    
C8    C14   S    
C33   C35   A    
C6    C42   S    
C51   H29   S    
O7    C3    A    
C20   C32   S    
O13   V1    S    
O5    C7    A    
O7    V1    S    
O6    C8    A    
O8    V2    S    
C54   H37   S    
C47   H23   S    
C28   H12   S    
O3    V1    S    
O14   V4    S    
V4    O20   S    
C34   C44   A    
C21   C23   A    
C33   C47   S    
C55   C56   S    
C45   C47   S    
C34   C48   S    
C2    O12   A    
C13   C15   A    
C14   C16   A    
C53   H35   S    
C53   H34   S    
C41   C43   A    
C22   H8    S    
O11   V3    S    
C39   H15   S    
O17   V3    S    
C60   H52   S    
C48   H22   S    
C10   C20   A    
C25   C27   A    
C28   C30   A    
C22   C24   A    
C36   C38   A    
O8    C4    A    
C52   C53   S    
C1    C36   S    
C35   C37   A    
C45   H17   S    
C56   C57   S    
C59   H49   S    
C1    O11   A    
C16   H6    S    
C57   H45   S    
C29   C31   A    
O15   V3    S    
C9    C11   A    
C24   C26   A    
C21   H7    S    
C33   C43   A    
C7    C13   S    
C39   C41   A    
C54   H38   S    
O10   V2    S    
C27   H11   S    
C29   O23   S    
C40   H16   S    
C21   C31   A    
C18   C20   A    
C15   H5    S    
C43   C45   S    
O18   V4    S    
C50   C51   S    
C42   C44   A    
O15   C5    A    
C46   H18   S    
O16   C6    A    
O1    C3    A    
C58   H46   S    
C55   H39   S    
C55   H40   S    
V2    O20   S    
C2    C35   S    
C57   H44   S    
O16   V4    S    
C10   C12   A    
C5    C41   S    
C58   H47   S    
C22   C32   A    
O23   C55   S    
C19   C31   S    
C59   H48   S    
O5    V1    S    
O17   C7    A    
C49   C50   S    
O6    V2    S    
C60   H50   S    
O10   C6    A    
O18   C8    A    
C17   O21   S    
C50   H28   S    
O2    V4    S    
C23   H9    S    
O24   C58   S    
C11   H3    S    
C46   H20   S    
C52   H32   S    
C12   H4    S    
O1    V3    S    
C18   O22   S    
C15   C17   A    
C47   H21   S    
O9    C5    A    
C9    H1    S    
C10   H2    S    
C24   H10   S    
O14   V2    S    
C53   C54   S    
C11   C13   A    
O2    C4    A    
C49   H26   S    
O4    V2    S    
C27   C29   A    
V3    O19   S    
C49   H25   S    
C38   C40   A    
C37   C39   A    
C34   C36   A    
O12   V4    S    
C51   H31   S    
C16   C18   A    
C30   O24   S    
