data_str_m9_o18_o18_f0_sra.sym.59
_audit_creation_date              2012-12-11T15:26:40-0500
_audit_creation_method            fapswitch 2.2
_symmetry_space_group_name_H-M    P1
_symmetry_Int_Tables_number       1
_space_group_crystal_system       triclinic
_cell_length_a                    7.22886
_cell_length_b                    12.304178
_cell_length_c                    28.990897
_cell_angle_alpha                 89.999414
_cell_angle_beta                  89.977271
_cell_angle_gamma                 90.00126
_cell_volume                      2578.60035351

loop_
_atom_site_label
_atom_site_type_symbol
_atom_type_description
_atom_site_fract_x
_atom_site_fract_y
_atom_site_fract_z
_atom_type_partial_charge
O1    O     O_R   0.647170 0.849180 0.201220 -0.544637
O2    O     O_R   0.352830 0.150820 0.798780 -0.529905
O3    O     O_R   0.352830 0.150820 0.701220 -0.544697
O4    O     O_R   0.647170 0.849180 0.298780 -0.529675
O5    O     O_R   0.147170 0.650820 0.298780 -0.544697
O6    O     O_R   0.852830 0.349180 0.701220 -0.529685
O7    O     O_R   0.852830 0.349180 0.798780 -0.544637
O8    O     O_R   0.147170 0.650820 0.201220 -0.529904
O9    O     O_R   0.317430 0.862210 0.298450 -0.549178
O10   O     O_R   0.682570 0.137790 0.701550 -0.521475
O11   O     O_R   0.682570 0.137790 0.798450 -0.549031
O12   O     O_R   0.317430 0.862210 0.201550 -0.521346
O13   O     O_R   0.817430 0.637790 0.201550 -0.549037
O14   O     O_R   0.182570 0.362210 0.798450 -0.521338
O15   O     O_R   0.182570 0.362210 0.701550 -0.549177
O16   O     O_R   0.817430 0.637790 0.298450 -0.521480
H1    H     H_    0.211391 0.252699 0.454784 0.142442
H2    H     H_    0.906482 0.762219 0.542771 0.134036
H3    H     H_    0.785213 0.746349 0.954882 0.142411
H4    H     H_    0.097366 0.238299 0.042721 0.133878
H5    H     H_    0.714787 0.246357 0.045115 0.142412
H6    H     H_    0.402714 0.738297 0.957280 0.133881
H7    H     H_    0.288529 0.752701 0.545217 0.142446
H8    H     H_    0.593469 0.262225 0.457227 0.134033
C1    C     C_R   0.486063 0.887587 0.313312 0.747822
C2    C     C_R   0.513606 0.111513 0.686986 0.730262
C3    C     C_R   0.513878 0.112420 0.813311 0.748043
C4    C     C_R   0.486445 0.888480 0.186983 0.730113
C5    C     C_R   0.986119 0.612424 0.186689 0.748045
C6    C     C_R   0.013557 0.388480 0.813017 0.730092
C7    C     C_R   0.013938 0.387587 0.686689 0.747849
C8    C     C_R   0.986393 0.611508 0.313012 0.730288
H9    H     H_    0.988161 0.605887 0.689852 0.117392
H10   H     H_    0.159352 0.418418 0.309407 0.123079
H11   H     H_    0.014434 0.394260 0.189836 0.117331
H12   H     H_    0.838476 0.580861 0.809509 0.123333
H13   H     H_    0.485599 0.894246 0.810165 0.117334
H14   H     H_    0.661463 0.080880 0.190491 0.123329
H15   H     H_    0.511702 0.105898 0.310149 0.117392
H16   H     H_    0.340500 0.918469 0.690586 0.123093
H17   H     H_    0.216072 0.292701 0.373144 0.132133
H18   H     H_    0.936871 0.729750 0.624977 0.129601
H19   H     H_    0.780592 0.706333 0.873264 0.132073
H20   H     H_    0.066912 0.270629 0.124935 0.129522
H21   H     H_    0.719351 0.206350 0.126734 0.132085
H22   H     H_    0.433143 0.770618 0.875067 0.129513
H23   H     H_    0.283763 0.792745 0.626854 0.132129
H24   H     H_    0.562965 0.229763 0.375023 0.129601
O17   O     O_3   0.480630 0.680630 0.250000 -0.385289
O18   O     O_3   0.519370 0.319370 0.750000 -0.385198
O19   O     O_3   0.980630 0.819370 0.250000 -0.385198
O20   O     O_3   0.019370 0.180630 0.750000 -0.385288
V1    V     V_3+5 0.205800 0.762860 0.250000 1.503540
V2    V     V_3+5 0.794200 0.237140 0.750000 1.503735
V3    V     V_3+5 0.705800 0.737140 0.250000 1.503742
V4    V     V_3+5 0.294200 0.262860 0.750000 1.503548
H25   H     H_    0.164316 0.307492 0.532825 0.175843
H26   H     H_    0.926507 0.702317 0.464579 0.167939
H27   H     H_    0.833510 0.691816 0.032893 0.175875
H28   H     H_    0.076322 0.298106 0.964540 0.167834
H29   H     H_    0.666499 0.191819 0.967104 0.175889
H30   H     H_    0.423790 0.798098 0.035459 0.167855
H31   H     H_    0.335657 0.807485 0.467174 0.175821
H32   H     H_    0.573591 0.202313 0.535421 0.167907
C9    C     C_R   0.001340 0.531672 0.350444 -0.043645
C10   C     C_R   0.004192 0.462300 0.647372 -0.041583
C11   C     C_R   0.998382 0.468349 0.850436 -0.043951
C12   C     C_R   0.996116 0.537762 0.147363 -0.041695
C13   C     C_R   0.501623 0.968345 0.149562 -0.043939
C14   C     C_R   0.503878 0.037759 0.852636 -0.041722
C15   C     C_R   0.498656 0.031677 0.649554 -0.043683
C16   C     C_R   0.495806 0.962296 0.352629 -0.041593
C17   C     C_R   0.139902 0.366907 0.379771 -0.167389
C18   C     C_R   0.957660 0.644019 0.618094 -0.171746
C19   C     C_R   0.857905 0.632512 0.879844 -0.167325
C20   C     C_R   0.044960 0.356264 0.118062 -0.171660
C21   C     C_R   0.642060 0.132522 0.120155 -0.167324
C22   C     C_R   0.455077 0.856256 0.881939 -0.171660
C23   C     C_R   0.360002 0.866930 0.620226 -0.167391
C24   C     C_R   0.542239 0.144026 0.381907 -0.171747
C25   C     C_R   0.105744 0.437571 0.343359 -0.249330
C26   C     C_R   0.986765 0.573812 0.655048 -0.268601
C27   C     C_R   0.892707 0.561990 0.843420 -0.248831
C28   C     C_R   0.015129 0.426335 0.155029 -0.268518
C29   C     C_R   0.607259 0.062000 0.156579 -0.248866
C30   C     C_R   0.484893 0.926327 0.844971 -0.268509
C31   C     C_R   0.394168 0.937599 0.656636 -0.249284
C32   C     C_R   0.513149 0.073817 0.344954 -0.268593
C33   C     C_R   0.929672 0.554757 0.394377 0.273609
C34   C     C_R   0.994957 0.420433 0.602340 0.280029
C35   C     C_R   0.070798 0.445615 0.894318 0.273562
C36   C     C_R   0.004607 0.579691 0.102329 0.280099
C37   C     C_R   0.429237 0.945598 0.105679 0.273572
C38   C     C_R   0.495389 0.079692 0.897670 0.280088
C39   C     C_R   0.570393 0.054742 0.605623 0.273635
C40   C     C_R   0.505077 0.920422 0.397662 0.280056
C41   C     C_R   0.993459 0.494446 0.433353 -0.024676
C42   C     C_R   0.990514 0.492738 0.563801 -0.020322
C43   C     C_R   0.006520 0.505673 0.933334 -0.024813
C44   C     C_R   0.009927 0.507407 0.063786 -0.020286
C45   C     C_R   0.493508 0.005667 0.066664 -0.024800
C46   C     C_R   0.490093 0.007407 0.936212 -0.020281
C47   C     C_R   0.506584 0.994434 0.566647 -0.024700
C48   C     C_R   0.509498 0.992731 0.436200 -0.020335
C49   C     C_R   0.088561 0.395578 0.424766 0.110891
C50   C     C_R   0.958257 0.604543 0.572696 0.110790
C51   C     C_R   0.909989 0.604096 0.924802 0.110870
C52   C     C_R   0.043670 0.395744 0.072666 0.110853
C53   C     C_R   0.590009 0.104099 0.075196 0.110854
C54   C     C_R   0.456368 0.895741 0.927334 0.110864
C55   C     C_R   0.411414 0.895578 0.575233 0.110907
C56   C     C_R   0.541708 0.104544 0.427305 0.110792
C57   C     C_R   0.975307 0.530861 0.480077 0.066878
C58   C     C_R   0.018510 0.458647 0.517100 0.056385
C59   C     C_R   0.025382 0.469350 0.980053 0.066933
C60   C     C_R   0.981350 0.541369 0.017096 0.056287
C61   C     C_R   0.474664 0.969346 0.019946 0.066945
C62   C     C_R   0.518675 0.041368 0.982902 0.056289
C63   C     C_R   0.524746 0.030851 0.519923 0.066858
C64   C     C_R   0.481512 0.958635 0.482902 0.056368
C65   C     C_R   0.106739 0.359386 0.506474 -0.205811
C66   C     C_R   0.937232 0.640549 0.490853 -0.205881
C67   C     C_R   0.891711 0.640206 0.006514 -0.205674
C68   C     C_R   0.064908 0.359832 0.990814 -0.205784
C69   C     C_R   0.608302 0.140209 0.993483 -0.205666
C70   C     C_R   0.435169 0.859827 0.009185 -0.205804
C71   C     C_R   0.393248 0.859375 0.493527 -0.205780
C72   C     C_R   0.562827 0.140545 0.509147 -0.205843
C73   C     C_R   0.140219 0.328588 0.461241 -0.187658
C74   C     C_R   0.930393 0.676580 0.536221 -0.200338
C75   C     C_R   0.857562 0.670833 0.961302 -0.187560
C76   C     C_R   0.072339 0.323831 0.036180 -0.200463
C77   C     C_R   0.642441 0.170839 0.038696 -0.187564
C78   C     C_R   0.427726 0.823829 0.963820 -0.200484
C79   C     C_R   0.359738 0.828583 0.538759 -0.187653
C80   C     C_R   0.569592 0.176582 0.463779 -0.200311
O21   O     O_3   0.971691 0.309824 0.597804 -0.641980
H33   H     H_    0.887466 0.297744 0.571334 0.301751
O22   O     O_3   0.791913 0.631578 0.397359 -0.640815
H34   H     H_    0.706530 0.608405 0.422281 0.295423
O23   O     O_3   0.026382 0.690421 0.097795 -0.642081
H35   H     H_    0.110335 0.702948 0.071291 0.301619
O24   O     O_3   0.209495 0.369339 0.897211 -0.640758
H36   H     H_    0.294764 0.392799 0.922092 0.295335
O25   O     O_3   0.473616 0.190423 0.902206 -0.642068
H37   H     H_    0.389641 0.202948 0.928706 0.301619
O26   O     O_3   0.290585 0.869292 0.102784 -0.640773
H38   H     H_    0.205295 0.892733 0.077905 0.295336
O27   O     O_3   0.528377 0.809812 0.402199 -0.641967
H39   H     H_    0.612581 0.797735 0.428675 0.301753
O28   O     O_3   0.708203 0.131542 0.602643 -0.640805
H40   H     H_    0.793565 0.108383 0.577715 0.295421

loop_
_geom_bond_atom_site_label_1
_geom_bond_atom_site_label_2
_ccdc_geom_bond_type
C7    C10   S    
O14   V4    S    
C11   C27   A    
C60   C67   A    
C4    C13   S    
C44   C60   A    
H23   C23   S    
C19   C27   A    
C20   C28   A    
H17   C17   S    
C23   C31   A    
O4    C1    A    
C64   C71   A    
O9    C1    A    
C10   C34   A    
C9    C33   A    
H6    C78   S    
O8    C5    A    
H16   C31   S    
O5    V1    S    
C14   C38   A    
C71   C79   A    
C13   C37   A    
C72   C80   A    
C43   C59   A    
C42   C58   A    
O27   H39   S    
C15   C39   A    
H12   C27   S    
C45   C53   A    
O24   H36   S    
C68   C76   A    
C47   C55   A    
H5    C77   S    
H20   C20   S    
C58   C65   A    
C17   C49   A    
C57   C66   A    
O26   H38   S    
C39   C47   A    
C33   O22   S    
O1    C4    A    
O28   H40   S    
O2    C3    A    
C19   C51   A    
C62   C69   A    
C61   C70   A    
C6    C11   S    
C46   C62   A    
O5    C8    A    
C41   C49   A    
C63   C72   A    
H8    C80   S    
C38   O25   S    
O6    C7    A    
C21   C29   A    
C20   C52   A    
O7    C6    A    
H3    C75   S    
C2    C15   S    
H15   C32   S    
C56   C80   A    
C17   C25   A    
C16   C32   A    
O20   V2    S    
O25   H37   S    
C35   O24   S    
H27   C67   S    
O22   H34   S    
C44   C52   A    
H26   C66   S    
H14   C29   S    
H1    C73   S    
C12   C28   A    
H13   C30   S    
C51   C75   A    
C37   C45   A    
H22   C22   S    
C49   C73   A    
H32   C72   S    
O17   V3    S    
C53   C77   A    
O18   V4    S    
C33   C41   A    
O19   V1    S    
H4    C76   S    
C18   C50   A    
C5    C12   S    
O3    V4    S    
C9    C25   A    
O11   C3    A    
C63   C64   A    
C69   C77   A    
C24   C56   A    
C11   C35   A    
O10   C2    A    
H7    C79   S    
C22   C54   A    
C1    C16   S    
C21   C53   A    
C36   O23   S    
O11   V2    S    
C38   C46   A    
H18   C18   S    
C15   C31   A    
H30   C70   S    
H10   C25   S    
O12   C4    A    
O6    V2    S    
C40   C48   A    
O4    V3    S    
H2    C74   S    
C39   O28   S    
C41   C57   A    
C14   C30   A    
C34   O21   S    
C13   C29   A    
C36   C44   A    
H19   C19   S    
C48   C56   A    
C57   C58   A    
C18   C26   A    
O13   C5    A    
C50   C74   A    
C59   C68   A    
C67   C75   A    
O3    C2    A    
C47   C63   A    
O12   V1    S    
C65   C73   A    
O8    V1    S    
H21   C21   S    
H11   C28   S    
O15   C7    A    
C3    C14   S    
O16   C8    A    
C43   C51   A    
O21   H33   S    
C42   C50   A    
C23   C55   A    
C45   C61   A    
O15   V4    S    
H24   C24   S    
O1    V3    S    
O16   V3    S    
O14   C6    A    
C24   C32   A    
O2    V4    S    
O23   H35   S    
C55   C79   A    
C59   C60   A    
C46   C54   A    
C40   O27   S    
C12   C36   A    
C34   C42   A    
C37   O26   S    
O10   V2    S    
H9    C26   S    
O13   V3    S    
C52   C76   A    
C54   C78   A    
H25   C65   S    
C16   C40   A    
O9    V1    S    
C70   C78   A    
C22   C30   A    
H28   C68   S    
H29   C69   S    
O7    V2    S    
C35   C43   A    
C61   C62   A    
C66   C74   A    
H31   C71   S    
C10   C26   A    
C8    C9    S    
C48   C64   A    
