data_str_m12_o9_o13_f0_bcu.sym.152
_audit_creation_date              2012-12-11T17:43:20-0500
_audit_creation_method            fapswitch 2.2
_symmetry_space_group_name_H-M    P1
_symmetry_Int_Tables_number       1
_space_group_crystal_system       triclinic
_cell_length_a                    15.063653
_cell_length_b                    15.146067
_cell_length_c                    16.903028
_cell_angle_alpha                 108.77974
_cell_angle_beta                  106.110609
_cell_angle_gamma                 109.375373
_cell_volume                      3109.27384706

loop_
_atom_site_label
_atom_site_type_symbol
_atom_type_description
_atom_site_fract_x
_atom_site_fract_y
_atom_site_fract_z
_atom_type_partial_charge
C1    C     C_R   0.089334 0.275563 0.029928 -0.127071
C2    C     C_R   0.914426 0.707797 0.917637 -0.149346
C3    C     C_R   0.031337 0.465465 0.726534 0.086938
C4    C     C_R   0.970977 0.415251 0.253106 0.090163
C5    C     C_R   0.664226 0.218021 0.744135 0.070724
C6    C     C_R   0.238289 0.802300 0.273935 0.054314
C7    C     C_R   0.356453 0.558397 0.052926 0.067899
C8    C     C_R   0.711515 0.537961 0.031272 0.052254
C9    C     C_R   0.906051 0.890462 0.903756 -0.235989
C10   C     C_R   0.086422 0.063299 0.946128 -0.242204
C11   C     C_R   0.999702 0.885203 0.923208 0.057875
C12   C     C_R   0.995585 0.072917 0.940062 0.070195
C13   C     C_R   0.089486 0.969308 0.936735 0.024852
C14   C     C_R   0.902436 0.982593 0.913587 0.027175
C15   C     C_R   0.718981 0.928118 0.812264 -0.169837
C16   C     C_R   0.282905 0.038414 0.015934 -0.181160
C17   C     C_R   0.605351 0.971466 0.876366 -0.123078
C18   C     C_R   0.368081 0.942109 0.954274 -0.098569
C19   C     C_R   0.500120 0.701425 0.350435 -0.106401
C20   C     C_R   0.499711 0.395123 0.719683 -0.123663
C21   C     C_R   0.513684 0.684214 0.269439 -0.180700
C22   C     C_R   0.514125 0.421032 0.810870 -0.154593
C23   C     C_R   0.937706 0.449966 0.734967 -0.142783
C24   C     C_R   0.062836 0.476687 0.251533 -0.145238
C25   C     C_R   0.523975 0.595257 0.223098 0.057467
C26   C     C_R   0.546755 0.525096 0.873361 0.039098
C27   C     C_R   0.520673 0.522332 0.259821 0.237577
C28   C     C_R   0.564631 0.603962 0.843109 0.214017
C29   C     C_R   0.507782 0.541956 0.342128 -0.188648
C30   C     C_R   0.551990 0.576607 0.751553 -0.183361
C31   C     C_R   0.497298 0.630523 0.386747 -0.135645
C32   C     C_R   0.519693 0.472751 0.690306 -0.144251
C33   C     C_R   0.621549 0.575869 0.126607 -0.240473
C34   C     C_R   0.464222 0.552912 0.975635 -0.217688
C35   C     C_R   0.627914 0.556783 0.042241 0.058838
C36   C     C_R   0.455253 0.567955 0.057829 0.043160
C37   C     C_R   0.549341 0.547531 0.966370 0.021985
C38   C     C_R   0.533300 0.579095 0.134874 0.051151
C39   C     C_R   0.622097 0.924709 0.799762 -0.117976
C40   C     C_R   0.373323 0.028450 0.022315 -0.114531
C41   C     C_R   0.963744 0.371291 0.319879 0.039097
C42   C     C_R   0.042785 0.418381 0.640498 0.085602
C43   C     C_R   0.148379 0.433020 0.554088 0.175624
C44   C     C_R   0.865636 0.282477 0.388983 0.191422
C45   C     C_R   0.719528 0.215969 0.823332 -0.159439
C46   C     C_R   0.222469 0.796535 0.187221 -0.132731
C47   C     C_R   0.140946 0.443505 0.638052 -0.055981
C48   C     C_R   0.869133 0.297720 0.311752 -0.018674
C49   C     C_R   0.952819 0.354565 0.557283 -0.297370
C50   C     C_R   0.056071 0.408216 0.397458 -0.290955
C51   C     C_R   0.957352 0.339716 0.473000 0.043896
C52   C     C_R   0.054873 0.391866 0.473912 0.093393
C53   C     C_R   0.556134 0.144048 0.676304 0.135548
C54   C     C_R   0.279307 0.898202 0.359640 0.131769
C55   C     C_R   0.387808 0.086551 0.442690 -0.235819
C56   C     C_R   0.406585 0.973104 0.607573 -0.233457
C57   C     C_R   0.316895 0.996858 0.360346 -0.168968
C58   C     C_R   0.498786 0.054232 0.682662 -0.181645
C59   C     C_R   0.297392 0.892867 0.443541 -0.290036
C60   C     C_R   0.513241 0.157847 0.599147 -0.314399
C61   C     C_R   0.371904 0.981610 0.525864 0.196026
C62   C     C_R   0.422040 0.077271 0.523862 0.196077
C63   C     C_R   0.684474 0.018973 0.965815 -0.120499
C64   C     C_R   0.272626 0.866067 0.879136 -0.119269
C65   C     C_R   0.781395 0.021697 0.978833 -0.144036
C66   C     C_R   0.182001 0.875855 0.872271 -0.141869
C67   C     C_R   0.300722 0.594212 0.004117 -0.154714
C68   C     C_R   0.738377 0.464369 0.048484 -0.133027
C69   C     C_R   0.799964 0.978720 0.901777 0.094529
C70   C     C_R   0.186242 0.961648 0.941245 0.118070
C71   C     C_R   0.726510 0.310445 0.746581 -0.133352
C72   C     C_R   0.216523 0.701905 0.265271 -0.124395
C73   C     C_R   0.293193 0.495688 0.077869 -0.129479
C74   C     C_R   0.754458 0.565794 0.976258 -0.111597
C75   C     C_R   0.111230 0.538990 0.813599 -0.128176
C76   C     C_R   0.890698 0.396725 0.175438 -0.147850
C77   C     C_R   0.916816 0.195900 0.945464 -0.129900
C78   C     C_R   0.086228 0.795547 0.998807 -0.141492
C79   C     C_R   0.001748 0.177704 0.967362 0.050358
C80   C     C_R   0.001575 0.799479 0.944608 0.064621
H1    H     H_    0.169177 0.291043 0.062515 0.093566
H2    H     H_    0.837293 0.676644 0.864108 0.094553
H3    H     H_    0.731477 0.892567 0.752344 0.117696
H4    H     H_    0.287776 0.104434 0.070327 0.118092
H5    H     H_    0.486635 0.644007 0.449570 0.112503
H6    H     H_    0.509018 0.452192 0.619627 0.117297
H7    H     H_    0.491519 0.769804 0.384995 0.120792
H8    H     H_    0.471098 0.314383 0.671260 0.130375
H9    H     H_    0.515341 0.740116 0.242153 0.126266
H10   H     H_    0.497268 0.359546 0.832278 0.129332
H11   H     H_    0.504539 0.487788 0.371580 0.112567
H12   H     H_    0.566133 0.635777 0.727348 0.123170
H13   H     H_    0.684557 0.586551 0.184934 0.123766
H14   H     H_    0.400729 0.538188 0.915120 0.135184
H15   H     H_    0.129140 0.457267 0.401649 0.141755
H16   H     H_    0.878124 0.325446 0.558870 0.148585
H17   H     H_    0.859293 0.398567 0.681654 0.097825
H18   H     H_    0.141174 0.494295 0.292779 0.090260
H19   H     H_    0.560133 0.886213 0.730642 0.107147
H20   H     H_    0.447336 0.087152 0.080530 0.108973
H21   H     H_    0.554537 0.226926 0.592961 0.118782
H22   H     H_    0.263977 0.818262 0.444563 0.118803
H23   H     H_    0.527568 0.043408 0.742935 0.120439
H24   H     H_    0.299751 0.004702 0.297275 0.116990
H25   H     H_    0.423370 0.160675 0.441146 0.126301
H26   H     H_    0.367459 0.900972 0.610901 0.123541
H27   H     H_    0.530517 0.969587 0.866325 0.104691
H28   H     H_    0.437945 0.933980 0.960090 0.096302
H29   H     H_    0.670264 0.053134 0.024864 0.102389
H30   H     H_    0.268753 0.799184 0.826539 0.108604
H31   H     H_    0.842409 0.058946 0.048328 0.115034
H32   H     H_    0.108378 0.815913 0.814082 0.114350
H33   H     H_    0.688991 0.164293 0.851243 0.109145
H34   H     H_    0.232104 0.859246 0.168199 0.095004
H35   H     H_    0.330638 0.653342 0.982577 0.096953
H36   H     H_    0.714136 0.423791 0.086764 0.098828
H37   H     H_    0.703476 0.346803 0.704736 0.091924
H38   H     H_    0.220570 0.676677 0.318441 0.095213
H39   H     H_    0.314160 0.462001 0.122950 0.117362
H40   H     H_    0.749821 0.621611 0.950780 0.098932
H41   H     H_    0.193887 0.574003 0.834894 0.108768
H42   H     H_    0.809231 0.344201 0.145789 0.086525
H43   H     H_    0.838736 0.142653 0.893741 0.131381
H44   H     H_    0.167570 0.848742 0.025232 0.116204
H45   H     H_    0.835545 0.825773 0.890179 0.118262
H46   H     H_    0.155768 0.129773 0.959950 0.132999
N1    N     N_R   0.055660 0.348550 0.045620 -0.040156
N2    N     N_R   0.944340 0.651450 0.954380 -0.038636
N3    N     N_R   0.960830 0.507850 0.823700 -0.040898
N4    N     N_R   0.039170 0.492150 0.176300 -0.039751
N5    N     N_R   0.811290 0.303410 0.871650 -0.040153
N6    N     N_R   0.188710 0.696590 0.128350 -0.040267
N7    N     N_R   0.205200 0.552990 0.997670 -0.037754
N8    N     N_R   0.794800 0.447010 0.002330 -0.041414
N9    N     N_R   0.814800 0.361830 0.823700 -0.038047
N10   N     N_R   0.185200 0.638170 0.176300 -0.039242
N11   N     N_R   0.201680 0.494570 0.045620 -0.039566
N12   N     N_R   0.798320 0.505430 0.954380 -0.040164
N13   N     N_R   0.068420 0.560530 0.871650 -0.043124
N14   N     N_R   0.931580 0.439470 0.128350 -0.038402
N15   N     N_R   0.948070 0.295860 0.997670 -0.043036
N16   N     N_R   0.051930 0.704140 0.002330 -0.040235
Ni1   Ni    Ni4+2 0.119340 0.493420 0.109960 0.216711
Ni2   Ni    Ni4+2 0.880660 0.506580 0.890040 0.215363
Ni3   Ni    Ni4+2 0.872590 0.372590 0.000000 0.211134
Ni4   Ni    Ni4+2 0.127410 0.627410 0.000000 0.215290
C81   C     C_3   0.528487 0.422904 0.213305 -0.389399
C82   C     C_3   0.430737 0.340846 0.124218 -0.925795
H47   H     H_    0.361210 0.319685 0.138877 0.247892
H48   H     H_    0.418794 0.369895 0.071740 0.268515
H49   H     H_    0.439372 0.268974 0.094699 0.254056
H50   H     H_    0.598011 0.441001 0.198906 0.184736
H51   H     H_    0.539372 0.386332 0.260328 0.184367
C83   C     C_3   0.597394 0.717024 0.906471 -0.376675
C84   C     C_3   0.505672 0.741644 0.885452 -0.893922
H52   H     H_    0.479340 0.736469 0.815149 0.253170
H53   H     H_    0.439477 0.686335 0.889747 0.241476
H54   H     H_    0.529777 0.822204 0.937187 0.254907
H55   H     H_    0.629691 0.734507 0.980388 0.194231
H56   H     H_    0.660733 0.770546 0.897624 0.195696
N17   N     N_3   0.776681 0.234542 0.226337 -0.222790
H57   H     H_    0.795492 0.205654 0.171723 0.097493
H58   H     H_    0.736811 0.277843 0.217214 0.099834
N18   N     N_3   0.230890 0.476587 0.719621 -0.226003
H59   H     H_    0.263443 0.425572 0.705187 0.136315
H60   H     H_    0.285283 0.553049 0.739552 0.090126
C85   C     C_3   0.254215 0.465882 0.550492 -0.391163
C86   C     C_3   0.261267 0.371275 0.489665 -0.888236
H61   H     H_    0.252508 0.314102 0.518421 0.262456
H62   H     H_    0.200154 0.331410 0.417615 0.262014
H63   H     H_    0.338500 0.397892 0.487916 0.239059
H64   H     H_    0.269666 0.526402 0.525728 0.172430
H65   H     H_    0.320328 0.504124 0.619394 0.198178
C87   C     C_3   0.763566 0.205306 0.380296 -0.343008
C88   C     C_3   0.692079 0.255419 0.391656 -0.928593
H66   H     H_    0.731212 0.326292 0.459730 0.253519
H67   H     H_    0.669852 0.278368 0.335970 0.258097
H68   H     H_    0.619970 0.198013 0.387553 0.252411
H69   H     H_    0.722279 0.134333 0.311978 0.193118
H70   H     H_    0.777719 0.174651 0.431507 0.181023

loop_
_geom_bond_atom_site_label_1
_geom_bond_atom_site_label_2
_ccdc_geom_bond_type
C30   C32   A    
C63   C65   A    
N13   Ni4   S    
N7    N11   A    
C73   H39   S    
C84   H53   S    
C34   C37   A    
C7    C36   S    
N16   Ni4   S    
C3    C23   A    
C81   C82   S    
C82   H49   S    
N4    N14   A    
N17   H57   S    
N18   H60   S    
C88   H67   S    
N3    Ni2   S    
C21   H9    S    
C6    C72   A    
C74   N12   A    
C55   H25   S    
C24   H18   S    
C5    C53   S    
N18   H59   S    
C67   N7    A    
C44   C87   S    
N10   Ni1   S    
C19   H7    S    
C17   H27   S    
C71   N9    A    
C4    C24   A    
C78   C80   A    
C50   H15   S    
C72   N10   A    
C27   C29   A    
C13   C70   S    
C1    H1    S    
C55   C62   A    
C16   H4    S    
C3    C42   S    
C23   N3    A    
C60   C62   A    
N1    N15   A    
C31   H5    S    
N8    Ni3   S    
C67   H35   S    
C87   C88   S    
C65   H31   S    
C18   C40   A    
C64   H30   S    
C86   H63   S    
C49   C51   A    
C50   C52   A    
C3    C75   A    
C16   C40   A    
N15   Ni3   S    
C85   H65   S    
C86   H62   S    
N8    N12   A    
N11   Ni1   S    
C19   C31   A    
C4    C41   S    
C84   H54   S    
C28   C83   S    
C6    C54   S    
C81   H51   S    
N17   H58   S    
C53   C60   A    
C88   H68   S    
C18   H28   S    
C54   C59   A    
C76   N14   A    
C15   C69   A    
C59   C61   A    
C71   H37   S    
C51   C52   A    
C1    N1    A    
C16   C70   A    
C82   H47   S    
C30   H12   S    
C85   C86   S    
C46   H34   S    
C15   H3    S    
C48   N17   S    
C5    C45   A    
C10   C13   A    
C9    H45   S    
C8    C35   S    
C64   C66   A    
C56   H26   S    
C63   H29   S    
C9    C14   A    
C83   H56   S    
C77   H43   S    
C24   N4    A    
C25   C38   S    
C9    C11   A    
C39   H19   S    
C88   H66   S    
N3    N13   A    
N6    N10   A    
C32   H6    S    
C7    C73   A    
C8    C74   A    
C22   H10   S    
C77   C79   A    
C5    C71   A    
N1    Ni1   S    
N4    Ni1   S    
N2    Ni2   S    
C15   C39   A    
C83   C84   S    
C10   C12   A    
C68   H36   S    
C47   N18   S    
C44   C51   A    
N9    Ni2   S    
C23   H17   S    
C12   C14   A    
C8    C68   A    
C55   C57   A    
C1    C79   A    
C14   C69   S    
C2    H2    S    
C20   C22   A    
C60   H21   S    
C87   H70   S    
C41   C50   A    
C29   H11   S    
C78   H44   S    
C20   C32   A    
C57   H24   S    
C21   C25   A    
C86   H61   S    
C6    C46   A    
C35   C37   A    
C75   H41   S    
C59   H22   S    
C26   C28   A    
C34   H14   S    
C82   H48   S    
C43   C47   A    
C78   N16   A    
C33   H13   S    
N14   Ni3   S    
C40   H20   S    
C53   C58   A    
C26   C37   S    
C45   N5    A    
C85   H64   S    
C58   H23   S    
C43   C85   S    
C25   C27   A    
C74   H40   S    
N5    N9    A    
C33   C38   A    
N6    Ni4   S    
C68   N8    A    
C81   H50   S    
C76   H42   S    
C83   H55   S    
C29   C31   A    
N12   Ni2   S    
C17   C63   A    
C36   C38   A    
C46   N6    A    
C11   C13   A    
C18   C64   A    
C66   C70   A    
C73   N11   A    
C65   C69   A    
C20   H8    S    
C28   C30   A    
C33   C35   A    
C41   C48   A    
C56   C58   A    
N5    Ni3   S    
C34   C36   A    
C42   C47   A    
C49   H16   S    
C61   C62   A    
C43   C52   A    
C77   N15   A    
C4    C76   A    
C2    C80   A    
C11   C80   S    
C42   C49   A    
C7    C67   A    
C17   C39   A    
C45   H33   S    
C27   C81   S    
C22   C26   A    
C72   H38   S    
C84   H52   S    
C56   C61   A    
C75   N13   A    
N7    Ni4   S    
C66   H32   S    
C10   H46   S    
N2    N16   A    
C87   H69   S    
C44   C48   A    
C12   C79   S    
C19   C21   A    
C54   C57   A    
C2    N2    A    
