data_str_m3_o10_o16_f0_pcu.sym.50
_audit_creation_date              2012-12-10T16:51:32-0500
_audit_creation_method            fapswitch 2.2
_symmetry_space_group_name_H-M    P1
_symmetry_Int_Tables_number       1
_space_group_crystal_system       triclinic
_cell_length_a                    7.823057
_cell_length_b                    8.573656
_cell_length_c                    12.55506
_cell_angle_alpha                 92.505763
_cell_angle_beta                  102.442048
_cell_angle_gamma                 93.945206
_cell_volume                      818.887119526

loop_
_atom_site_label
_atom_site_type_symbol
_atom_type_description
_atom_site_fract_x
_atom_site_fract_y
_atom_site_fract_z
_atom_type_partial_charge
Br1   Br    Br    0.330075 0.603322 0.205552 -0.563183
C1    C     C_R   0.044318 0.794563 0.497139 0.956497
C2    C     C_R   0.189096 0.583066 0.822775 -0.119654
C3    C     C_2   0.067411 0.958150 0.495483 -0.365681
C4    C     C_R   0.114441 0.529741 0.707706 0.868274
C5    C     C_2   0.932519 0.041825 0.504351 -0.378120
C6    C     C_R   0.955657 0.205439 0.502799 0.968499
C7    C     C_R   0.890768 0.488156 0.292083 0.896236
C8    C     C_R   0.839628 0.376413 0.996743 -0.195955
C9    C     C_R   0.829602 0.477127 0.176136 -0.058362
C10   C     C_R   0.079301 0.639640 0.887026 -0.273677
C11   C     C_R   0.138052 0.661333 0.999341 -0.141108
C12   C     C_R   0.425065 0.575458 0.985713 0.009379
C13   C     C_R   0.303591 0.618757 0.050511 0.238826
C14   C     C_R   0.369228 0.572442 0.870809 0.058837
C15   C     C_R   0.595854 0.526488 0.026916 0.090896
C16   C     C_R   0.688746 0.452544 0.955595 0.155690
C17   C     C_R   0.640683 0.472314 0.845216 -0.269514
C18   C     C_R   0.495588 0.552302 0.807342 -0.169825
C19   C     C_R   0.683236 0.555377 0.134234 -0.218750
C20   C     C_R   0.906484 0.383587 0.108539 -0.174205
H1    H     H_    0.020599 0.321919 0.141525 0.183186
H2    H     H_    0.484829 0.597966 0.728600 0.167426
H3    H     H_    0.194652 0.009175 0.487025 0.183994
H4    H     H_    0.805272 0.990786 0.512794 0.183249
H5    H     H_    0.471125 0.367124 0.425285 0.207976
H6    H     H_    0.528818 0.639317 0.568068 0.172549
H7    H     H_    0.722166 0.437464 0.790117 0.179720
H8    H     H_    0.907338 0.315555 0.942709 0.153223
H9    H     H_    0.645455 0.644564 0.185441 0.199864
H10   H     H_    0.945652 0.662534 0.850862 0.178291
H11   H     H_    0.047524 0.698926 0.047678 0.182632
N1    N     N_2   0.434800 0.456690 0.470850 -0.139716
N2    N     N_2   0.565200 0.543310 0.529150 -0.173381
O1    O     O_R   0.893060 0.738880 0.507150 -0.615927
O2    O     O_R   0.172250 0.711130 0.488470 -0.616386
O3    O     O_R   0.944700 0.520730 0.667600 -0.633548
O4    O     O_R   0.223890 0.492980 0.648920 -0.631710
O5    O     O_R   0.827750 0.288870 0.511530 -0.630220
O6    O     O_R   0.106940 0.261120 0.492850 -0.612803
O7    O     O_R   0.776110 0.507020 0.351080 -0.603838
O8    O     O_R   0.055300 0.479270 0.332400 -0.575932
Zn1   Zn    Zn3+2 0.813580 0.518530 0.512470 0.950078
Zn2   Zn    Zn3+2 0.186420 0.481470 0.487530 0.976174

loop_
_geom_bond_atom_site_label_1
_geom_bond_atom_site_label_2
_ccdc_geom_bond_type
C1    O1    A    
O3    Zn1   S    
C1    C3    S    
C10   C11   A    
O4    Zn2   S    
C5    C6    S    
C4    O3    A    
O1    Zn1   S    
H5    N1    S    
C18   H2    S    
C8    H8    S    
C6    O6    A    
N1    N2    D    
C11   C13   A    
C10   H10   S    
C9    C20   A    
C19   H9    S    
C12   C13   A    
C11   H11   S    
C14   C18   A    
O7    Zn1   S    
C8    C20   A    
O8    Zn2   S    
C8    C16   A    
C15   C19   A    
C4    O4    A    
C7    O8    A    
C16   C17   A    
C12   C14   A    
H6    N2    S    
C3    H3    S    
O2    Zn2   S    
C5    H4    S    
C2    C10   A    
O6    Zn2   S    
C17   H7    S    
C7    O7    A    
C3    C5    D    
C17   C18   A    
C12   C15   A    
C1    O2    A    
C6    O5    A    
C2    C14   A    
O5    Zn1   S    
Br1   C13   S    
C20   H1    S    
N1    Zn2   S    
C7    C9    S    
N2    Zn1   S    
C9    C19   A    
C15   C16   A    
C2    C4    S    
