data_str_m3_o1_o28_f0_pcu.sym.69
_audit_creation_date              2012-12-10T18:54:28-0500
_audit_creation_method            fapswitch 2.2
_symmetry_space_group_name_H-M    P1
_symmetry_Int_Tables_number       1
_space_group_crystal_system       triclinic
_cell_length_a                    10.686232
_cell_length_b                    9.842352
_cell_length_c                    23.386857
_cell_angle_alpha                 90.167658
_cell_angle_beta                  90.157951
_cell_angle_gamma                 89.566522
_cell_volume                      2459.6846965

loop_
_atom_site_label
_atom_site_type_symbol
_atom_type_description
_atom_site_fract_x
_atom_site_fract_y
_atom_site_fract_z
_atom_type_partial_charge
Br1   Br    Br    0.379044 0.288101 0.184062 -0.464445
Br2   Br    Br    0.605396 0.259360 0.813049 -0.493885
C1    C     C_R   0.259927 0.500320 0.500096 0.873636
C2    C     C_R   0.542336 0.394544 0.706723 0.383945
C3    C     C_R   0.465132 0.415110 0.232855 0.170027
C4    C     C_R   0.543811 0.407521 0.766586 0.172448
C5    C     C_R   0.527711 0.526643 0.208974 0.105947
C6    C     C_R   0.505853 0.531101 0.792279 0.110751
C7    C     C_R   0.064954 0.381900 0.515469 -0.187555
C8    C     C_R   0.934997 0.617890 0.483924 -0.194935
C9    C     C_R   0.936864 0.381351 0.515097 -0.182506
C10   C     C_R   0.063111 0.618458 0.484327 -0.192835
C11   C     C_R   0.872472 0.499419 0.499443 -0.005939
C12   C     C_R   0.740063 0.499669 0.499766 0.873112
C13   C     C_R   0.127499 0.500467 0.500103 -0.003631
C14   C     C_R   0.599710 0.070961 0.478980 -0.105219
C15   C     C_R   0.399664 0.929056 0.520364 -0.080369
C16   C     C_R   0.400000 0.072838 0.520715 -0.091558
C17   C     C_R   0.600024 0.927173 0.479310 -0.072845
C18   C     C_R   0.501575 0.499838 0.389314 0.970974
C19   C     C_R   0.499769 0.500219 0.610874 0.967160
C20   C     C_R   0.626622 0.541755 0.879720 0.634369
C21   C     C_R   0.423926 0.588811 0.121673 0.634646
C22   C     C_R   0.404774 0.570793 0.882995 0.593129
C23   C     C_R   0.587930 0.622059 0.243654 0.509824
C24   C     C_R   0.637446 0.514754 0.119472 0.600315
C25   C     C_R   0.408966 0.589290 0.942452 -0.121421
C26   C     C_R   0.641156 0.526270 0.059426 -0.099582
C27   C     C_R   0.524047 0.565664 0.970912 -0.075913
C28   C     C_R   0.529014 0.564084 0.030894 -0.082810
C29   C     C_R   0.633235 0.539509 0.939365 -0.053283
C30   C     C_R   0.420125 0.595989 0.062257 -0.065169
C31   C     C_R   0.302014 0.627297 0.974269 0.475332
C32   C     C_R   0.751514 0.497316 0.027653 0.511188
C33   C     C_R   0.308791 0.630310 0.033850 -0.269880
C34   C     C_R   0.461471 0.639628 0.759022 0.515589
C35   C     C_R   0.745300 0.506081 0.967383 -0.305261
C36   C     C_3   0.158293 0.792837 0.949850 0.095899
C37   C     C_3   0.029645 0.812678 0.977195 -0.363667
C38   C     C_3   0.994019 0.962550 0.980644 -0.918403
C39   C     C_3   0.972554 0.456670 0.028018 0.109293
C40   C     C_3   0.004498 0.317402 0.002400 -0.375527
C41   C     C_3   0.126560 0.320611 0.968729 -0.846141
C42   C     C_3   0.769790 0.747176 0.235023 0.138664
C43   C     C_3   0.789409 0.884549 0.264368 -0.390303
C44   C     C_3   0.926385 0.905158 0.280614 -0.908858
C45   C     C_R   0.578211 0.610356 0.302787 -0.427020
C46   C     C_3   0.333902 0.830655 0.769708 0.091545
C47   C     C_3   0.314656 0.953133 0.809121 -0.313842
C48   C     C_3   0.188238 0.021996 0.798799 -0.947615
C49   C     C_3   0.463514 0.176395 0.318310 0.133444
C50   C     C_3   0.383326 0.063484 0.343442 -0.307370
C51   C     C_3   0.449504 0.925989 0.340042 -0.924323
C52   C     C_3   0.542749 0.172982 0.675568 0.137210
C53   C     C_3   0.626107 0.066688 0.646491 -0.304558
C54   C     C_3   0.570131 0.925445 0.649820 -0.932688
C55   C     C_R   0.452357 0.622276 0.699928 -0.435259
C56   C     C_R   0.513975 0.501649 0.327280 -0.238830
C57   C     C_R   0.495887 0.503204 0.673506 -0.228838
C58   C     C_R   0.461529 0.399727 0.292459 0.385412
H1    H     H_    0.224908 0.655111 0.057686 0.188419
H2    H     H_    0.319707 0.875560 0.537045 0.124459
H3    H     H_    0.320328 0.127793 0.537693 0.120582
H4    H     H_    0.679826 0.872213 0.462451 0.120015
H5    H     H_    0.153091 0.830440 0.905250 0.184177
H6    H     H_    0.228438 0.856790 0.972895 0.124873
H7    H     H_    0.958004 0.758476 0.951414 0.242205
H8    H     H_    0.030625 0.770078 0.021132 0.216882
H9    H     H_    0.062635 0.016914 0.007880 0.267796
H10   H     H_    0.899710 0.973751 0.999975 0.278378
H11   H     H_    0.992343 0.008366 0.937284 0.273442
H12   H     H_    0.824987 0.479280 0.941323 0.197181
H13   H     H_    0.046002 0.481448 0.060003 0.190509
H14   H     H_    0.977183 0.539177 0.996054 0.138204
H15   H     H_    0.013881 0.242953 0.037777 0.247697
H16   H     H_    0.928009 0.282833 0.973747 0.235012
H17   H     H_    0.117970 0.391988 0.932235 0.312068
H18   H     H_    0.147955 0.217881 0.951487 0.250858
H19   H     H_    0.205076 0.352176 0.996867 0.272830
H20   H     H_    0.827130 0.743748 0.195467 0.191350
H21   H     H_    0.805773 0.663807 0.263081 0.136318
H22   H     H_    0.759146 0.967454 0.235133 0.251631
H23   H     H_    0.619768 0.687529 0.329719 0.193140
H24   H     H_    0.731574 0.890615 0.303647 0.209102
H25   H     H_    0.957717 0.825073 0.310940 0.260613
H26   H     H_    0.937399 0.005775 0.301558 0.267454
H27   H     H_    0.986264 0.901771 0.241874 0.284566
H28   H     H_    0.253535 0.760082 0.774434 0.187961
H29   H     H_    0.337461 0.869265 0.725181 0.117841
H30   H     H_    0.321074 0.920072 0.854387 0.227062
H31   H     H_    0.390230 0.027863 0.801577 0.247849
H32   H     H_    0.181863 0.059160 0.754072 0.265844
H33   H     H_    0.177623 0.109968 0.828285 0.279873
H34   H     H_    0.418227 0.704640 0.673740 0.189079
H35   H     H_    0.110952 0.949769 0.806900 0.273265
H36   H     H_    0.548066 0.189647 0.345669 0.129913
H37   H     H_    0.494408 0.145106 0.274790 0.170861
H38   H     H_    0.361942 0.087550 0.388856 0.228727
H39   H     H_    0.293522 0.057391 0.319483 0.248993
H40   H     H_    0.464887 0.896787 0.294675 0.294762
H41   H     H_    0.390916 0.847445 0.360634 0.284992
H42   H     H_    0.541052 0.930019 0.362392 0.245885
H43   H     H_    0.457182 0.189461 0.649169 0.125805
H44   H     H_    0.513361 0.134066 0.717902 0.167435
H45   H     H_    0.114661 0.290415 0.528155 0.144326
H46   H     H_    0.639705 0.095079 0.601045 0.225759
H47   H     H_    0.719485 0.064396 0.667591 0.249027
H48   H     H_    0.572305 0.889840 0.694785 0.296796
H49   H     H_    0.625909 0.853737 0.623246 0.287091
H50   H     H_    0.472049 0.926798 0.634189 0.245674
H51   H     H_    0.885254 0.709331 0.471205 0.145392
H52   H     H_    0.888596 0.289670 0.527579 0.154039
H53   H     H_    0.111400 0.710133 0.471863 0.152373
H54   H     H_    0.679330 0.124467 0.461974 0.127846
N1    N     N_R   0.512818 0.548230 0.853039 -0.320415
N2    N     N_R   0.529834 0.544272 0.148513 -0.322348
N3    N     N_R   0.500000 0.857200 0.500000 -0.071401
N4    N     N_R   0.500000 0.142800 0.500000 -0.081704
O1    O     O_R   0.316770 0.614620 0.500000 -0.635748
O2    O     O_2   0.322022 0.623369 0.152656 -0.536634
O3    O     O_2   0.293977 0.572515 0.855215 -0.535096
O4    O     O_2   0.739272 0.473165 0.149050 -0.510591
O5    O     O_3   0.188218 0.652459 0.947717 -0.618630
O6    O     O_3   0.857354 0.451106 0.057529 -0.591428
O7    O     O_3   0.642555 0.734615 0.218668 -0.637193
O8    O     O_3   0.447735 0.766250 0.784932 -0.629271
O9    O     O_3   0.391331 0.297267 0.316544 -0.598366
O10   O     O_3   0.612757 0.293312 0.680878 -0.598973
O11   O     O_R   0.683230 0.385380 0.500000 -0.634337
O12   O     O_R   0.683230 0.614620 0.500000 -0.634867
O13   O     O_R   0.316770 0.385380 0.500000 -0.631152
O14   O     O_R   0.499970 0.614690 0.416160 -0.625384
O15   O     O_R   0.500030 0.385310 0.583840 -0.604867
O16   O     O_R   0.500030 0.614690 0.583840 -0.622424
O17   O     O_R   0.499970 0.385310 0.416160 -0.599060
O18   O     O_2   0.732541 0.534656 0.848464 -0.519383
Zn1   Zn    Zn3+2 0.500000 0.653120 0.500000 0.933301
Zn2   Zn    Zn3+2 0.500000 0.346880 0.500000 0.950164

loop_
_geom_bond_atom_site_label_1
_geom_bond_atom_site_label_2
_ccdc_geom_bond_type
C49   H37   S    
O17   Zn2   S    
C53   C54   S    
C39   C40   S    
C38   H11   S    
C25   C27   A    
C32   C35   A    
C37   H8    S    
C54   H49   S    
C43   H22   S    
C22   C25   A    
C47   H30   S    
O16   Zn1   S    
C43   C44   S    
C25   C31   A    
C41   H18   S    
C40   H15   S    
C38   H10   S    
C1    O13   A    
C39   O6    S    
C52   H44   S    
C18   O14   A    
C44   H27   S    
C36   C37   S    
C48   H35   S    
C55   C57   A    
C56   C58   A    
C6    C34   A    
C19   O15   A    
C23   O7    S    
C54   H48   S    
C6    N1    S    
C21   N2    A    
O11   Zn2   S    
C36   H6    S    
C51   H41   S    
C46   H28   S    
C45   H23   S    
C16   N4    A    
C36   O5    S    
C15   N3    A    
C49   H36   S    
C44   H25   S    
C39   H14   S    
C26   C32   A    
O15   Zn2   S    
C11   C12   S    
Br2   C4    S    
C47   H31   S    
C8    C10   A    
C54   H50   S    
C24   C26   A    
C51   H40   S    
C34   O8    S    
C42   O7    S    
C20   C29   A    
C2    O10   S    
C53   H46   S    
C49   C50   S    
O1    Zn1   S    
C30   C33   A    
C52   H43   S    
C42   H20   S    
C2    C4    A    
C34   C55   A    
C38   H9    S    
C21   O2    S    
C3    C5    A    
C4    C6    A    
O14   Zn1   S    
C52   O10   S    
C29   C35   A    
C53   H47   S    
C5    N2    S    
C36   H5    S    
C27   C28   A    
C14   N4    A    
C15   H2    S    
C7    H45   S    
C10   C13   A    
C51   H42   S    
C15   C16   A    
C8    H51   S    
C33   H1    S    
C7    C9    A    
C1    O1    A    
C48   H32   S    
C46   C47   S    
C42   H21   S    
C46   H29   S    
Br1   C3    S    
C43   H24   S    
C40   C41   S    
C18   C56   S    
C19   O16   A    
C37   C38   S    
C1    C13   S    
C50   C51   S    
C10   H53   S    
C12   O12   A    
C23   C45   A    
C52   C53   S    
C20   N1    A    
C32   O6    S    
C3    C58   A    
C9    H52   S    
C37   H7    S    
C58   O9    S    
N3    Zn1   S    
C42   C43   S    
C8    C11   A    
C14   H54   S    
C48   H33   S    
C19   C57   S    
C41   H17   S    
C50   H39   S    
C40   H16   S    
C5    C23   A    
C55   H34   S    
C49   O9    S    
C21   C30   A    
C26   C28   A    
C7    C13   A    
C27   C29   A    
O13   Zn2   S    
C45   C56   A    
C28   C30   A    
C9    C11   A    
C14   C17   A    
C39   H13   S    
C2    C57   A    
C50   H38   S    
C22   O3    S    
C31   C33   A    
C17   H4    S    
C18   O17   A    
C16   H3    S    
C24   N2    A    
C46   O8    S    
C17   N3    A    
C22   N1    A    
C47   C48   S    
C35   H12   S    
C20   O18   S    
C31   O5    S    
C24   O4    S    
N4    Zn2   S    
O12   Zn1   S    
C41   H19   S    
C44   H26   S    
C12   O11   A    
