data_str_m9_o11_o16_f0_sra.sym.169
_audit_creation_date              2013-03-05T15:41:43-0500
_audit_creation_method            fapswitch 2.2
_symmetry_space_group_name_H-M    P1
_symmetry_Int_Tables_number       1
_space_group_crystal_system       triclinic
_cell_length_a                    6.944865
_cell_length_b                    13.631236
_cell_length_c                    20.385997
_cell_angle_alpha                 102.077333
_cell_angle_beta                  89.993318
_cell_angle_gamma                 90.633467
_cell_volume                      1887.04712693

loop_
_atom_site_label
_atom_site_type_symbol
_atom_site_description
_atom_site_fract_x
_atom_site_fract_y
_atom_site_fract_z
_atom_type_partial_charge
O1    O     O_R   0.506860 0.599390 0.449240 -0.561023
O2    O     O_R   0.180220 0.594600 0.586780 -0.553043
O3    O     O_R   0.004500 0.400610 0.550760 -0.551951
C1    C     C_R   0.349024 0.615696 0.613596 0.912324
O4    O     O_R   0.177490 0.611290 0.451970 -0.551000
O5    O     O_R   0.001750 0.417420 0.414990 -0.569846
C2    C     C_R   0.347073 0.638532 0.435629 0.906809
O6    O     O_R   0.509610 0.582580 0.585010 -0.554403
O7    O     O_3   0.337420 0.436370 0.488020 -0.288927
V1    V     V_3+5 0.064680 0.511800 0.502220 1.186135
O8    O     O_R   0.671710 0.405400 0.413220 -0.571608
C3    C     C_R   0.839757 0.384072 0.386530 0.826295
O9    O     O_R   0.674440 0.388710 0.548030 -0.564713
C4    C     C_R   0.842933 0.362059 0.564857 0.833155
V2    V     V_3+5 0.564010 0.488200 0.497780 1.169175
O10   O     O_3   0.841140 0.563630 0.511980 -0.264977
C5    C     C_R   0.916517 0.113736 0.612498 -0.014934
H1    H     H_    0.907417 0.164316 0.519696 0.066961
H2    H     H_    0.939258 0.988892 0.695912 0.092217
H3    H     H_    0.941333 0.036581 0.587511 0.118500
C6    C     C_R   0.853660 0.284676 0.604646 -0.096700
C7    C     C_R   0.849556 0.314874 0.928413 -0.166790
C8    C     C_R   0.869065 0.391953 0.893827 -0.079747
C9    C     C_R   0.898364 0.371401 0.824303 0.347670
C10   C     C_R   0.886532 0.270026 0.787160 -0.026162
C11   C     C_R   0.883564 0.191583 0.823951 -0.019188
C12   C     C_R   0.880761 0.242869 0.715345 0.059893
C13   C     C_R   0.907477 0.141012 0.682782 0.053067
C14   C     C_R   0.920993 0.066858 0.720393 -0.073609
C15   C     C_R   0.902808 0.091152 0.789650 -0.077636
C16   C     C_R   0.839800 0.312094 0.674522 -0.044400
C17   C     C_R   0.894732 0.185808 0.573763 -0.086704
C18   C     C_R   0.864504 0.215190 0.894646 -0.083272
H4    H     H_    0.794387 0.387507 0.695632 0.114308
H5    H     H_    0.834357 0.333287 0.982504 0.072824
H6    H     H_    0.906220 0.030212 0.816206 0.064837
C19   C     C_2   0.005371 0.288911 0.285013 -0.095534
C20   C     C_2   0.842153 0.315677 0.319755 -0.208863
H7    H     H_    0.142535 0.317631 0.306982 0.096316
H8    H     H_    0.703494 0.287454 0.299465 0.068029
C21   C     C_2   0.013777 0.220828 0.217389 -0.095837
C22   C     C_2   0.858620 0.183279 0.180366 -0.211110
H9    H     H_    0.714447 0.201539 0.198783 0.068401
C23   C     C_2   0.204201 0.789793 0.782619 -0.064337
C24   C     C_2   0.363487 0.815379 0.820038 -0.195458
H10   H     H_    0.066323 0.819556 0.802077 0.099184
H11   H     H_    0.502141 0.785841 0.801918 0.086615
C25   C     C_2   0.202636 0.721153 0.715160 -0.019394
C26   C     C_2   0.360937 0.683840 0.680391 -0.143517
H12   H     H_    0.061348 0.701520 0.693169 0.110777
H13   H     H_    0.504075 0.702967 0.700342 0.067792
C27   C     C_R   0.429201 0.888511 0.387217 -0.118140
H14   H     H_    0.467519 0.010762 0.302711 0.069502
H15   H     H_    0.462454 0.965909 0.410375 0.112616
C28   C     C_R   0.359572 0.717887 0.397114 -0.156198
C29   C     C_R   0.311974 0.686722 0.072842 -0.092443
C30   C     C_R   0.290519 0.611926 0.109314 -0.060967
C31   C     C_R   0.308058 0.634473 0.178967 -0.078240
C32   C     C_R   0.348697 0.733661 0.214270 0.062379
C33   C     C_R   0.373448 0.809762 0.176315 0.010043
C34   C     C_R   0.365137 0.759967 0.285799 0.053453
C35   C     C_R   0.409527 0.860726 0.317288 0.012615
C36   C     C_R   0.434097 0.933631 0.278931 -0.085333
C37   C     C_R   0.415626 0.908865 0.209677 -0.094246
C38   C     C_R   0.339564 0.689824 0.327311 -0.176832
C39   C     C_R   0.404675 0.818205 0.427857 0.324466
C40   C     C_R   0.353698 0.785291 0.105545 -0.092272
H16   H     H_    0.306393 0.611978 0.307048 0.060221
H17   H     H_    0.295355 0.667764 0.018787 0.075853
H18   H     H_    0.288986 0.572324 0.203438 0.059066
H19   H     H_    0.258757 0.535699 0.083405 0.074609
H20   H     H_    0.435364 0.968441 0.182461 0.068868
O11   O     O_R   0.203230 0.917310 0.915020 -0.559295
O12   O     O_R   0.535500 0.888690 0.048040 -0.561103
O13   O     O_R   0.711080 0.082610 0.085000 -0.565437
C41   C     C_R   0.366068 0.862239 0.065038 0.820172
O14   O     O_R   0.532630 0.905370 0.913230 -0.561658
O15   O     O_R   0.708190 0.099410 0.949230 -0.560403
C42   C     C_R   0.364312 0.884107 0.886552 0.844090
O16   O     O_R   0.206120 0.900510 0.050790 -0.558449
O17   O     O_3   0.375360 0.063570 0.011990 -0.278514
V3    V     V_3+5 0.648170 0.988200 0.997780 1.145749
O18   O     O_R   0.038240 0.111390 0.951940 -0.564047
C43   C     C_R   0.870090 0.137535 0.934744 0.827340
O19   O     O_R   0.041120 0.094710 0.086750 -0.565148
C44   C     C_R   0.872533 0.115711 0.113530 0.835393
V4    V     V_3+5 0.148810 0.011930 0.002180 1.141069
O20   O     O_3   0.871750 0.936430 0.988010 -0.269904
H21   H     H_    0.156658 0.201779 0.197378 0.095204
N1    N     N_R   0.426053 0.850051 0.499553 0.078575
O21   O     O_R   0.329291 0.806230 0.540189 -0.398750
O22   O     O_R   0.528657 0.929498 0.524769 -0.377824
N2    N     N_R   0.968288 0.452218 0.795174 0.062879
O23   O     O_R   0.123052 0.440433 0.758455 -0.381003
O24   O     O_R   0.898721 0.541891 0.814467 -0.382020
H22   H     H_    0.874072 0.468562 0.922225 0.117461

loop_
_geom_bond_atom_site_label_1
_geom_bond_atom_site_label_2
_geom_bond_distance
_ccdc_geom_bond_type
O18   V4    2.020145 S    
V4    O20   2.162610 S    
N2    O23   1.301793 A    
C21   C22   1.348730 D    
C21   H21   1.086163 S    
C2    C28   1.465387 S    
C1    O6    1.299251 A    
O17   V3    2.155791 S    
C30   C31   1.393609 A    
C39   N1    1.442157 S    
O19   C44   1.301019 A    
C29   C30   1.388652 A    
C7    H5    1.083892 S    
C6    C16   1.398606 A    
C14   C15   1.387160 A    
O12   C41   1.295175 A    
C4    C6    1.461483 S    
C13   C14   1.394579 A    
C19   C20   1.349238 D    
O16   V4    2.022480 S    
O5    C3    1.298994 A    
V2    O10   2.162643 S    
C5    H3    1.084014 S    
C8    H22   1.083090 S    
C24   H11   1.082616 S    
O11   V4    2.003791 S    
O13   C44   1.295476 A    
O8    V2    2.002287 S    
C33   C40   1.417450 A    
C23   H10   1.086273 S    
C26   H13   1.082388 S    
C8    C9    1.401326 A    
C22   C44   1.480169 S    
O7    V1    2.155729 S    
C25   H12   1.086044 S    
C32   C33   1.426976 A    
N2    O24   1.301580 A    
O9    C4    1.296369 A    
C19   C21   1.493651 S    
O12   V3    2.014931 S    
C28   C38   1.400595 A    
C27   H15   1.084214 S    
O14   C42   1.293412 A    
C6    C17   1.395500 A    
C32   C34   1.431173 A    
O19   V4    2.002305 S    
C12   C16   1.413704 A    
C9    C10   1.431539 A    
O4    C2    1.295353 A    
C31   H18   1.076312 S    
C31   C32   1.417766 A    
O2    C1    1.297228 A    
C35   C36   1.396263 A    
O15   C43   1.293334 A    
O15   V3    2.016224 S    
C11   C18   1.415959 A    
N1    O22   1.301877 A    
O18   C43   1.294290 A    
C38   H16   1.077458 S    
O11   C42   1.301628 A    
C16   H4    1.078609 S    
C24   C42   1.478059 S    
C30   H19   1.082865 S    
O17   V4    1.711031 S    
O3    C4    1.291446 A    
O1    V2    2.018646 S    
C25   C26   1.353162 D    
C11   C15   1.408690 A    
O6    V2    2.003333 S    
O9    V2    2.020220 S    
H1    C17   1.083454 S    
C22   H9    1.082481 S    
O2    V1    2.013824 S    
C28   C39   1.411667 A    
C27   C39   1.400888 A    
C23   C24   1.344464 D    
C7    C18   1.393806 A    
O1    C2    1.291599 A    
C5    C13   1.404526 A    
C41   O16   1.291022 A    
O5    V1    2.009671 S    
O8    C3    1.297600 A    
O13   V3    2.009674 S    
C10   C12   1.433505 A    
C29   C40   1.396537 A    
C15   H6    1.082745 S    
C1    C26   1.480837 S    
C33   C37   1.407177 A    
C10   C11   1.428777 A    
O4    V1    2.014960 S    
C19   H7    1.086152 S    
O3    V1    2.016081 S    
V1    O10   1.707106 S    
C9    N2    1.436622 S    
C20   H8    1.082457 S    
H14   C36   1.084268 S    
N1    O21   1.301045 A    
O14   V3    2.013827 S    
V3    O20   1.707040 S    
C37   H20   1.082674 S    
C3    C20   1.480483 S    
C34   C35   1.419600 A    
C18   C43   1.467384 S    
C36   C37   1.386824 A    
C34   C38   1.413057 A    
C29   H17   1.083814 S    
C12   C13   1.422255 A    
C5    C17   1.392686 A    
C7    C8    1.387893 A    
C27   C35   1.402616 A    
C40   C41   1.466251 S    
C23   C25   1.492690 S    
O7    V2    1.712233 S    
H2    C14   1.084277 S    
