data_str_m2_o40_o41_f0_fof.sym.38
_audit_creation_date              2012-10-26T17:12:46-0400
_audit_creation_method            fapswitch 2.2
_symmetry_space_group_name_H-M    P1
_symmetry_Int_Tables_number       1
_space_group_crystal_system       triclinic
_cell_length_a                    27.997486
_cell_length_b                    18.782037
_cell_length_c                    16.764124
_cell_angle_alpha                 89.978063
_cell_angle_beta                  62.717681
_cell_angle_gamma                 89.977086
_cell_volume                      7834.77311552

loop_
_atom_site_label
_atom_site_type_symbol
_atom_type_description
_atom_site_fract_x
_atom_site_fract_y
_atom_site_fract_z
_atom_type_partial_charge
C1    C     C_R   0.295943 0.730991 0.328413 0.541499
C2    C     C_R   0.586836 0.999682 0.547795 0.025418
C3    C     C_R   0.700335 0.700602 0.897545 0.033189
C4    C     C_R   0.109854 0.816789 0.050512 -0.108660
C5    C     C_R   0.889615 0.182466 0.949721 -0.108994
C6    C     C_R   0.889047 0.818350 0.949945 -0.108077
C7    C     C_R   0.111282 0.181198 0.049932 -0.108684
C8    C     C_R   0.660020 0.398605 0.996439 -0.114892
C9    C     C_R   0.339872 0.601079 0.003563 -0.116232
C10   C     C_R   0.340331 0.397809 0.003001 -0.116527
C11   C     C_R   0.659795 0.601853 0.996850 -0.115693
C12   C     C_R   0.138201 0.799194 0.097472 -0.121699
C13   C     C_R   0.913184 0.499673 0.452253 0.024080
C14   C     C_R   0.861028 0.199612 0.903043 -0.121631
C15   C     C_R   0.860251 0.801584 0.903528 -0.120934
C16   C     C_R   0.140197 0.197698 0.096229 -0.121515
C17   C     C_R   0.692293 0.387195 0.037405 -0.126461
C18   C     C_R   0.307518 0.612353 0.962699 -0.127240
C19   C     C_R   0.308377 0.385845 0.961615 -0.127284
C20   C     C_R   0.691946 0.613493 0.037962 -0.127013
C21   C     C_R   0.236081 0.687601 0.794947 -0.118390
C22   C     C_R   0.763831 0.312232 0.205081 -0.118348
C23   C     C_R   0.763585 0.688184 0.205274 -0.118872
C24   C     C_R   0.100996 0.500264 0.499452 0.023795
C25   C     C_R   0.236947 0.311130 0.794444 -0.123556
C26   C     C_R   0.745041 0.203747 0.794653 -0.112538
C27   C     C_R   0.254263 0.795440 0.205901 -0.118566
C28   C     C_R   0.255898 0.202662 0.204815 -0.112126
C29   C     C_R   0.744434 0.796894 0.795043 -0.111926
C30   C     C_R   0.265192 0.668126 0.840015 -0.027411
C31   C     C_R   0.734627 0.331590 0.160129 -0.027348
C32   C     C_R   0.734188 0.669175 0.160577 -0.027309
C33   C     C_R   0.266539 0.329675 0.838922 -0.029292
C34   C     C_R   0.777982 0.191054 0.835442 -0.026213
C35   C     C_R   0.583850 0.870784 0.548119 -0.111167
C36   C     C_R   0.221082 0.807780 0.165490 -0.030451
C37   C     C_R   0.223393 0.189307 0.163386 -0.026561
C38   C     C_R   0.777090 0.809996 0.836253 -0.025990
C39   C     C_R   0.928209 0.900120 0.064680 0.548267
C40   C     C_R   0.071815 0.099851 0.935305 0.547876
C41   C     C_R   0.071727 0.900037 0.935376 0.547990
C42   C     C_R   0.928243 0.099923 0.064648 0.548398
C43   C     C_R   0.423301 0.407574 0.069157 0.546241
C44   C     C_R   0.576710 0.592414 0.930845 0.546160
C45   C     C_R   0.576728 0.407596 0.930841 0.546241
C46   C     C_R   0.382542 0.122580 0.553319 -0.110979
C47   C     C_R   0.423228 0.592348 0.069180 0.545957
C48   C     C_R   0.070202 0.623843 0.437608 0.009490
C49   C     C_R   0.957487 0.371422 0.476256 0.008036
C50   C     C_R   0.973136 0.625769 0.424368 0.012538
C51   C     C_R   0.041651 0.374265 0.522706 0.011758
C52   C     C_R   0.527091 0.125890 0.574789 0.012456
C53   C     C_R   0.458254 0.874099 0.477953 0.011882
C54   C     C_R   0.430088 0.123959 0.561466 0.008682
C55   C     C_R   0.542373 0.871353 0.524555 0.008517
C56   C     C_R   0.054202 0.685493 0.408523 -0.125523
C57   C     C_R   0.416006 0.875941 0.455730 -0.110021
C58   C     C_R   0.975328 0.308036 0.498204 -0.125085
C59   C     C_R   0.005621 0.686817 0.403445 -0.126078
C60   C     C_R   0.015621 0.309933 0.525137 -0.124689
C61   C     C_R   0.494763 0.187069 0.595117 -0.116738
C62   C     C_R   0.484162 0.809733 0.476020 -0.114729
C63   C     C_R   0.446209 0.185752 0.589994 -0.117003
C64   C     C_R   0.524432 0.807901 0.503027 -0.114995
C65   C     C_R   0.990630 0.562957 0.448470 0.025270
C66   C     C_R   0.025925 0.437016 0.495573 0.024321
C67   C     C_R   0.038294 0.562555 0.458021 0.024568
C68   C     C_R   0.576545 0.126608 0.577627 -0.112622
C69   C     C_R   0.981380 0.436237 0.477982 0.024080
C70   C     C_R   0.461901 0.062595 0.541419 0.026127
C71   C     C_R   0.518590 0.936176 0.522362 0.025252
C72   C     C_R   0.509536 0.063006 0.551028 0.026613
C73   C     C_R   0.474069 0.936925 0.504699 0.025513
C74   C     C_R   0.445332 0.000145 0.514438 -0.002977
C75   C     C_R   0.538254 0.999735 0.540719 -0.003045
C76   C     C_R   0.961796 0.499738 0.459249 -0.005317
C77   C     C_R   0.054767 0.500189 0.485400 -0.005451
C78   C     C_R   0.382700 0.936653 0.473940 0.000569
C79   C     C_R   0.083940 0.376134 0.544802 -0.113619
C80   C     C_R   0.609468 0.064912 0.556594 -0.000129
C81   C     C_R   0.612097 0.934111 0.546400 -0.000856
C82   C     C_R   0.368855 0.063358 0.514862 -0.001033
C83   C     C_R   0.887855 0.434102 0.453959 -0.001568
C84   C     C_R   0.131278 0.563378 0.484800 -0.002155
C85   C     C_R   0.117320 0.436761 0.526189 -0.000401
C86   C     C_R   0.890591 0.564891 0.443223 -0.001153
C87   C     C_R   0.332854 0.935667 0.469582 -0.026208
C88   C     C_R   0.663440 0.065281 0.545334 -0.026329
C89   C     C_R   0.664425 0.934440 0.541587 -0.023394
C90   C     C_R   0.923582 0.626532 0.421815 -0.116424
C91   C     C_R   0.325803 0.064390 0.491402 -0.020740
C92   C     C_R   0.835556 0.434448 0.458600 -0.024565
C93   C     C_R   0.174280 0.564408 0.508402 -0.021479
C94   C     C_R   0.167175 0.435710 0.530450 -0.027393
C95   C     C_R   0.836590 0.565288 0.454608 -0.027515
C96   C     C_R   0.307423 0.000324 0.472695 -0.162433
C97   C     C_R   0.689020 0.999902 0.540194 -0.161953
C98   C     C_R   0.810992 0.499927 0.459849 -0.164537
C99   C     C_R   0.192640 0.500335 0.527216 -0.164408
C100  C     C_1   0.314601 0.630081 0.786059 0.181321
C101  C     C_R   0.916023 0.370773 0.452677 -0.114949
C102  C     C_1   0.685336 0.369885 0.214038 0.182635
C103  C     C_1   0.684751 0.631261 0.214698 0.180370
C104  C     C_1   0.316376 0.366692 0.784544 0.173159
C105  C     C_1   0.810900 0.127873 0.806831 0.181499
C106  C     C_1   0.187801 0.870635 0.194600 0.178899
C107  C     C_1   0.191407 0.125287 0.190693 0.181374
C108  C     C_1   0.809412 0.873703 0.808452 0.182364
C109  C     C_R   0.704008 0.268930 0.671602 0.547597
C110  C     C_R   0.117680 0.622536 0.446047 -0.114248
C111  C     C_R   0.206334 0.742312 0.965902 0.022899
C112  C     C_R   0.793179 0.256947 0.034511 0.022977
C113  C     C_R   0.792653 0.743896 0.034970 0.022943
C114  C     C_R   0.207782 0.255360 0.964728 0.022345
C115  C     C_R   0.732926 0.286399 0.941488 0.023775
C116  C     C_R   0.266503 0.712792 0.059060 0.023538
C117  C     C_R   0.267986 0.285024 0.057715 0.023206
C118  C     C_R   0.732386 0.714360 0.942018 0.023697
C119  C     C_R   0.249793 0.693698 0.928471 -0.001509
C120  C     C_R   0.703980 0.731108 0.671595 0.550504
C121  C     C_R   0.749828 0.305718 0.071859 -0.001438
C122  C     C_R   0.749327 0.695126 0.072367 -0.001493
C123  C     C_R   0.251219 0.303931 0.927221 -0.001545
C124  C     C_R   0.774698 0.235386 0.906600 -0.002296
C125  C     C_R   0.224517 0.763525 0.094177 -0.003033
C126  C     C_R   0.226494 0.233671 0.092372 -0.002651
C127  C     C_R   0.773955 0.765614 0.907294 -0.002404
C128  C     C_R   0.275298 0.673137 0.981544 0.013342
C129  C     C_R   0.724292 0.326221 0.018822 0.013591
C130  C     C_R   0.723805 0.674572 0.019372 0.013381
C131  C     C_R   0.296044 0.268846 0.328416 0.557478
C132  C     C_R   0.276640 0.324650 0.980245 0.013061
C133  C     C_R   0.809285 0.228957 0.947540 0.012157
C134  C     C_R   0.189997 0.769957 0.053095 0.012474
C135  C     C_R   0.191878 0.227127 0.051538 0.011794
C136  C     C_R   0.808574 0.772113 0.948144 0.011737
C137  C     C_R   0.133398 0.809076 0.956436 0.011765
C138  C     C_R   0.866295 0.190480 0.043739 0.011702
C139  C     C_R   0.865959 0.810030 0.043918 0.011580
C140  C     C_R   0.134282 0.189620 0.955968 0.011733
C141  C     C_R   0.660658 0.353048 0.929788 0.012394
C142  C     C_R   0.796605 0.231961 0.328151 0.550287
C143  C     C_R   0.339104 0.646574 0.070372 0.011768
C144  C     C_R   0.339699 0.352472 0.069889 0.011608
C145  C     C_R   0.660431 0.647281 0.930040 0.012066
C146  C     C_R   0.112362 0.841773 0.902084 -0.026811
C147  C     C_R   0.887548 0.158099 0.097965 -0.026596
C148  C     C_R   0.887439 0.842053 0.098014 -0.026535
C149  C     C_R   0.112656 0.157824 0.901949 -0.026989
C150  C     C_R   0.625276 0.361859 0.890537 -0.023115
C151  C     C_R   0.374578 0.637954 0.109516 -0.023852
C152  C     C_R   0.374860 0.361714 0.109437 -0.024176
C153  C     C_R   0.203396 0.768037 0.671850 0.556493
C154  C     C_R   0.625188 0.638226 0.890584 -0.023508
C155  C     C_R   0.134924 0.824401 0.810849 -0.163401
C156  C     C_R   0.865115 0.175647 0.189138 -0.164571
C157  C     C_R   0.865138 0.824303 0.189120 -0.165546
C158  C     C_R   0.134894 0.175670 0.810878 -0.165788
C159  C     C_R   0.637930 0.328555 0.808948 -0.162313
C160  C     C_R   0.361925 0.671316 0.191063 -0.161990
C161  C     C_R   0.362123 0.328620 0.191200 -0.160660
C162  C     C_R   0.637898 0.671407 0.808882 -0.161597
C163  C     C_R   0.177328 0.775785 0.771512 -0.026142
C164  C     C_R   0.203426 0.231903 0.671825 0.540504
C165  C     C_R   0.822654 0.224176 0.228503 -0.026644
C166  C     C_R   0.822611 0.775904 0.228538 -0.026865
C167  C     C_R   0.177505 0.223940 0.771414 -0.026520
C168  C     C_R   0.682132 0.283185 0.769130 -0.027675
C169  C     C_R   0.317645 0.716545 0.230974 -0.027395
C170  C     C_R   0.318089 0.282973 0.230856 -0.027622
C171  C     C_R   0.681997 0.716931 0.769161 -0.027649
C172  C     C_R   0.197533 0.742230 0.826465 -0.007812
C173  C     C_R   0.802329 0.257547 0.173620 -0.007353
C174  C     C_R   0.802131 0.742793 0.173767 -0.007181
C175  C     C_R   0.796599 0.768054 0.328166 0.547423
C176  C     C_R   0.198175 0.256780 0.826070 -0.008908
C177  C     C_R   0.709447 0.261784 0.819349 -0.004299
C178  C     C_R   0.290097 0.737642 0.181002 -0.006998
C179  C     C_R   0.291115 0.261086 0.180350 -0.005221
C180  C     C_R   0.709094 0.738613 0.819577 -0.004620
C181  C     C_R   0.200626 0.631132 0.513757 0.552099
C182  C     C_R   0.803065 0.368364 0.473706 0.549710
C183  C     C_R   0.803703 0.631781 0.471469 0.545640
C184  C     C_R   0.197092 0.368602 0.525315 0.547291
C185  C     C_R   0.696312 0.131768 0.528496 0.548315
C186  C     C_R   0.399094 0.000205 0.500396 0.025306
C187  C     C_R   0.302908 0.868603 0.474706 0.549930
C188  C     C_R   0.299413 0.131131 0.486135 0.554456
C189  C     C_R   0.696919 0.868344 0.526376 0.552291
C190  C     C_R   0.179154 0.764645 0.916011 0.032576
C191  C     C_R   0.820529 0.234874 0.084220 0.032867
C192  C     C_R   0.820170 0.765707 0.084486 0.032855
C193  C     C_R   0.180161 0.233770 0.915316 0.032212
C194  C     C_R   0.700715 0.299895 0.897202 0.033350
C195  C     C_R   0.298840 0.699486 0.103186 0.032657
C196  C     C_R   0.299905 0.299008 0.102318 0.032926
Cu1   Cu    Cu3+1 0.209920 0.785290 0.495070 0.924792
Cu2   Cu    Cu3+1 0.504760 0.500000 0.075850 0.955797
Cu3   Cu    Cu3+1 0.995240 1.000000 0.924150 0.942811
Cu4   Cu    Cu3+1 0.004760 1.000000 0.075850 0.939930
Cu5   Cu    Cu3+1 0.790080 0.214710 0.504930 0.922357
Cu6   Cu    Cu3+1 0.790080 0.785290 0.504930 0.931339
Cu7   Cu    Cu3+1 0.209920 0.214710 0.495070 0.926541
Cu8   Cu    Cu3+1 0.709920 0.285290 0.495070 0.946201
Cu9   Cu    Cu3+1 0.290080 0.714710 0.504930 0.940975
Cu10  Cu    Cu3+1 0.290080 0.285290 0.504930 0.938905
Cu11  Cu    Cu3+1 0.709920 0.714710 0.495070 0.936626
Cu12  Cu    Cu3+1 0.495240 0.500000 0.924150 0.951365
H1    H     H_    0.542923 0.757371 0.503784 0.120938
H2    H     H_    0.729823 0.000007 0.531467 0.161615
H3    H     H_    0.770198 0.500057 0.468537 0.161848
H4    H     H_    0.228267 0.500492 0.537097 0.159840
H5    H     H_    0.591501 0.819941 0.569194 0.153412
H6    H     H_    0.356147 0.167591 0.580745 0.153957
H7    H     H_    0.410741 0.829506 0.422841 0.146240
H8    H     H_    0.587437 0.175044 0.599829 0.143237
H9    H     H_    0.089210 0.329795 0.577896 0.143893
H10   H     H_    0.912639 0.674937 0.399560 0.141581
H11   H     H_    0.908378 0.319844 0.431889 0.151572
H12   H     H_    0.421912 0.233601 0.606264 0.126944
H13   H     H_    0.144086 0.667549 0.418718 0.152566
H14   H     H_    0.120435 0.851190 0.768901 0.161439
H15   H     H_    0.879738 0.149050 0.231023 0.160256
H16   H     H_    0.879909 0.850658 0.230925 0.159637
H17   H     H_    0.120002 0.149488 0.769132 0.160090
H18   H     H_    0.614517 0.340531 0.774043 0.158785
H19   H     H_    0.385437 0.659528 0.225851 0.160064
H20   H     H_    0.385338 0.340956 0.226329 0.162647
H21   H     H_    0.614608 0.659225 0.773834 0.160089
H22   H     H_    0.069114 0.834737 0.090112 0.148976
H23   H     H_    0.471937 0.760537 0.456920 0.119832
H24   H     H_    0.930365 0.164659 0.909898 0.149814
H25   H     H_    0.929789 0.836056 0.909894 0.151731
H26   H     H_    0.070516 0.163633 0.090093 0.150475
H27   H     H_    0.636499 0.445567 0.016203 0.139137
H28   H     H_    0.363606 0.554302 0.983498 0.139492
H29   H     H_    0.363585 0.444991 0.983320 0.139211
H30   H     H_    0.636389 0.554811 0.016657 0.139266
H31   H     H_    0.118154 0.806156 0.169456 0.125371
H32   H     H_    0.880896 0.192328 0.831114 0.129009
H33   H     H_    0.879932 0.809192 0.831643 0.131625
H34   H     H_    0.506999 0.235912 0.614920 0.119933
H35   H     H_    0.120607 0.189950 0.168096 0.129888
H36   H     H_    0.693140 0.428844 0.080913 0.128206
H37   H     H_    0.306823 0.570770 0.918988 0.128777
H38   H     H_    0.307567 0.427188 0.917650 0.130168
H39   H     H_    0.692816 0.571941 0.081609 0.128872
H40   H     H_    0.244779 0.658553 0.734405 0.157213
H41   H     H_    0.755278 0.341434 0.265467 0.155451
H42   H     H_    0.755138 0.658774 0.265495 0.155443
H43   H     H_    0.245449 0.340721 0.734340 0.157915
H44   H     H_    0.746078 0.165470 0.745692 0.150276
H45   H     H_    0.027771 0.260800 0.544561 0.109950
H46   H     H_    0.253233 0.833890 0.254672 0.153152
H47   H     H_    0.254912 0.164602 0.253994 0.151365
H48   H     H_    0.745433 0.835039 0.745941 0.150059
H49   H     H_    0.993479 0.735573 0.383242 0.108194
H50   H     H_    0.956746 0.257518 0.497812 0.111107
H51   H     H_    0.078603 0.733245 0.391811 0.111603
H52   H     H_    0.271790 0.000511 0.462831 0.159935
N1    N     N_1   0.354131 0.599908 0.742200 -0.286195
N2    N     N_1   0.645903 0.400268 0.257855 -0.282068
N3    N     N_1   0.645198 0.601194 0.258673 -0.287557
N4    N     N_1   0.356256 0.396015 0.740389 -0.293881
N5    N     N_1   0.837555 0.077525 0.783276 -0.263199
N6    N     N_1   0.160867 0.920718 0.218565 -0.264924
N7    N     N_1   0.165567 0.074191 0.213074 -0.261769
N8    N     N_1   0.835560 0.924511 0.785616 -0.260943
O1    O     O_R   0.255040 0.869590 0.478480 -0.505888
O2    O     O_R   0.817950 0.203450 0.375560 -0.511238
O3    O     O_R   0.817950 0.796550 0.375560 -0.513166
O4    O     O_R   0.182050 0.203450 0.624440 -0.513579
O5    O     O_R   0.682050 0.296550 0.624440 -0.509547
O6    O     O_R   0.317950 0.703450 0.375560 -0.509642
O7    O     O_R   0.317950 0.296550 0.375560 -0.498435
O8    O     O_R   0.682050 0.703450 0.624440 -0.507432
O9    O     O_R   0.250530 0.763330 0.367210 -0.527175
O10   O     O_R   0.749470 0.236670 0.632790 -0.513351
O11   O     O_R   0.749470 0.763330 0.632790 -0.511236
O12   O     O_R   0.744960 0.130410 0.521520 -0.507118
O13   O     O_R   0.250530 0.236670 0.367210 -0.510686
O14   O     O_R   0.750530 0.263330 0.367210 -0.510058
O15   O     O_R   0.249470 0.736670 0.632790 -0.510210
O16   O     O_R   0.249470 0.263330 0.632790 -0.527206
O17   O     O_R   0.750530 0.736670 0.367210 -0.512200
O18   O     O_R   0.177260 0.690030 0.513710 -0.519774
O19   O     O_R   0.822740 0.309970 0.486290 -0.522718
O20   O     O_R   0.822740 0.690030 0.486290 -0.513372
O21   O     O_R   0.177260 0.309970 0.513710 -0.517414
O22   O     O_R   0.677260 0.190030 0.513710 -0.510798
O23   O     O_R   0.744960 0.869590 0.521520 -0.507450
O24   O     O_R   0.322740 0.809970 0.486290 -0.515253
O25   O     O_R   0.322740 0.190030 0.486290 -0.517043
O26   O     O_R   0.677260 0.809970 0.513710 -0.520269
O27   O     O_R   0.051640 0.926880 0.885090 -0.513020
O28   O     O_R   0.948360 0.073120 0.114910 -0.513808
O29   O     O_R   0.948360 0.926880 0.114910 -0.514331
O30   O     O_R   0.051640 0.073120 0.885090 -0.514050
O31   O     O_R   0.551640 0.426880 0.885090 -0.505488
O32   O     O_R   0.448360 0.573120 0.114910 -0.504904
O33   O     O_R   0.448360 0.426880 0.114910 -0.503632
O34   O     O_R   0.255040 0.130410 0.478480 -0.509499
O35   O     O_R   0.551640 0.573120 0.885090 -0.504686
O36   O     O_R   0.940620 0.926560 0.986760 -0.509665
O37   O     O_R   0.059380 0.073440 0.013240 -0.510150
O38   O     O_R   0.059380 0.926560 0.013240 -0.509644
O39   O     O_R   0.940620 0.073440 0.986760 -0.509551
O40   O     O_R   0.440620 0.426560 0.986760 -0.519360
O41   O     O_R   0.559380 0.573440 0.013240 -0.518825
O42   O     O_R   0.559380 0.426560 0.013240 -0.517668
O43   O     O_R   0.440620 0.573440 0.986760 -0.518357
O44   O     O_R   0.755040 0.369590 0.478480 -0.508277
O45   O     O_R   0.244960 0.630410 0.521520 -0.510371
O46   O     O_R   0.244960 0.369590 0.521520 -0.506687
O47   O     O_R   0.755040 0.630410 0.478480 -0.507925
O48   O     O_R   0.182050 0.796550 0.624440 -0.502686

loop_
_geom_bond_atom_site_label_1
_geom_bond_atom_site_label_2
_ccdc_geom_bond_type
C91   C188  S    
C153  O15   A    
Cu8   O22   S    
C109  O10   A    
C9    C143  A    
C124  C133  A    
C156  H15   S    
C50   C59   A    
C52   C61   A    
C54   C63   A    
C58   C60   A    
Cu12  O43   S    
C61   C63   A    
C117  C132  A    
C62   C64   A    
C91   C96   A    
C116  C195  A    
C93   C181  S    
C50   C90   A    
C113  C122  A    
C70   C74   A    
C157  H16   S    
C102  N2    T    
C78   C186  A    
C4    C12   A    
C24   C85   A    
C88   C97   A    
C119  C128  A    
C143  C151  A    
Cu3   Cu4   S    
C49   C69   A    
Cu9   O15   S    
Cu10  O16   S    
C42   C147  S    
C158  C167  A    
C11   C20   A    
C166  C174  A    
C150  C159  A    
C36   C106  S    
C137  C146  A    
C127  C136  A    
C31   C121  A    
C139  C192  A    
C86   C90   A    
C71   C73   A    
C172  C190  A    
C17   C129  A    
Cu9   O6    S    
C173  C191  A    
C82   C91   A    
C51   C66   A    
Cu6   O3    S    
C142  O2    A    
C1    O9    A    
C52   C72   A    
C3    C118  A    
Cu5   O10   S    
C101  H11   S    
C54   C70   A    
C22   C31   A    
Cu3   O30   S    
C163  C172  A    
C181  O18   A    
C183  O20   A    
C42   O28   A    
Cu1   O1    S    
C79   C85   A    
C66   C77   A    
Cu2   O32   S    
C34   C124  A    
C12   C134  A    
C57   C78   A    
Cu2   O42   S    
C56   C59   A    
Cu11  O8    S    
C21   C172  A    
C98   H3    S    
C8    C17   A    
C160  H19   S    
C42   O39   A    
C44   C154  S    
C47   O32   A    
C80   C88   A    
C44   O35   A    
C92   C182  S    
C142  O14   A    
C112  C191  A    
C25   H43   S    
C95   C183  S    
C84   C93   A    
C48   C67   A    
C162  H21   S    
C86   C95   A    
C8    H27   S    
C24   C77   A    
C2    C81   A    
C104  N4    T    
Cu8   O44   S    
C110  H13   S    
Cu2   Cu12  S    
C55   C71   A    
C2    C75   A    
C78   C87   A    
C48   C110  A    
C123  C132  A    
C33   C104  S    
C138  C191  A    
C67   C77   A    
C27   C178  A    
Cu4   O38   S    
C23   C174  A    
Cu10  O7    S    
C153  C163  S    
C45   O42   A    
C23   H42   S    
Cu5   O12   S    
Cu6   O11   S    
C79   H9    S    
C105  N5    T    
C30   C100  S    
C41   O38   A    
Cu3   O36   S    
C164  O16   A    
C69   C76   A    
C111  C119  A    
C175  O17   A    
C6    C139  A    
C108  N8    T    
C187  O24   A    
C18   C128  A    
C4    C137  A    
C46   C82   A    
C41   C146  S    
C29   C38   A    
C8    C141  A    
C176  C193  A    
C149  C158  A    
Cu5   O19   S    
C152  C161  A    
Cu6   O20   S    
Cu1   O9    S    
C7    H26   S    
Cu3   O27   S    
C87   C96   A    
Cu4   O28   S    
C72   C75   A    
C141  C150  A    
C120  O8    A    
C139  C148  A    
C162  C171  A    
C87   C187  S    
C15   C136  A    
C155  C163  A    
C140  C193  A    
C39   O36   A    
C3    C180  A    
C109  C168  S    
Cu9   O45   S    
C10   C144  A    
C1    O6    A    
C26   H44   S    
C145  C154  A    
C41   O27   A    
C88   C185  S    
C115  C194  A    
C3    C145  A    
Cu6   Cu11  S    
C118  C127  A    
C114  C123  A    
C131  O13   A    
C22   C173  A    
C37   C126  A    
C117  C126  A    
C26   C177  A    
C19   C132  A    
C113  C192  A    
C181  O45   A    
C83   C101  A    
C44   O41   A    
C154  C162  A    
Cu12  O35   S    
C111  C134  A    
C144  C196  A    
C14   C133  A    
C170  C179  A    
C116  C125  A    
Cu4   O29   S    
C112  C121  A    
C144  C152  A    
C14   H32   S    
C18   H37   S    
C28   C37   A    
C148  C157  A    
C50   C65   A    
C51   C79   A    
C90   H10   S    
C43   C152  S    
C137  C190  A    
C9    C18   A    
C100  N1    T    
C10   H29   S    
C51   C60   A    
C184  O21   A    
C19   H38   S    
C174  C192  A    
C125  C134  A    
C15   H33   S    
C73   C74   A    
Cu1   Cu9   S    
C28   H47   S    
Cu1   O18   S    
C11   H30   S    
Cu1   O48   S    
C166  C175  S    
C65   C76   A    
C82   C186  A    
C184  O46   A    
C37   C107  S    
C49   C101  A    
C7    C140  A    
C168  C177  A    
C47   O43   A    
C45   C150  S    
C159  H18   S    
C189  O23   A    
C20   H39   S    
C146  C155  A    
C57   H7    S    
C65   C67   A    
C39   C148  S    
C160  C169  A    
C93   C99   A    
C161  H20   S    
C81   C89   A    
Cu7   O34   S    
C94   C184  S    
Cu7   Cu10  S    
C21   H40   S    
C179  C196  A    
Cu2   O33   S    
C106  N6    T    
C177  C194  A    
C31   C102  S    
C32   C122  A    
C20   C130  A    
C53   C57   A    
C120  O11   A    
C63   H12   S    
C118  C130  A    
C188  O34   A    
Cu7   O13   S    
C10   C19   A    
C96   H52   S    
C143  C195  A    
C46   C54   A    
C5    H24   S    
C39   O29   A    
C147  C156  A    
C35   H5    S    
C158  H17   S    
C5    C14   A    
C7    C16   A    
C58   H50   S    
C126  C135  A    
Cu6   O23   S    
C182  O44   A    
C64   H1    S    
C56   H51   S    
Cu12  O40   S    
C189  O26   A    
C61   H34   S    
C115  C124  A    
C120  C171  S    
C34   C105  S    
C164  C167  S    
C185  O22   A    
C121  C129  A    
Cu11  O17   S    
Cu10  O46   S    
C27   C36   A    
C21   C30   A    
C13   C83   A    
Cu7   O21   S    
C23   C32   A    
C156  C165  A    
Cu8   O14   S    
C60   H45   S    
C40   C149  S    
C38   C108  S    
C68   H8    S    
C28   C179  A    
C187  O1    A    
C111  C190  A    
C62   H23   S    
C89   C189  S    
C59   H49   S    
Cu12  O31   S    
C109  O5    A    
C74   C186  A    
C68   C80   A    
C131  C170  S    
C114  C193  A    
Cu2   O41   S    
C36   C125  A    
C112  C133  A    
C38   C127  A    
C35   C81   A    
C95   C98   A    
C92   C98   A    
C5    C138  A    
C83   C92   A    
C43   O33   A    
Cu11  O47   S    
C45   O31   A    
C153  O48   A    
C66   C69   A    
C30   C119  A    
C165  C173  A    
C159  C168  A    
C29   H48   S    
Cu3   O39   S    
Cu10  O25   S    
C6    C15   A    
C26   C34   A    
C12   H31   S    
C17   H36   S    
C46   H6    S    
C113  C136  A    
C13   C86   A    
C114  C135  A    
C183  O47   A    
C188  O25   A    
C52   C68   A    
Cu5   O2    S    
C182  O19   A    
C9    H28   S    
Cu4   O37   S    
C27   H46   S    
C99   H4    S    
C32   C103  S    
C97   H2    S    
C35   C55   A    
C22   H41   S    
C11   C145  A    
C29   C180  A    
C84   C110  A    
C49   C58   A    
C89   C97   A    
C4    H22   S    
C131  O7    A    
C85   C94   A    
C13   C76   A    
C138  C147  A    
C55   C64   A    
C161  C170  A    
C6    H25   S    
Cu8   O5    S    
C107  N7    T    
Cu5   Cu8   S    
C171  C180  A    
C40   O37   A    
C185  O12   A    
C175  O3    A    
C169  C178  A    
C115  C129  A    
C48   C56   A    
C53   C73   A    
C47   C151  S    
C157  C166  A    
C178  C195  A    
C151  C160  A    
Cu9   O24   S    
C40   O30   A    
C24   C84   A    
C117  C196  A    
C142  C165  S    
C71   C75   A    
C25   C176  A    
C94   C99   A    
C140  C149  A    
C1    C169  S    
C141  C194  A    
Cu11  O26   S    
C164  O4    A    
C43   O40   A    
C2    C80   A    
Cu7   O4    S    
C16   H35   S    
C53   C62   A    
C116  C128  A    
C25   C33   A    
C33   C123  A    
C103  N3    T    
C155  H14   S    
C70   C72   A    
C16   C135  A    
C122  C130  A    
C167  C176  A    
