data_str_m2_o14_o14_f0_pcu.sym.159
_audit_creation_date              2012-12-10T17:17:52-0500
_audit_creation_method            fapswitch 2.2
_symmetry_space_group_name_H-M    P1
_symmetry_Int_Tables_number       1
_space_group_crystal_system       triclinic
_cell_length_a                    14.944465
_cell_length_b                    15.64073
_cell_length_c                    9.593052
_cell_angle_alpha                 90.293566
_cell_angle_beta                  90.008068
_cell_angle_gamma                 90.439038
_cell_volume                      2242.20714426

loop_
_atom_site_label
_atom_site_type_symbol
_atom_type_description
_atom_site_fract_x
_atom_site_fract_y
_atom_site_fract_z
_atom_type_partial_charge
C1    C     C_R   0.379062 0.883532 0.499844 0.796618
C2    C     C_R   0.384805 0.122275 0.501560 0.789090
C3    C     C_R   0.879062 0.383532 0.499844 0.796617
C4    C     C_R   0.884805 0.622274 0.501560 0.789090
C5    C     C_R   0.287674 0.223676 0.380798 -0.187111
C6    C     C_R   0.320837 0.746487 0.421129 -0.195869
C7    C     C_R   0.787675 0.723676 0.380798 -0.187111
C8    C     C_R   0.820837 0.246487 0.421129 -0.195869
C9    C     C_R   0.718792 0.782005 0.379420 -0.220348
C10   C     C_R   0.757063 0.182268 0.421681 -0.202356
C11   C     C_R   0.218792 0.282005 0.379420 -0.220348
C12   C     C_R   0.257062 0.682268 0.421681 -0.202355
C13   C     C_R   0.675860 0.804973 0.503547 -0.116154
C14   C     C_R   0.679221 0.191374 0.500485 -0.089859
C15   C     C_R   0.175860 0.304973 0.503548 -0.116154
C16   C     C_R   0.179221 0.691374 0.500485 -0.089859
C17   C     C_R   0.664592 0.998510 0.144112 -0.145183
C18   C     C_R   0.164592 0.498510 0.144112 -0.145183
C19   C     C_R   0.745007 0.996754 0.071873 -0.220916
C20   C     C_R   0.245007 0.496754 0.071873 -0.220916
C21   C     C_R   0.745026 0.996995 0.928240 -0.189503
C22   C     C_R   0.245026 0.496995 0.928240 -0.189502
C23   C     C_R   0.664625 0.999022 0.856000 -0.120863
C24   C     C_R   0.164625 0.499022 0.856000 -0.120864
C25   C     C_R   0.580914 0.999358 0.925251 0.197038
C26   C     C_R   0.080914 0.499358 0.925251 0.197038
C27   C     C_R   0.580894 0.999240 0.074852 0.190930
C28   C     C_R   0.080894 0.499240 0.074852 0.190930
C29   C     C_R   0.422759 0.000691 0.072962 0.039800
C30   C     C_R   0.922759 0.500691 0.072962 0.039800
C31   C     C_R   0.616745 0.120410 0.500229 0.768558
C32   C     C_R   0.613819 0.876868 0.500454 0.779800
C33   C     C_R   0.116745 0.620410 0.500229 0.768558
C34   C     C_R   0.113819 0.376868 0.500454 0.779800
C35   C     C_R   0.423146 0.000767 0.925147 -0.109733
C36   C     C_R   0.923146 0.500767 0.925147 -0.109734
C37   C     C_R   0.322877 0.209113 0.768546 -0.180846
C38   C     C_R   0.209643 0.911175 0.645719 -0.172750
C39   C     C_R   0.822875 0.709112 0.768546 -0.180846
C40   C     C_R   0.709642 0.411175 0.645719 -0.172749
C41   C     C_R   0.274724 0.223140 0.890824 -0.154221
C42   C     C_R   0.129319 0.922532 0.717116 -0.132603
C43   C     C_R   0.774722 0.723138 0.890824 -0.154221
C44   C     C_R   0.629319 0.422532 0.717115 -0.132603
C45   C     C_R   0.686805 0.750547 0.883606 -0.136048
C46   C     C_R   0.564954 0.357810 0.717549 -0.138764
C47   C     C_R   0.186808 0.250549 0.883607 -0.136048
C48   C     C_R   0.064954 0.857810 0.717550 -0.138764
C49   C     C_R   0.650169 0.771958 0.755094 -0.157951
C50   C     C_R   0.580579 0.281325 0.646700 -0.174213
C51   C     C_R   0.150171 0.271959 0.755095 -0.157951
C52   C     C_R   0.080579 0.781325 0.646700 -0.174213
C53   C     C_R   0.701746 0.766645 0.631213 0.097336
C54   C     C_R   0.662169 0.267703 0.575554 0.100584
C55   C     C_R   0.201747 0.266646 0.631213 0.097336
C56   C     C_R   0.162169 0.767703 0.575555 0.100583
C57   C     C_R   0.283228 0.222090 0.635701 0.093620
C58   C     C_R   0.227580 0.833545 0.575010 0.098983
C59   C     C_R   0.783227 0.722089 0.635701 0.093620
C60   C     C_R   0.727580 0.333545 0.575009 0.098983
C61   C     C_R   0.320597 0.192633 0.507308 -0.121327
C62   C     C_R   0.307728 0.820738 0.499421 -0.093209
C63   C     C_R   0.820597 0.692633 0.507308 -0.121326
C64   C     C_R   0.807728 0.320737 0.499421 -0.093209
Cu1   Cu    Cu3+1 0.499990 1.000000 0.640660 0.914424
Cu2   Cu    Cu3+1 0.999990 0.500000 0.640660 0.914424
Cu3   Cu    Cu3+1 0.500010 1.000000 0.359340 0.943940
Cu4   Cu    Cu3+1 0.000010 0.500000 0.359340 0.943940
H1    H     H_    0.316027 0.203790 0.281991 0.163400
H2    H     H_    0.381841 0.737387 0.361902 0.149315
H3    H     H_    0.816028 0.703790 0.281991 0.163400
H4    H     H_    0.881841 0.237387 0.361902 0.149315
H5    H     H_    0.807873 0.996177 0.872050 0.146996
H6    H     H_    0.307873 0.496177 0.872050 0.146996
H7    H     H_    0.672428 0.000540 0.746166 0.200464
H8    H     H_    0.172428 0.500540 0.746166 0.200465
H9    H     H_    0.360477 0.001454 0.868456 0.145274
H10   H     H_    0.860477 0.501454 0.868456 0.145274
H11   H     H_    0.391957 0.191591 0.781582 0.164802
H12   H     H_    0.256241 0.964371 0.644415 0.145721
H13   H     H_    0.891955 0.691590 0.781583 0.164803
H14   H     H_    0.756241 0.464371 0.644414 0.145721
H15   H     H_    0.305211 0.211087 0.991157 0.132845
H16   H     H_    0.116489 0.982277 0.770718 0.139793
H17   H     H_    0.805208 0.711084 0.991158 0.132845
H18   H     H_    0.616488 0.482277 0.770717 0.139793
H19   H     H_    0.647698 0.757493 0.977937 0.137564
H20   H     H_    0.502123 0.367294 0.771443 0.134240
H21   H     H_    0.147701 0.257495 0.977938 0.137564
H22   H     H_    0.002123 0.867293 0.771443 0.134240
H23   H     H_    0.580793 0.790818 0.754382 0.164746
H24   H     H_    0.527486 0.234151 0.646172 0.139335
H25   H     H_    0.080795 0.290819 0.754384 0.164746
H26   H     H_    0.027487 0.734151 0.646173 0.139336
H27   H     H_    0.699099 0.808996 0.280342 0.166415
H28   H     H_    0.769409 0.124241 0.362713 0.138541
H29   H     H_    0.199099 0.308996 0.280342 0.166415
H30   H     H_    0.269409 0.624241 0.362713 0.138541
H31   H     H_    0.672391 0.999549 0.253955 0.196916
H32   H     H_    0.172391 0.499549 0.253955 0.196916
H33   H     H_    0.807838 0.995807 0.128103 0.148469
H34   H     H_    0.307838 0.495807 0.128103 0.148470
N1    N     N_R   0.501200 0.000000 0.147910 -0.221997
N2    N     N_R   0.001200 0.500000 0.147910 -0.221997
N3    N     N_R   0.501270 0.000000 0.852040 -0.207174
N4    N     N_R   0.001270 0.500000 0.852040 -0.207174
O1    O     O_R   0.409820 0.909830 0.618810 -0.586706
O2    O     O_R   0.409820 0.090170 0.618810 -0.604995
O3    O     O_R   0.909820 0.409830 0.618810 -0.586706
O4    O     O_R   0.909820 0.590170 0.618810 -0.604996
O5    O     O_R   0.409840 0.909830 0.381240 -0.564840
O6    O     O_R   0.409840 0.090170 0.381240 -0.570139
O7    O     O_R   0.909840 0.409830 0.381240 -0.564840
O8    O     O_R   0.909840 0.590170 0.381240 -0.570139
O9    O     O_R   0.590170 0.090170 0.618760 -0.603610
O10   O     O_R   0.590170 0.909830 0.618760 -0.607639
O11   O     O_R   0.090170 0.590170 0.618760 -0.603610
O12   O     O_R   0.090170 0.409830 0.618760 -0.607639
O13   O     O_R   0.590190 0.090180 0.381190 -0.590276
O14   O     O_R   0.590190 0.909820 0.381190 -0.603004
O15   O     O_R   0.090190 0.590180 0.381190 -0.590276
O16   O     O_R   0.090190 0.409820 0.381190 -0.603004
C65   C     C_1   0.337684 0.001130 0.143035 0.295058
N5    N     N_1   0.268950 0.001484 0.198644 -0.300408
C66   C     C_1   0.837684 0.501130 0.143035 0.295058
N6    N     N_1   0.768950 0.501484 0.198644 -0.300408

loop_
_geom_bond_atom_site_label_1
_geom_bond_atom_site_label_2
_ccdc_geom_bond_type
C34   O12   A    
Cu2   Cu4   S    
C18   C28   A    
C58   C62   A    
C40   C60   A    
C47   H21   S    
C13   C32   S    
C14   C31   S    
C1    C62   S    
C26   N4    A    
C53   C59   A    
C25   N3    A    
C65   N5    T    
C54   C60   A    
C3    C64   S    
C33   O11   A    
C37   H11   S    
C4    C63   S    
C2    O6    A    
C50   C54   A    
C4    O8    A    
C45   H19   S    
Cu2   N4    S    
C38   C42   A    
C20   C22   A    
C6    C12   A    
C20   H34   S    
C41   H15   S    
C21   H5    S    
C29   N1    A    
C18   C20   A    
C6    H2    S    
Cu1   N3    S    
C9    C13   A    
C5    H1    S    
C38   C58   A    
C11   C15   A    
C12   C16   A    
Cu1   Cu3   S    
Cu2   O11   S    
C52   H26   S    
C10   H28   S    
Cu3   O14   S    
C9    H27   S    
C15   C34   S    
C46   H20   S    
C2    C61   S    
Cu4   O7    S    
C30   C66   S    
C34   O16   A    
C48   H22   S    
C33   O15   A    
Cu1   O9    S    
C18   H32   S    
C49   H23   S    
C44   H18   S    
C31   O9    A    
C44   C46   A    
C46   C50   A    
C13   C53   A    
C8    H4    S    
C36   N4    A    
C43   H17   S    
C40   H14   S    
C42   H16   S    
C39   H13   S    
C10   C14   A    
Cu4   O16   S    
C24   H8    S    
C39   C43   A    
Cu3   N1    S    
C35   H9    S    
C32   O10   A    
C60   C64   A    
C17   C27   A    
C16   C56   A    
C35   N3    A    
C16   C33   S    
C43   C45   A    
C28   N2    A    
C45   C49   A    
C39   C59   A    
C41   C47   A    
C5    C61   A    
C42   C48   A    
Cu2   O4    S    
C57   C61   A    
C17   H31   S    
C7    C63   A    
C8    C64   A    
Cu3   O5    S    
C14   C54   A    
C1    O1    A    
C21   C23   A    
C3    O7    A    
C66   N6    T    
Cu1   O10   S    
C22   C24   A    
C22   H6    S    
C40   C44   A    
C50   H24   S    
C7    C9    A    
C4    O4    A    
Cu1   O2    S    
C19   C21   A    
C26   C28   A    
Cu4   N2    S    
C23   H7    S    
Cu4   O15   S    
C47   C51   A    
C5    C11   A    
C25   C27   A    
C29   C35   A    
C59   C63   A    
C51   H25   S    
C30   C36   A    
C11   H29   S    
C6    C62   A    
C55   C57   A    
C36   H10   S    
C1    O5    A    
C7    H3    S    
C19   H33   S    
C24   C26   A    
Cu4   O8    S    
C38   H12   S    
C3    O3    A    
C49   C53   A    
C29   C65   S    
C2    O2    A    
C17   C19   A    
C56   C58   A    
C51   C55   A    
C23   C25   A    
Cu2   O3    S    
C37   C41   A    
Cu3   O6    S    
C48   C52   A    
C32   O14   A    
C8    C10   A    
Cu2   O12   S    
C30   N2    A    
C12   H30   S    
C31   O13   A    
Cu3   O13   S    
C27   N1    A    
Cu1   O1    S    
C37   C57   A    
C52   C56   A    
C15   C55   A    
