data_str_m9_o18_o23_f0_sra.sym.12
_audit_creation_date              2013-03-05T15:52:30-0500
_audit_creation_method            fapswitch 2.2
_symmetry_space_group_name_H-M    P1
_symmetry_Int_Tables_number       1
_space_group_crystal_system       triclinic
_cell_length_a                    6.955204
_cell_length_b                    20.440321
_cell_length_c                    24.511272
_cell_angle_alpha                 89.501825
_cell_angle_beta                  90.58092
_cell_angle_gamma                 88.918645
_cell_volume                      3483.74697102

loop_
_atom_site_label
_atom_site_type_symbol
_atom_site_description
_atom_site_fract_x
_atom_site_fract_y
_atom_site_fract_z
_atom_type_partial_charge
O1    O     O_R   0.507310 0.423620 0.460450 -0.571940
O2    O     O_R   0.170760 0.556060 0.437190 -0.596588
O3    O     O_R   0.004040 0.576380 0.539550 -0.594105
C1    C     C_R   0.337772 0.576352 0.421309 1.034413
O4    O     O_R   0.177350 0.422870 0.454070 -0.600775
O5    O     O_R   0.010680 0.442240 0.556560 -0.594530
C2    C     C_R   0.346920 0.399234 0.443280 1.035055
O6    O     O_R   0.500670 0.557760 0.443440 -0.574254
O7    O     O_3   0.340380 0.506510 0.533610 -0.283834
V1    V     V_3+5 0.064130 0.498790 0.493770 1.191772
O8    O     O_R   0.681170 0.443940 0.562810 -0.591792
C3    C     C_R   0.851506 0.423962 0.578646 0.977498
O9    O     O_R   0.674570 0.577130 0.545930 -0.596605
C4    C     C_R   0.841956 0.601018 0.556686 0.921790
V2    V     V_3+5 0.564560 0.501210 0.506230 1.203896
O10   O     O_3   0.838170 0.493490 0.466390 -0.258192
C5    C     C_R   0.975577 0.840420 0.908177 -0.251813
C6    C     C_R   0.842271 0.661715 0.588993 -0.113021
C7    C     C_R   0.989350 0.722168 0.907296 -0.012034
C8    C     C_R   0.976089 0.780519 0.935741 -0.254129
C9    C     C_R   0.978751 0.841672 0.850156 0.390586
C10   C     C_R   0.952717 0.781571 0.820941 -0.117199
C11   C     C_R   0.982312 0.721497 0.849859 -0.080147
C12   C     C_R   0.895923 0.778374 0.764663 0.061369
C13   C     C_R   0.921378 0.719066 0.734817 -0.014702
C14   C     C_R   0.981269 0.662516 0.763922 -0.317055
C15   C     C_R   0.002710 0.662269 0.820701 0.548296
C16   C     C_R   0.793574 0.830461 0.739321 -0.029163
C17   C     C_R   0.743098 0.828821 0.684454 -0.208072
C18   C     C_R   0.785064 0.773800 0.653133 0.138604
C19   C     C_R   0.873929 0.717507 0.677560 0.150213
C20   C     C_R   0.729573 0.773786 0.597967 -0.136296
C21   C     C_R   0.755604 0.718073 0.566517 -0.155337
C22   C     C_R   0.904519 0.661672 0.643873 -0.231893
H1    H     H_    0.971118 0.617057 0.659160 0.117676
H2    H     H_    0.704494 0.718485 0.524599 0.119711
H3    H     H_    0.667067 0.870695 0.666604 0.170604
H4    H     H_    0.000914 0.677671 0.931241 0.195685
H5    H     H_    0.976994 0.778963 0.979964 0.153369
H6    H     H_    0.999500 0.616423 0.743709 0.196933
H7    H     H_    0.745318 0.872365 0.762243 0.192210
H8    H     H_    0.660257 0.816540 0.579446 0.141817
C23   C     C_3   0.800286 0.264706 0.804990 -0.420303
C24   C     C_3   0.133127 0.233412 0.774550 -0.198176
C25   C     C_3   0.112849 0.280176 0.723835 -0.376818
H9    H     H_    0.853021 0.362537 0.771388 0.209415
H10   H     H_    0.855046 0.288576 0.842554 0.181654
H11   H     H_    0.183522 0.263364 0.809473 0.089406
H12   H     H_    0.174376 0.328363 0.734521 0.144618
H13   H     H_    0.198332 0.262490 0.688832 0.228441
C26   C     C_1   0.865323 0.378095 0.623969 -0.213269
C27   C     C_3   0.932829 0.205582 0.790024 0.234435
C28   C     C_3   0.789465 0.315844 0.757577 -0.472435
C29   C     C_3   0.898006 0.290116 0.706713 0.143184
C30   C     C_3   0.807503 0.222704 0.691953 0.426179
C31   C     C_3   0.843527 0.172155 0.739266 -0.416602
C32   C     C_1   0.878966 0.338797 0.661315 0.061716
C33   C     C_1   0.947549 0.158829 0.836986 -0.039915
C34   C     C_1   0.959385 0.120893 0.875317 -0.211745
H14   H     H_    0.704755 0.149724 0.750424 0.173335
H15   H     H_    0.938901 0.131196 0.726090 0.257580
H16   H     H_    0.649107 0.230862 0.688196 0.073979
H17   H     H_    0.653180 0.247419 0.814031 0.157089
H18   H     H_    0.635998 0.326644 0.747009 0.167602
C35   C     C_3   0.573230 0.694191 0.262421 -0.387773
C36   C     C_3   0.214470 0.706525 0.249415 -0.485894
C37   C     C_3   0.253766 0.753285 0.199945 -0.255634
H19   H     H_    0.624978 0.717039 0.176203 0.172562
H20   H     H_    0.571641 0.643753 0.245710 0.169804
H21   H     H_    0.076436 0.719800 0.269526 0.176486
H22   H     H_    0.199961 0.655597 0.234437 0.182810
H23   H     H_    0.280562 0.721847 0.163727 0.187959
C38   C     C_1   0.479798 0.878538 0.124928 -0.156636
C39   C     C_3   0.380972 0.709084 0.291936 0.321559
C40   C     C_3   0.607176 0.743814 0.215223 -0.325653
C41   C     C_3   0.438647 0.794265 0.210324 0.038165
C42   C     C_3   0.419398 0.830471 0.266520 0.485668
C43   C     C_3   0.386508 0.779989 0.313770 -0.498829
C44   C     C_1   0.466867 0.840721 0.163400 0.079182
C45   C     C_1   0.355834 0.661123 0.337723 -0.017194
C46   C     C_1   0.344056 0.622260 0.375525 -0.257213
H24   H     H_    0.500473 0.782794 0.345774 0.227609
H25   H     H_    0.248420 0.792169 0.334241 0.154258
H26   H     H_    0.695151 0.696030 0.292112 0.184533
H27   H     H_    0.742722 0.769226 0.222943 0.221861
H28   H     H_    0.291690 0.863856 0.264069 0.018715
C47   C     C_R   0.461995 0.160297 0.090041 -0.126625
C48   C     C_R   0.354082 0.339560 0.409866 -0.157818
C49   C     C_R   0.396628 0.276844 0.091076 -0.156630
C50   C     C_R   0.416289 0.218779 0.062641 -0.208745
C51   C     C_R   0.484643 0.159701 0.147844 -0.149831
C52   C     C_R   0.435678 0.217631 0.177889 0.003926
C53   C     C_R   0.405558 0.276902 0.148115 0.201817
C54   C     C_R   0.408601 0.219195 0.235971 0.052810
C55   C     C_R   0.400425 0.280491 0.263807 0.072695
C56   C     C_R   0.377589 0.337860 0.231908 -0.223694
C57   C     C_R   0.377279 0.335863 0.175359 -0.214032
C58   C     C_R   0.361640 0.162487 0.265720 -0.208714
C59   C     C_R   0.322319 0.164897 0.321050 -0.175693
C60   C     C_R   0.333881 0.223513 0.349512 0.168092
C61   C     C_R   0.387011 0.281950 0.322306 -0.001675
C62   C     C_R   0.285082 0.224239 0.404731 -0.135756
C63   C     C_R   0.286953 0.282179 0.433752 -0.177592
C64   C     C_R   0.416817 0.339180 0.354753 -0.114895
H29   H     H_    0.351629 0.381012 0.152666 0.139221
H30   H     H_    0.240152 0.281910 0.475807 0.144162
H31   H     H_    0.279348 0.120415 0.341631 0.158751
H32   H     H_    0.368097 0.321772 0.068343 0.128411
H33   H     H_    0.400457 0.219714 0.018597 0.112120
H34   H     H_    0.341390 0.384489 0.249745 0.148800
H35   H     H_    0.336597 0.116417 0.245973 0.161101
H36   H     H_    0.238910 0.180078 0.425169 0.146159
O11   O     O_R   0.323590 0.942280 0.056590 -0.597617
O12   O     O_R   0.647030 0.077140 0.045940 -0.590981
O13   O     O_R   0.813570 0.057750 0.943430 -0.600770
C65   C     C_R   0.477017 0.100719 0.056771 1.007430
O14   O     O_R   0.653510 0.943950 0.062820 -0.563389
O15   O     O_R   0.820100 0.923600 0.960440 -0.600260
C66   C     C_R   0.486467 0.923689 0.078696 1.021828
O16   O     O_R   0.317060 0.076430 0.039590 -0.605841
O17   O     O_3   0.483830 0.993520 0.966410 -0.260311
V3    V     V_3+5 0.760140 0.001200 0.006230 1.236253
O18   O     O_R   0.149560 0.922820 0.954030 -0.563952
C67   C     C_R   0.981443 0.900280 0.941750 1.051537
O19   O     O_R   0.143080 0.056020 0.937150 -0.582840
C68   C     C_R   0.972785 0.075957 0.921289 1.020771
V4    V     V_3+5 0.259690 0.998730 0.993720 1.242955
O20   O     O_3   0.986120 0.006480 0.033580 -0.274950
S1    S     S_3+6 0.059614 0.586363 0.853464 -0.040482
O21   O     O_2   0.238127 0.593396 0.887848 -0.279534
O22   O     O_2   0.895314 0.567545 0.889378 -0.282680
O23   O     O_3   0.097517 0.526993 0.807447 -0.548620
H37   H     H_    0.121534 0.486683 0.829388 0.374187
C69   C     C_2   0.286048 0.180602 0.767238 0.532837
H38   H     H_    0.379483 0.167183 0.801413 -0.006853
O24   O     O_2   0.302233 0.150997 0.724442 -0.499932
S2    S     S_3+6 0.878008 0.189197 0.627037 -0.003943
O25   O     O_2   0.092402 0.180181 0.623889 -0.242803
O26   O     O_2   0.785385 0.123871 0.620286 -0.219219
O27   O     O_3   0.801141 0.239082 0.576102 -0.555154
H39   H     H_    0.849771 0.218562 0.542346 0.372130
C70   C     C_2   0.080782 0.796284 0.186291 0.481963
H40   H     H_    0.026736 0.831256 0.215611 0.084615
O28   O     O_2   0.001309 0.792628 0.141799 -0.585657
S3    S     S_3+6 0.618963 0.882293 0.283742 -0.053312
O29   O     O_2   0.678121 0.922679 0.235450 -0.272018
O30   O     O_2   0.556577 0.927442 0.328559 -0.265330
O31   O     O_3   0.808268 0.836803 0.306219 -0.599535
H41   H     H_    0.909791 0.868704 0.314435 0.371170
C71   C     C_2   0.534164 0.393935 0.333744 0.458149
H42   H     H_    0.646498 0.383902 0.304388 0.039830
O32   O     O_2   0.504229 0.450446 0.347442 -0.604000
C72   C     C_2   0.583125 0.102957 0.175429 0.496165
H43   H     H_    0.670203 0.110895 0.211683 0.054357
O33   O     O_2   0.565644 0.047137 0.159101 -0.567593
S4    S     S_3+6 0.060522 0.914147 0.816776 -0.045072
O34   O     O_2   0.899655 0.964258 0.814543 -0.290553
O35   O     O_2   0.225909 0.942409 0.847986 -0.278942
O36   O     O_3   0.136856 0.899106 0.753105 -0.485446
H44   H     H_    0.248771 0.868808 0.757855 0.341309

loop_
_geom_bond_atom_site_label_1
_geom_bond_atom_site_label_2
_geom_bond_distance
_ccdc_geom_bond_type
C13   C19   1.439225 A    
C24   H11   1.114247 S    
C30   C31   1.561666 S    
C38   C66   1.456903 S    
C47   C51   1.423885 A    
C4    C6    1.477678 S    
C62   H36   1.084080 S    
C55   C56   1.409314 A    
C41   C44   1.501894 S    
C1    O6    1.300019 A    
C3    C26   1.448687 S    
C5    C8    1.393212 A    
S3    O29   1.502535 D    
O16   V4    1.997909 S    
C23   H17   1.112522 S    
O18   C67   1.298354 A    
C42   C43   1.565848 S    
H19   C40   1.112920 S    
O14   V3    1.966934 S    
S2    O26   1.503173 D    
C14   C15   1.398148 A    
O13   C68   1.297514 A    
S4    O34   1.502844 D    
C37   H23   1.115589 S    
O14   C66   1.302796 A    
O36   H44   0.990803 S    
O5    C3    1.297126 A    
C18   C19   1.420629 A    
C28   H18   1.113411 S    
C23   C27   1.554805 S    
C54   C58   1.409402 A    
V2    O10   2.151510 S    
C36   C39   1.552045 S    
C30   H16   1.113877 S    
C16   H7    1.078569 S    
C21   H2    1.083730 S    
H9    C28   1.113296 S    
C22   H1    1.077589 S    
O15   V3    1.991243 S    
C64   C71   1.488938 S    
C51   C72   1.489513 S    
C52   C53   1.419932 A    
C48   C64   1.423851 A    
O11   C66   1.299636 A    
O8    V2    1.965862 S    
C43   H25   1.113142 S    
C23   C28   1.556579 S    
C1    C46   1.458100 S    
C7    C8    1.388799 A    
O23   H37   0.990621 S    
C12   C13   1.430416 A    
C26   C32   1.214397 T    
C11   C15   1.416738 A    
C72   O33   1.220236 D    
O7    V1    2.155520 S    
S1    O23   1.682902 S    
C57   H29   1.084333 S    
C24   C27   1.563679 S    
C36   C37   1.566850 S    
O13   V3    1.959733 S    
C39   C45   1.497503 S    
O9    C4    1.296442 A    
C49   C53   1.398877 A    
C62   C63   1.387014 A    
C60   C62   1.398870 A    
S3    O30   1.502968 D    
C40   H27   1.100439 S    
C24   C69   1.514087 S    
S2    O27   1.681660 S    
O27   H39   0.990589 S    
C49   C50   1.386841 A    
C51   C52   1.437176 A    
O4    C2    1.296674 A    
C8    H5    1.084117 S    
C35   H26   1.113240 S    
C69   O24   1.220693 D    
C13   C14   1.407120 A    
C28   C29   1.554458 S    
C56   H34   1.078609 S    
C5    C9    1.422596 A    
C35   C39   1.553123 S    
C65   O16   1.294815 A    
C34   C68   1.448697 S    
C7    C11   1.408413 A    
C40   C41   1.549562 S    
C36   H22   1.112882 S    
C17   C18   1.395194 A    
C7    H4    1.079441 S    
C47   C65   1.474182 S    
C43   H24   1.112133 S    
C5    C67   1.481426 S    
O18   V4    1.999172 S    
C2    C48   1.475467 S    
C25   H12   1.113550 S    
C56   C57   1.387017 A    
C52   C54   1.438509 A    
C38   C44   1.219238 T    
C19   C22   1.428409 A    
C31   H15   1.110562 S    
O15   C67   1.300153 A    
C41   C42   1.575028 S    
C6    C22   1.408938 A    
O17   V3    2.155598 S    
O3    C4    1.301064 A    
C27   C33   1.491157 S    
O1    V2    1.994672 S    
C42   H28   1.110670 S    
O6    V2    1.959104 S    
O9    V2    1.999128 S    
O19   C68   1.299923 A    
C15   S1    1.776961 S    
C71   O32   1.220419 D    
V4    O20   2.151529 S    
O2    V1    1.967005 S    
C53   C57   1.394545 A    
C48   C63   1.396665 A    
C24   C25   1.565117 S    
S1    O21   1.503374 D    
C29   C30   1.569255 S    
C16   C17   1.387327 A    
C58   H35   1.078798 S    
C10   C11   1.423022 A    
S4    O36   1.682560 S    
C12   C16   1.406083 A    
C45   C46   1.219616 T    
C30   S2    1.806514 S    
C25   C29   1.557120 S    
O5    V1    1.959567 S    
O12   C65   1.299261 A    
O8    C3    1.300252 A    
O17   V4    1.704661 S    
C69   H38   1.085135 S    
O11   V4    1.959466 S    
C61   C64   1.437327 A    
C59   H31   1.084348 S    
S2    O25   1.501889 D    
C35   C40   1.554712 S    
C59   C60   1.394892 A    
C20   C21   1.390755 A    
S4    O35   1.502352 D    
C33   C34   1.214147 T    
O4    V1    1.992706 S    
O3    V1    1.991118 S    
V1    O10   1.708322 S    
C18   C20   1.402423 A    
C14   H6    1.074279 S    
C36   H21   1.113741 S    
C42   S3    1.810578 S    
C25   H13   1.108118 S    
C35   H20   1.112867 S    
O2    C1    1.302860 A    
C49   H32   1.084060 S    
C60   C61   1.419785 A    
C9    S4    1.790985 S    
C63   H30   1.084158 S    
C10   C12   1.433401 A    
O31   H41   0.990522 S    
V3    O20   1.708132 S    
C54   C55   1.432309 A    
C6    C21   1.396392 A    
O12   V3    1.992848 S    
C27   C31   1.554225 S    
C31   H14   1.111972 S    
S3    O31   1.682809 S    
C58   C59   1.387343 A    
C39   C43   1.550377 S    
C47   C50   1.395866 A    
C17   H3    1.084161 S    
O19   V4    1.965929 S    
C20   H8    1.083979 S    
C70   H40   1.083077 S    
O1    C2    1.298120 A    
C37   C41   1.567666 S    
C50   H33   1.084021 S    
C72   H43   1.085390 S    
C9    C10   1.440754 A    
C37   C70   1.509572 S    
C23   H10   1.112934 S    
C70   O28   1.221140 D    
C55   C61   1.438392 A    
O7    V2    1.705699 S    
C71   H42   1.085432 S    
S1    O22   1.503274 D    
C29   C32   1.489532 S    
