data_str_m9_o11_o16_f0_sra.sym.113
_audit_creation_date              2012-12-11T14:17:27-0500
_audit_creation_method            fapswitch 2.2
_symmetry_space_group_name_H-M    P1
_symmetry_Int_Tables_number       1
_space_group_crystal_system       triclinic
_cell_length_a                    6.945374
_cell_length_b                    13.629015
_cell_length_c                    20.429302
_cell_angle_alpha                 102.209975
_cell_angle_beta                  90.134221
_cell_angle_gamma                 90.502598
_cell_volume                      1889.97457844

loop_
_atom_site_label
_atom_site_type_symbol
_atom_type_description
_atom_site_fract_x
_atom_site_fract_y
_atom_site_fract_z
_atom_type_partial_charge
O1    O     O_R   0.506860 0.599390 0.449240 -0.520845
O2    O     O_R   0.180220 0.594600 0.586780 -0.550844
O3    O     O_R   0.004500 0.400610 0.550760 -0.538674
C1    C     C_R   0.349132 0.616086 0.613460 0.715286
O4    O     O_R   0.177490 0.611290 0.451970 -0.547401
O5    O     O_R   0.001750 0.417420 0.414990 -0.538994
C2    C     C_R   0.346279 0.637486 0.434878 0.774369
O6    O     O_R   0.509610 0.582580 0.585010 -0.552500
O7    O     O_3   0.337420 0.436370 0.488020 -0.366008
V1    V     V_3+5 0.064680 0.511800 0.502220 1.474770
O8    O     O_R   0.671710 0.405400 0.413220 -0.528078
C3    C     C_R   0.839687 0.384086 0.386529 0.818996
O9    O     O_R   0.674440 0.388710 0.548030 -0.540351
C4    C     C_R   0.842975 0.362194 0.564888 0.767970
V2    V     V_3+5 0.564010 0.488200 0.497780 1.512723
O10   O     O_3   0.841140 0.563630 0.511980 -0.385485
C5    C     C_R   0.873644 0.110169 0.612058 -0.192125
H1    H     H_    0.889963 0.985297 0.695191 0.122568
H2    H     H_    0.883666 0.031716 0.587380 0.148907
C6    C     C_R   0.851374 0.284186 0.604263 -0.108818
C7    C     C_R   0.850027 0.314865 0.928199 -0.165642
C8    C     C_R   0.841105 0.390790 0.892457 -0.120755
C9    C     C_R   0.843389 0.367950 0.822674 -0.158528
C10   C     C_R   0.855016 0.267261 0.786464 0.095157
C11   C     C_R   0.864611 0.189691 0.823572 0.063730
C12   C     C_R   0.857579 0.240963 0.714847 0.082786
C13   C     C_R   0.870377 0.138178 0.682253 0.074976
C14   C     C_R   0.880037 0.063792 0.719773 -0.176014
C15   C     C_R   0.877077 0.088912 0.789226 -0.191173
C16   C     C_R   0.848002 0.312973 0.674212 -0.286887
C17   C     C_R   0.864409 0.182510 0.573062 0.374779
C18   C     C_R   0.861651 0.214629 0.894559 -0.077309
H3    H     H_    0.838022 0.392248 0.695107 0.109510
H4    H     H_    0.847763 0.334315 0.982448 0.109082
H5    H     H_    0.836013 0.431071 0.798811 0.107210
H6    H     H_    0.832190 0.468252 0.919077 0.121478
H7    H     H_    0.884910 0.028256 0.815828 0.113238
C19   C     C_2   0.005281 0.288677 0.285179 -0.107995
C20   C     C_2   0.842014 0.315751 0.319732 -0.236394
H8    H     H_    0.142448 0.317117 0.307318 0.150644
H9    H     H_    0.703336 0.287800 0.299283 0.133525
C21   C     C_2   0.013824 0.220556 0.217575 -0.124008
C22   C     C_2   0.858755 0.183375 0.180335 -0.295442
H10   H     H_    0.156715 0.201136 0.197778 0.136412
H11   H     H_    0.714607 0.202000 0.198575 0.134197
C23   C     C_2   0.204517 0.791086 0.782144 -0.137485
C24   C     C_2   0.363456 0.815630 0.819958 -0.304169
H12   H     H_    0.066882 0.821623 0.801303 0.130461
H13   H     H_    0.501880 0.785424 0.802087 0.127556
C25   C     C_2   0.202964 0.722536 0.714654 -0.130861
C26   C     C_2   0.361161 0.684415 0.680199 -0.302383
H14   H     H_    0.061738 0.703624 0.692380 0.132145
H15   H     H_    0.504271 0.702989 0.700391 0.123803
C27   C     C_R   0.315368 0.886187 0.385678 -0.101213
H16   H     H_    0.288219 0.834544 0.477183 0.128814
H17   H     H_    0.334938 0.012942 0.303917 0.140012
H18   H     H_    0.294778 0.963911 0.410518 0.163392
C28   C     C_R   0.353004 0.713332 0.393845 -0.093767
C29   C     C_R   0.332477 0.684664 0.070430 -0.174636
C30   C     C_R   0.303470 0.609649 0.106091 -0.126697
C31   C     C_R   0.305671 0.632741 0.175862 -0.077297
C32   C     C_R   0.345967 0.731336 0.211948 0.097697
C33   C     C_R   0.357203 0.809183 0.175230 0.059780
C34   C     C_R   0.356760 0.756598 0.283471 0.006045
C35   C     C_R   0.338083 0.859240 0.316078 0.086407
C36   C     C_R   0.342880 0.934461 0.279094 -0.148999
C37   C     C_R   0.360473 0.910059 0.209933 -0.190650
C38   C     C_R   0.386133 0.685285 0.324425 0.295040
C39   C     C_R   0.313739 0.812983 0.423771 -0.228128
C40   C     C_R   0.355643 0.784458 0.104314 -0.073598
H19   H     H_    0.328666 0.665515 0.016176 0.105587
H20   H     H_    0.263331 0.573484 0.200499 0.174325
H21   H     H_    0.274465 0.533387 0.079525 0.126694
H22   H     H_    0.367055 0.971212 0.183696 0.115929
O11   O     O_R   0.203230 0.917310 0.915020 -0.540109
O12   O     O_R   0.535500 0.888690 0.048040 -0.540508
O13   O     O_R   0.711080 0.082610 0.085000 -0.542805
C41   C     C_R   0.366437 0.861975 0.064636 0.690591
O14   O     O_R   0.532630 0.905370 0.913230 -0.548547
O15   O     O_R   0.708190 0.099410 0.949230 -0.538117
C42   C     C_R   0.364285 0.884213 0.886520 0.742022
O16   O     O_R   0.206120 0.900510 0.050790 -0.539076
O17   O     O_3   0.375360 0.063570 0.011990 -0.371629
V3    V     V_3+5 0.648170 0.988200 0.997780 1.422894
O18   O     O_R   0.038240 0.111390 0.951940 -0.541041
C43   C     C_R   0.869763 0.137401 0.934735 0.688993
O19   O     O_R   0.041120 0.094710 0.086750 -0.542615
C44   C     C_R   0.872609 0.115728 0.113524 0.745373
V4    V     V_3+5 0.148810 0.011930 0.002180 1.426840
O20   O     O_3   0.871750 0.936430 0.988010 -0.373368
Cl1   Cl    Cl    0.869963 0.143644 0.485189 -0.686801
Cl2   Cl    Cl    0.497554 0.567721 0.294100 -0.707945

loop_
_geom_bond_atom_site_label_1
_geom_bond_atom_site_label_2
_ccdc_geom_bond_type
O19   C44   A    
C40   C41   S    
O15   V3    S    
O12   V3    S    
C24   H13   S    
C27   C35   A    
C6    C16   A    
O18   C43   A    
C12   C13   A    
O16   V4    S    
V3    O20   S    
C22   C44   S    
C34   C38   A    
C14   C15   A    
O12   C41   A    
C19   C21   S    
O5    C3    A    
O14   V3    S    
V2    O10   S    
C30   H21   S    
C32   C34   A    
C5    H2    S    
O8    V2    S    
O13   C44   A    
C25   H14   S    
C9    C10   A    
O1    V2    S    
O7    V1    S    
C2    C28   S    
C1    O6    A    
C11   C18   A    
C36   C37   A    
C29   C30   A    
O9    C4    A    
C21   H10   S    
C23   H12   S    
C11   C15   A    
O17   V4    S    
C7    C18   A    
C33   C37   A    
C1    C26   S    
C5    C13   A    
C4    C6    S    
H1    C14   S    
C10   C11   A    
C20   H9    S    
O4    C2    A    
O18   V4    S    
O11   C42   A    
C7    H4    S    
O13   V3    S    
C30   C31   A    
C26   H15   S    
O2    C1    A    
C32   C33   A    
C41   O16   A    
O17   V3    S    
C33   C40   A    
C18   C43   S    
C25   C26   D    
C37   H22   S    
C22   H11   S    
H16   C39   S    
O3    C4    A    
C31   H20   S    
C28   C38   A    
C12   C16   A    
O6    V2    S    
C9    H5    S    
O19   V4    S    
C5    C17   A    
C21   C22   D    
O2    V1    S    
O14   C42   A    
C23   C24   D    
C16   H3    S    
O1    C2    A    
C17   Cl1   S    
C10   C12   A    
O5    V1    S    
O8    C3    A    
C28   C39   A    
C8    H6    S    
C23   C25   S    
O15   C43   A    
C34   C35   A    
C3    C20   S    
O9    V2    S    
O7    V2    S    
O4    V1    S    
O3    V1    S    
V1    O10   S    
C19   H8    S    
C19   C20   D    
C27   C39   A    
H17   C36   S    
C38   Cl2   S    
C24   C42   S    
C31   C32   A    
O11   V4    S    
C29   C40   A    
C35   C36   A    
C15   H7    S    
C13   C14   A    
C8    C9    A    
V4    O20   S    
C7    C8    A    
C6    C17   A    
C29   H19   S    
C27   H18   S    
