data_str_m2_o41_o41_f0_fof.sym.62
_audit_creation_date              2012-10-26T17:13:07-0400
_audit_creation_method            fapswitch 2.2
_symmetry_space_group_name_H-M    P1
_symmetry_Int_Tables_number       1
_space_group_crystal_system       triclinic
_cell_length_a                    16.807337
_cell_length_b                    16.807319
_cell_length_c                    16.807323
_cell_angle_alpha                 67.560471
_cell_angle_beta                  67.560371
_cell_angle_gamma                 67.560465
_cell_volume                      3898.22218888

loop_
_atom_site_label
_atom_site_type_symbol
_atom_type_description
_atom_site_fract_x
_atom_site_fract_y
_atom_site_fract_z
_atom_type_partial_charge
C1    C     C_R   0.323100 0.958408 0.448854 0.028050
C2    C     C_R   0.308698 0.430901 0.010050 0.021520
C3    C     C_R   0.545484 0.425197 0.965599 -0.038023
C4    C     C_R   0.033157 0.453144 0.576382 -0.043183
C5    C     C_R   0.965597 0.545485 0.425198 -0.038024
C6    C     C_3   0.276109 0.978928 0.844650 -0.259905
C7    C     C_3   0.691844 0.079428 0.124245 -0.277578
C8    C     C_3   0.978895 0.844658 0.276078 -0.259949
C9    C     C_3   0.079418 0.124246 0.691841 -0.277570
C10   C     C_3   0.844652 0.276091 0.978915 -0.259931
C11   C     C_3   0.124243 0.691837 0.079428 -0.277551
C12   C     C_3   0.273903 0.780239 0.763382 -0.317078
C13   C     C_R   0.991271 0.690622 0.568289 0.026498
C14   C     C_3   0.823326 0.076467 0.249487 -0.314638
C15   C     C_3   0.763383 0.273910 0.780232 -0.317093
C16   C     C_3   0.249488 0.823326 0.076460 -0.314608
C17   C     C_3   0.780224 0.763380 0.273919 -0.317108
C18   C     C_3   0.076459 0.249489 0.823327 -0.314623
C19   C     C_R   0.010050 0.308698 0.430900 0.021519
C20   C     C_R   0.451543 0.992914 0.451196 0.056731
C21   C     C_R   0.550157 0.005414 0.547566 0.056670
C22   C     C_R   0.992913 0.451196 0.451543 0.056731
C23   C     C_R   0.005413 0.547566 0.550157 0.056671
C24   C     C_R   0.451196 0.451543 0.992914 0.056730
C25   C     C_R   0.547567 0.550157 0.005414 0.056670
C26   C     C_R   0.013947 0.831533 0.569692 0.818091
C27   C     C_R   0.677014 0.041736 0.550645 0.029815
C28   C     C_R   0.986459 0.168270 0.430151 0.818114
C29   C     C_R   0.831533 0.569692 0.013946 0.818096
C30   C     C_R   0.168270 0.430151 0.986459 0.818117
C31   C     C_R   0.569692 0.013946 0.831533 0.818098
C32   C     C_R   0.430151 0.986459 0.168270 0.818117
C33   C     C_R   0.435133 0.171606 0.972194 0.810777
C34   C     C_R   0.564782 0.828361 0.027943 0.806964
C35   C     C_R   0.972194 0.435133 0.171606 0.810779
C36   C     C_R   0.027943 0.564782 0.828361 0.806964
C37   C     C_R   0.171606 0.972194 0.435133 0.810776
C38   C     C_R   0.958407 0.448854 0.323100 0.028047
C39   C     C_R   0.828361 0.027943 0.564782 0.806961
C40   C     C_R   0.402147 0.986574 0.403003 0.077223
C41   C     C_R   0.598414 0.012976 0.596219 0.076938
C42   C     C_R   0.986573 0.403004 0.402147 0.077223
C43   C     C_R   0.012976 0.596219 0.598414 0.076938
C44   C     C_R   0.403003 0.402147 0.986573 0.077223
C45   C     C_R   0.596219 0.598413 0.012977 0.076939
C46   C     C_R   0.269161 0.963075 0.398270 -0.117329
C47   C     C_R   0.730740 0.037195 0.601446 -0.119399
C48   C     C_R   0.963074 0.398270 0.269161 -0.117328
C49   C     C_R   0.041736 0.550645 0.677014 0.029819
C50   C     C_R   0.037195 0.601445 0.730740 -0.119399
C51   C     C_R   0.398270 0.269161 0.963074 -0.117330
C52   C     C_R   0.601446 0.730740 0.037195 -0.119399
C53   C     C_R   0.610347 0.011107 0.737354 -0.112990
C54   C     C_R   0.389200 0.989602 0.262221 -0.117001
C55   C     C_R   0.737354 0.610347 0.011107 -0.112991
C56   C     C_R   0.262221 0.389200 0.989602 -0.117000
C57   C     C_R   0.011108 0.737354 0.610347 -0.112990
C58   C     C_R   0.989602 0.262221 0.389200 -0.117000
C59   C     C_R   0.497572 0.950513 0.734770 -0.183938
C60   C     C_R   0.448854 0.323100 0.958407 0.028048
C61   C     C_R   0.498854 0.054444 0.264331 -0.177226
C62   C     C_R   0.950512 0.734770 0.497574 -0.183877
C63   C     C_R   0.054443 0.264331 0.498854 -0.177226
C64   C     C_R   0.734770 0.497572 0.950513 -0.183909
C65   C     C_R   0.264331 0.498854 0.054443 -0.177223
C66   C     C_R   0.300710 0.926973 0.543037 -0.172372
C67   C     C_R   0.698495 0.074921 0.456545 -0.167860
C68   C     C_R   0.543037 0.300711 0.926971 -0.172371
C69   C     C_R   0.456546 0.698496 0.074921 -0.167878
C70   C     C_R   0.926970 0.543038 0.300712 -0.172374
C71   C     C_R   0.550645 0.677014 0.041736 0.029819
C72   C     C_R   0.074920 0.456545 0.698496 -0.167871
C73   C     C_R   0.306660 0.970917 0.306930 -0.259992
C74   C     C_R   0.693190 0.029133 0.692824 -0.268291
C75   C     C_R   0.970917 0.306930 0.306660 -0.259992
C76   C     C_R   0.029134 0.692823 0.693190 -0.268288
C77   C     C_R   0.306930 0.306660 0.970917 -0.259993
C78   C     C_R   0.692823 0.693190 0.029133 -0.268288
C79   C     C_R   0.650003 0.069833 0.407155 -0.078615
C80   C     C_R   0.349956 0.931430 0.591719 -0.064561
C81   C     C_R   0.069831 0.407155 0.650004 -0.078620
C82   C     C_R   0.568289 0.991271 0.690622 0.026520
C83   C     C_R   0.931426 0.591719 0.349958 -0.064546
C84   C     C_R   0.407155 0.650003 0.069832 -0.078622
C85   C     C_R   0.591719 0.349957 0.931428 -0.064553
C86   C     C_R   0.549148 0.060475 0.310944 -0.094045
C87   C     C_R   0.447824 0.944907 0.687699 -0.081385
C88   C     C_R   0.310944 0.549148 0.060475 -0.094047
C89   C     C_R   0.687699 0.447824 0.944906 -0.081384
C90   C     C_R   0.060473 0.310944 0.549149 -0.094047
C91   C     C_R   0.944903 0.687699 0.447827 -0.081385
C92   C     C_R   0.672738 0.102287 0.312577 0.423458
C93   C     C_R   0.430901 0.010050 0.308698 0.021518
C94   C     C_R   0.324035 0.903710 0.686157 0.405490
C95   C     C_R   0.102284 0.312577 0.672740 0.423457
C96   C     C_R   0.903702 0.686158 0.324040 0.405485
C97   C     C_R   0.312577 0.672739 0.102285 0.423455
C98   C     C_R   0.686157 0.324036 0.903706 0.405482
C99   C     C_R   0.621408 0.099264 0.264838 0.409257
C100  C     C_R   0.370195 0.914830 0.733848 0.392500
C101  C     C_R   0.264838 0.621408 0.099264 0.409258
C102  C     C_R   0.733848 0.370197 0.914827 0.392503
C103  C     C_R   0.099261 0.264837 0.621409 0.409259
C104  C     C_R   0.690622 0.568288 0.991271 0.026509
C105  C     C_R   0.914821 0.733849 0.370202 0.392504
C106  C     C_R   0.526661 0.027500 0.405011 -0.041103
C107  C     C_R   0.474398 0.971979 0.593530 -0.033765
C108  C     C_R   0.027498 0.405011 0.526661 -0.041103
C109  C     C_R   0.971976 0.593530 0.474399 -0.033779
C110  C     C_R   0.405011 0.526661 0.027499 -0.041103
C111  C     C_R   0.593530 0.474398 0.971978 -0.033773
C112  C     C_R   0.576381 0.033158 0.453145 -0.043187
C113  C     C_R   0.425197 0.965600 0.545484 -0.038025
C114  C     C_R   0.453145 0.576381 0.033158 -0.043182
Cu1   Cu    Cu3+1 0.995180 0.995180 0.424630 0.923788
Cu2   Cu    Cu3+1 0.004820 0.004820 0.575370 0.929351
Cu3   Cu    Cu3+1 0.995180 0.424630 0.995180 0.923776
Cu4   Cu    Cu3+1 0.004820 0.575370 0.004820 0.929345
Cu5   Cu    Cu3+1 0.424630 0.995180 0.995180 0.923763
Cu6   Cu    Cu3+1 0.575370 0.004820 0.004820 0.929355
H1    H     H_    0.269821 0.965250 0.269575 0.190681
H2    H     H_    0.684306 0.010273 0.158779 0.129598
H3    H     H_    0.763005 0.077838 0.106252 0.162870
H4    H     H_    0.673475 0.102271 0.060706 0.208489
H5    H     H_    0.998728 0.819909 0.216683 0.191631
H6    H     H_    0.034437 0.815928 0.308315 0.182339
H7    H     H_    0.968318 0.918101 0.251795 0.140912
H8    H     H_    0.010261 0.158790 0.684310 0.129589
H9    H     H_    0.077834 0.106237 0.763002 0.162876
H10   H     H_    0.102252 0.060716 0.673458 0.208489
H11   H     H_    0.819835 0.216725 0.998813 0.191633
H12   H     H_    0.730132 0.034414 0.730319 0.189579
H13   H     H_    0.815980 0.308372 0.034420 0.182338
H14   H     H_    0.918097 0.251750 0.968321 0.140907
H15   H     H_    0.158792 0.684325 0.010265 0.129574
H16   H     H_    0.106214 0.762996 0.077862 0.162878
H17   H     H_    0.060723 0.673437 0.102254 0.208476
H18   H     H_    0.311978 0.756778 0.813445 0.191925
H19   H     H_    0.313847 0.749395 0.707023 0.147656
H20   H     H_    0.212746 0.756597 0.797182 0.186304
H21   H     H_    0.818597 0.023135 0.228964 0.159500
H22   H     H_    0.849111 0.045142 0.309324 0.187421
H23   H     H_    0.965250 0.269575 0.269820 0.190680
H24   H     H_    0.873358 0.108651 0.194177 0.167163
H25   H     H_    0.813448 0.311984 0.756774 0.191928
H26   H     H_    0.707025 0.313858 0.749388 0.147664
H27   H     H_    0.797182 0.212755 0.756588 0.186305
H28   H     H_    0.228917 0.818600 0.023159 0.159498
H29   H     H_    0.309340 0.849089 0.045095 0.187423
H30   H     H_    0.194210 0.873374 0.108650 0.167169
H31   H     H_    0.756767 0.813445 0.311993 0.191932
H32   H     H_    0.749382 0.707021 0.313868 0.147670
H33   H     H_    0.756577 0.797179 0.212766 0.186308
H34   H     H_    0.034416 0.730319 0.730132 0.189578
H35   H     H_    0.023142 0.228942 0.818600 0.159503
H36   H     H_    0.045114 0.309333 0.849101 0.187424
H37   H     H_    0.108645 0.194195 0.873368 0.167165
H38   H     H_    0.482219 0.919163 0.805923 0.211359
H39   H     H_    0.511410 0.087199 0.193450 0.208408
H40   H     H_    0.919163 0.805923 0.482220 0.211373
H41   H     H_    0.087199 0.193451 0.511409 0.208405
H42   H     H_    0.805923 0.482219 0.919164 0.211366
H43   H     H_    0.193450 0.511410 0.087199 0.208402
H44   H     H_    0.246725 0.895807 0.579179 0.200694
H45   H     H_    0.269575 0.269820 0.965250 0.190680
H46   H     H_    0.750400 0.108915 0.421780 0.193668
H47   H     H_    0.579178 0.246726 0.895805 0.200695
H48   H     H_    0.421780 0.750400 0.108914 0.193677
H49   H     H_    0.895804 0.579179 0.246726 0.200697
H50   H     H_    0.108914 0.421779 0.750400 0.193673
H51   H     H_    0.730319 0.730132 0.034415 0.189579
H52   H     H_    0.216767 0.998887 0.819774 0.191636
H53   H     H_    0.308432 0.034399 0.816033 0.182332
H54   H     H_    0.251719 0.968315 0.918099 0.140903
O1    O     O_R   0.124540 0.978640 0.385460 -0.583402
O2    O     O_R   0.124540 0.385460 0.978640 -0.588158
O3    O     O_R   0.021360 0.875460 0.614540 -0.583299
O4    O     O_R   0.978640 0.124540 0.385460 -0.588162
O5    O     O_R   0.013780 0.867370 0.487190 -0.593577
O6    O     O_R   0.986220 0.132630 0.512810 -0.603863
O7    O     O_R   0.867370 0.487190 0.013780 -0.593592
O8    O     O_R   0.132630 0.512810 0.986220 -0.603863
O9    O     O_R   0.487190 0.013780 0.867370 -0.593607
O10   O     O_R   0.512810 0.986220 0.132630 -0.603860
O11   O     O_R   0.512810 0.132630 0.986220 -0.594533
O12   O     O_R   0.875460 0.021360 0.614540 -0.584726
O13   O     O_R   0.487190 0.867370 0.013780 -0.599847
O14   O     O_R   0.986220 0.512810 0.132630 -0.594542
O15   O     O_R   0.013780 0.487190 0.867370 -0.599847
O16   O     O_R   0.132630 0.986220 0.512810 -0.594538
O17   O     O_R   0.867370 0.013780 0.487190 -0.599847
O18   O     O_3   0.337205 0.898629 0.825917 -0.595535
O19   O     O_3   0.637211 0.142119 0.173890 -0.555070
O20   O     O_3   0.898616 0.825918 0.337220 -0.595541
O21   O     O_3   0.142112 0.173889 0.637216 -0.555076
O22   O     O_3   0.825917 0.337210 0.898626 -0.595539
O23   O     O_R   0.978640 0.385460 0.124540 -0.583405
O24   O     O_3   0.173890 0.637212 0.142119 -0.555069
O25   O     O_3   0.247770 0.874512 0.732217 -0.581303
O26   O     O_3   0.741326 0.143029 0.265815 -0.557815
O27   O     O_3   0.732217 0.247773 0.874505 -0.581322
O28   O     O_3   0.265816 0.741329 0.143025 -0.557817
O29   O     O_3   0.874497 0.732217 0.247779 -0.581333
O30   O     O_3   0.143023 0.265815 0.741329 -0.557818
O31   O     O_R   0.021360 0.614540 0.875460 -0.584726
O32   O     O_R   0.385460 0.124540 0.978640 -0.583408
O33   O     O_R   0.614540 0.875460 0.021360 -0.584724
O34   O     O_R   0.614540 0.021360 0.875460 -0.583295
O35   O     O_R   0.385460 0.978640 0.124540 -0.588155
O36   O     O_R   0.875460 0.614540 0.021360 -0.583296

loop_
_geom_bond_atom_site_label_1
_geom_bond_atom_site_label_2
_ccdc_geom_bond_type
C89   C111  A    
C96   C105  A    
C38   C70   A    
C74   H12   S    
C89   C102  A    
C3    C85   A    
C91   C105  A    
C98   O27   S    
C53   C74   A    
C10   H13   S    
C7    H4    S    
Cu3   O15   S    
C2    C65   A    
C17   H33   S    
Cu6   O11   S    
C14   H22   S    
C88   C101  A    
C66   C80   A    
C25   C111  A    
C18   H36   S    
C29   O36   A    
C22   C108  A    
C106  C112  A    
C26   O5    A    
C4    C108  A    
C29   O7    A    
C79   C112  A    
C96   O29   S    
C84   C97   A    
C57   C76   A    
C70   H49   S    
C38   C42   A    
C50   C76   A    
C61   H39   S    
C20   C113  A    
C81   C95   A    
C59   H38   S    
C61   C93   A    
C1    C46   A    
C13   C57   A    
C83   C96   A    
C77   H45   S    
Cu1   Cu2   S    
C23   C43   A    
C69   C71   A    
C94   O25   S    
C30   O2    A    
C17   O29   S    
C10   H11   S    
C107  C113  A    
C54   C93   A    
Cu2   O16   S    
C85   C98   A    
C1    C40   A    
C16   H30   S    
C39   O12   A    
Cu1   O17   S    
C4    C81   A    
C36   C50   S    
C19   C63   A    
C35   O14   A    
C49   C72   A    
Cu1   O1    S    
C12   H20   S    
C8    O20   S    
C16   H29   S    
C7    O19   S    
C97   O28   S    
C38   C48   A    
C72   C81   A    
C37   C46   S    
C19   C42   A    
C88   C110  A    
C37   O16   A    
C14   H21   S    
Cu2   O3    S    
C59   C82   A    
C68   C85   A    
C30   O8    A    
C48   C75   A    
C3    C24   A    
C17   H31   S    
C103  O21   S    
C64   C89   A    
C52   C78   A    
C35   C48   S    
C32   C54   S    
C15   O27   S    
C95   C103  A    
C58   C75   A    
C20   C106  A    
Cu4   O8    S    
C19   C58   A    
C105  O20   S    
C23   C109  A    
C14   H24   S    
C33   O32   A    
Cu5   O35   S    
C9    H8    S    
C5    C22   A    
C36   O15   A    
Cu6   O34   S    
C69   C84   A    
C100  O18   S    
Cu4   O31   S    
C24   C110  A    
C92   O26   S    
C64   H42   S    
C2    C44   A    
C15   H25   S    
C55   C78   A    
Cu4   O14   S    
C101  O24   S    
C43   C49   A    
C6    H52   S    
C29   C55   S    
C95   O30   S    
C9    H10   S    
Cu2   O12   S    
C55   C104  A    
C56   C77   A    
C53   C82   A    
C16   O28   S    
C72   H50   S    
C25   C114  A    
C51   C77   A    
C86   C99   A    
C45   C104  A    
C10   O22   S    
C37   O1    A    
C54   C73   A    
C39   O17   A    
C27   C41   A    
C8    H7    S    
C40   C93   A    
C94   C100  A    
C86   C106  A    
C97   C101  A    
C62   C91   A    
C65   H43   S    
C1    C66   A    
C12   H19   S    
C66   H44   S    
Cu5   O32   S    
Cu5   O9    S    
C31   C53   S    
C70   C83   A    
C28   O6    A    
C79   C92   A    
C21   C107  A    
C75   H23   S    
C21   C41   A    
C13   C62   A    
Cu3   O2    S    
C8    H6    S    
C73   H1    S    
Cu2   O6    S    
C18   H37   S    
C24   C44   A    
C62   H40   S    
C9    H9    S    
C17   H32   S    
C7    H2    S    
C80   C94   A    
C25   C45   A    
C13   C43   A    
C21   C112  A    
Cu3   O23   S    
C45   C71   A    
C35   O23   A    
C65   C88   A    
C39   C47   S    
C87   C100  A    
C26   O3    A    
C27   C47   A    
C63   H41   S    
C110  C114  A    
C84   C114  A    
C31   O9    A    
Cu6   O33   S    
C32   O10   A    
C64   C104  A    
C11   H15   S    
C10   H14   S    
C47   C74   A    
C7    H3    S    
C102  O22   S    
C15   H26   S    
C18   O30   S    
Cu5   Cu6   S    
C9    O21   S    
C5    C83   A    
C30   C56   S    
C6    H53   S    
C28   C58   S    
C34   O33   A    
C33   C51   S    
C6    H54   S    
C99   O19   S    
C34   C52   S    
C16   H28   S    
Cu4   O36   S    
C91   C109  A    
C11   H17   S    
C69   H48   S    
C90   C108  A    
C31   O34   A    
C52   C71   A    
C2    C56   A    
C11   H16   S    
C15   H27   S    
C32   O35   A    
C22   C42   A    
C14   O26   S    
C44   C60   A    
C20   C40   A    
C41   C82   A    
C63   C90   A    
C76   H34   S    
C78   H51   S    
C12   O25   S    
Cu3   O7    S    
C12   H18   S    
C36   O31   A    
C46   C73   A    
C34   O13   A    
C26   C57   S    
C59   C87   A    
C90   C103  A    
C11   O24   S    
Cu1   O4    S    
C27   C67   A    
C61   C86   A    
C98   C102  A    
C3    C111  A    
C68   H47   S    
C8    H5    S    
C87   C107  A    
C80   C113  A    
C60   C68   A    
C49   C50   A    
C6    O18   S    
Cu6   O10   S    
C33   O11   A    
C51   C60   A    
C5    C109  A    
Cu5   O13   S    
C4    C23   A    
Cu3   Cu4   S    
C28   O4    A    
C67   C79   A    
Cu1   O5    S    
C18   H35   S    
C92   C99   A    
C67   H46   S    
