data_str_m9_o17_o18_f0_sra.sym.57
_audit_creation_date              2012-12-11T15:18:37-0500
_audit_creation_method            fapswitch 2.2
_symmetry_space_group_name_H-M    P1
_symmetry_Int_Tables_number       1
_space_group_crystal_system       triclinic
_cell_length_a                    7.048734
_cell_length_b                    19.830166
_cell_length_c                    23.789519
_cell_angle_alpha                 93.277041
_cell_angle_beta                  90.322634
_cell_angle_gamma                 89.257869
_cell_volume                      3319.48530743

loop_
_atom_site_label
_atom_site_type_symbol
_atom_type_description
_atom_site_fract_x
_atom_site_fract_y
_atom_site_fract_z
_atom_type_partial_charge
O1    O     O_R   0.620100 0.812200 0.810870 -0.534115
O2    O     O_R   0.379900 0.187800 0.189130 -0.535957
O3    O     O_R   0.296960 0.671650 0.794750 -0.551239
O4    O     O_R   0.703040 0.328350 0.205250 -0.541342
O5    O     O_R   0.120160 0.687800 0.689130 -0.540590
O6    O     O_R   0.879840 0.312200 0.310870 -0.543022
C1    C     C_R   0.465328 0.642697 0.798925 0.679974
C2    C     C_R   0.533657 0.355327 0.197203 0.682921
O7    O     O_R   0.290810 0.810670 0.817290 -0.541342
O8    O     O_R   0.709190 0.189330 0.182710 -0.540869
O9    O     O_R   0.113980 0.827820 0.711840 -0.527918
O10   O     O_R   0.886020 0.172180 0.288160 -0.529028
C3    C     C_R   0.459142 0.831324 0.834407 0.737780
C4    C     C_R   0.540864 0.168613 0.165631 0.739720
O11   O     O_R   0.626290 0.672180 0.788160 -0.534831
O12   O     O_R   0.373710 0.327820 0.211840 -0.544017
O13   O     O_3   0.451520 0.755460 0.715370 -0.368185
O14   O     O_3   0.548480 0.244540 0.284630 -0.367546
V1    V     V_3+5 0.179200 0.748980 0.756420 1.443914
V2    V     V_3+5 0.820800 0.251020 0.243580 1.448522
O15   O     O_R   0.783880 0.828350 0.705250 -0.537308
O16   O     O_R   0.216120 0.171650 0.294750 -0.537743
C5    C     C_R   0.951462 0.853080 0.695639 0.730436
C6    C     C_R   0.048616 0.146906 0.304350 0.723762
O17   O     O_R   0.790030 0.689320 0.682700 -0.549264
O18   O     O_R   0.209970 0.310680 0.317300 -0.546040
C7    C     C_R   0.958911 0.664129 0.670071 0.701914
C8    C     C_R   0.040599 0.332162 0.333605 0.699878
V3    V     V_3+5 0.678400 0.751010 0.743570 1.449725
V4    V     V_3+5 0.321600 0.248990 0.256430 1.442887
O19   O     O_3   0.955950 0.744540 0.784620 -0.374601
O20   O     O_3   0.044050 0.255460 0.215380 -0.373755
C9    C     C_R   0.054029 0.453514 0.376750 -0.038025
C10   C     C_R   0.965757 0.539574 0.633604 -0.036674
C11   C     C_R   0.031140 0.382539 0.382745 -0.165779
C12   C     C_R   0.976843 0.610716 0.624220 -0.169205
C13   C     C_R   0.988871 0.358922 0.436190 -0.103944
C14   C     C_R   0.027020 0.632839 0.571281 -0.092475
C15   C     C_R   0.989107 0.403212 0.484926 0.055830
C16   C     C_R   0.040513 0.587133 0.524409 0.054975
C17   C     C_R   0.018403 0.472638 0.480431 0.031513
C18   C     C_R   0.009039 0.517779 0.529833 0.029005
C19   C     C_R   0.055862 0.497458 0.426770 0.075760
C20   C     C_R   0.977478 0.493082 0.584288 0.086633
C21   C     C_R   0.967643 0.378970 0.538720 -0.191029
C22   C     C_R   0.088569 0.609878 0.471761 -0.193718
C23   C     C_R   0.969245 0.422256 0.586804 -0.203143
C24   C     C_R   0.098295 0.566150 0.424844 -0.209277
H1    H     H_    0.958480 0.325348 0.544552 0.137610
H2    H     H_    0.118662 0.662367 0.465758 0.139640
H3    H     H_    0.978598 0.397111 0.625297 0.124015
H4    H     H_    0.138081 0.588405 0.386840 0.133793
C25   C     C_R   0.959288 0.916000 0.665023 -0.098259
C26   C     C_R   0.041338 0.083953 0.334940 -0.096406
C27   C     C_R   0.009472 0.036692 0.664633 -0.192651
C28   C     C_R   0.992906 0.963174 0.335338 -0.194541
C29   C     C_R   0.984184 0.978805 0.694362 -0.042053
C30   C     C_R   0.016347 0.021156 0.305605 -0.041278
C31   C     C_R   0.952100 0.912803 0.605821 -0.201165
C32   C     C_R   0.050946 0.087028 0.394116 -0.199380
C33   C     C_R   0.982066 0.970891 0.574613 0.082919
C34   C     C_R   0.022322 0.028864 0.425349 0.083783
C35   C     C_R   0.011585 0.033128 0.605546 0.127057
C36   C     C_R   0.992529 0.966640 0.394426 0.126654
C37   C     C_R   0.985908 0.969393 0.514085 0.058194
C38   C     C_R   0.019636 0.030286 0.485886 0.058870
C39   C     C_R   0.048162 0.090555 0.519177 -0.168330
C40   C     C_R   0.958413 0.909047 0.480804 -0.171905
C41   C     C_R   0.043403 0.091780 0.577548 -0.193030
C42   C     C_R   0.962352 0.907883 0.422432 -0.191741
H5    H     H_    0.066092 0.139443 0.601139 0.121489
H6    H     H_    0.940121 0.860190 0.398845 0.123634
H7    H     H_    0.079857 0.135613 0.414285 0.134906
H8    H     H_    0.924054 0.864178 0.585603 0.137305
H9    H     H_    0.029301 0.084875 0.687793 0.113366
H10   H     H_    0.973155 0.914988 0.312183 0.115030
H11   H     H_    0.075240 0.138181 0.501476 0.145058
H12   H     H_    0.932974 0.861292 0.498506 0.145228
C43   C     C_R   0.477761 0.576385 0.827076 -0.152005
C44   C     C_R   0.523735 0.419539 0.165181 -0.158918
C45   C     C_R   0.461498 0.451523 0.830876 -0.014847
C46   C     C_R   0.488707 0.543335 0.157300 -0.023027
C47   C     C_R   0.453740 0.510779 0.797440 -0.016382
C48   C     C_R   0.518280 0.486867 0.192885 -0.032066
C49   C     C_R   0.503274 0.580719 0.886350 -0.116016
C50   C     C_R   0.514490 0.411442 0.105067 -0.105251
C51   C     C_R   0.497716 0.522172 0.918111 0.013000
C52   C     C_R   0.506454 0.468299 0.070464 0.015619
C53   C     C_R   0.511339 0.459036 0.888861 0.054152
C54   C     C_R   0.467925 0.532142 0.097988 0.063260
C55   C     C_R   0.479502 0.523499 0.978334 0.072088
C56   C     C_R   0.523842 0.465233 0.009264 0.067678
C57   C     C_R   0.590299 0.407800 0.977360 -0.176882
C58   C     C_R   0.400529 0.579691 0.007617 -0.179905
C59   C     C_R   0.571548 0.403186 0.918849 -0.192024
C60   C     C_R   0.402714 0.585178 0.065382 -0.175467
H13   H     H_    0.608547 0.355622 0.896679 0.142772
H14   H     H_    0.347607 0.632300 0.083811 0.152457
H15   H     H_    0.656550 0.365467 0.996350 0.148062
H16   H     H_    0.333484 0.620406 0.986273 0.138895
C61   C     C_R   0.684235 0.075759 0.102108 -0.213638
C62   C     C_R   0.315783 0.924167 0.897930 -0.211840
C63   C     C_R   0.530802 0.119772 0.115706 -0.080329
C64   C     C_R   0.469153 0.880109 0.884365 -0.086789
C65   C     C_R   0.365640 0.115876 0.082012 -0.155837
C66   C     C_R   0.634187 0.883917 0.918117 -0.163336
C67   C     C_R   0.353592 0.069083 0.035419 0.086764
C68   C     C_R   0.646257 0.930725 0.964702 0.087976
C69   C     C_R   0.506296 0.024026 0.023108 0.055358
C70   C     C_R   0.493585 0.975803 0.976999 0.056168
C71   C     C_R   0.671650 0.027088 0.056839 0.089967
C72   C     C_R   0.328286 0.972778 0.943242 0.090116
C73   C     C_R   0.191310 0.066402 0.000911 -0.188694
C74   C     C_R   0.808546 0.933416 0.999208 -0.189919
C75   C     C_R   0.178927 0.018798 0.955234 -0.171826
C76   C     C_R   0.820994 0.981061 0.044856 -0.173834
H17   H     H_    0.812170 0.078589 0.127432 0.158326
H18   H     H_    0.187969 0.921428 0.872541 0.158210
H19   H     H_    0.246978 0.149824 0.091677 0.137383
H20   H     H_    0.752786 0.849933 0.908471 0.140037
H21   H     H_    0.073058 0.100852 0.009483 0.139315
H22   H     H_    0.926782 0.898957 0.990645 0.139202
H23   H     H_    0.051673 0.017737 0.929457 0.161098
H24   H     H_    0.948278 0.982141 0.070619 0.160684
C77   C     C_R   0.045530 0.482239 0.318863 0.074726
C78   C     C_R   0.127295 0.448222 0.271450 -0.131499
C79   C     C_R   0.086198 0.466393 0.216968 -0.109445
C80   C     C_R   0.985257 0.525309 0.208864 -0.121262
C81   C     C_R   0.921784 0.565035 0.255427 -0.139582
C82   C     C_R   0.941334 0.541830 0.309241 -0.116904
H25   H     H_    0.231751 0.409986 0.276303 0.147500
H26   H     H_    0.140802 0.436679 0.181001 0.131089
H27   H     H_    0.962388 0.540291 0.166478 0.109490
H28   H     H_    0.848523 0.612238 0.250663 0.128900
H29   H     H_    0.867137 0.569884 0.342707 0.133330
C83   C     C_R   0.950215 0.516765 0.694374 0.068774
C84   C     C_R   0.037396 0.554449 0.739398 -0.132265
C85   C     C_R   0.013524 0.540517 0.795643 -0.109884
C86   C     C_R   0.929140 0.481162 0.808635 -0.094805
C87   C     C_R   0.862718 0.437819 0.765450 -0.123900
C88   C     C_R   0.854868 0.458119 0.709820 -0.140024
H30   H     H_    0.141636 0.590576 0.731473 0.142078
H31   H     H_    0.075537 0.572636 0.828919 0.129468
H32   H     H_    0.920636 0.467741 0.851954 0.113244
H33   H     H_    0.815951 0.389121 0.776405 0.113107
H34   H     H_    0.767984 0.428729 0.680440 0.128511
C89   C     C_1   0.481195 0.343806 0.080766 0.274503
N1    N     N_1   0.453539 0.289699 0.061872 -0.377302
C90   C     C_1   0.564765 0.644712 0.912874 0.294107
N2    N     N_1   0.614235 0.695701 0.933743 -0.371120
C91   C     C_R   0.528994 0.497076 0.257714 0.082961
C92   C     C_R   0.614965 0.448944 0.291850 -0.135403
C93   C     C_R   0.602731 0.453714 0.350638 -0.119430
C94   C     C_R   0.537522 0.513006 0.377951 -0.096016
C95   C     C_R   0.471066 0.564807 0.346069 -0.153035
C96   C     C_R   0.449030 0.554060 0.287923 -0.099497
H35   H     H_    0.707349 0.410588 0.274861 0.146700
H36   H     H_    0.658892 0.413750 0.375095 0.131439
H37   H     H_    0.542733 0.519391 0.423427 0.122641
H38   H     H_    0.427742 0.612520 0.366606 0.113232
H39   H     H_    0.358632 0.589296 0.269183 0.135033
C97   C     C_R   0.437193 0.504113 0.732923 0.067673
C98   C     C_R   0.522846 0.550540 0.698040 -0.139412
C99   C     C_R   0.516517 0.542486 0.639247 -0.113731
C100  C     C_R   0.444352 0.483778 0.613386 -0.081797
C101  C     C_R   0.361919 0.436603 0.646226 -0.140654
C102  C     C_R   0.341746 0.450162 0.704142 -0.125755
H40   H     H_    0.611656 0.589797 0.714728 0.136283
H41   H     H_    0.580956 0.579464 0.613891 0.125131
H42   H     H_    0.451235 0.475038 0.568104 0.119168
H43   H     H_    0.306801 0.390447 0.626552 0.122142
H44   H     H_    0.244474 0.419058 0.725098 0.149322
C103  C     C_R   0.377774 0.383538 0.813595 0.077613
C104  C     C_R   0.221440 0.361941 0.844477 -0.110180
C105  C     C_R   0.142133 0.298418 0.833049 -0.120433
C106  C     C_R   0.218959 0.254526 0.791091 -0.088157
C107  C     C_R   0.375136 0.274177 0.760561 -0.122622
C108  C     C_R   0.455130 0.337721 0.771864 -0.166883
H45   H     H_    0.162130 0.394255 0.878314 0.111458
H46   H     H_    0.021543 0.283136 0.857033 0.114829
H47   H     H_    0.157183 0.205363 0.782110 0.112128
H48   H     H_    0.432928 0.240446 0.727400 0.112993
H49   H     H_    0.565531 0.351875 0.744317 0.112304
C109  C     C_R   0.497777 0.616682 0.177517 0.089195
C110  C     C_R   0.329887 0.654421 0.189569 -0.190044
C111  C     C_R   0.335205 0.724209 0.201446 -0.115726
C112  C     C_R   0.505970 0.758370 0.197675 -0.078076
C113  C     C_R   0.669507 0.723022 0.180109 -0.122700
C114  C     C_R   0.663569 0.653197 0.168291 -0.128699
H50   H     H_    0.194737 0.629783 0.189596 0.117606
H51   H     H_    0.206095 0.751929 0.212422 0.109447
H52   H     H_    0.510129 0.812504 0.206409 0.113741
H53   H     H_    0.799967 0.749916 0.174277 0.111878
H54   H     H_    0.787546 0.628219 0.150393 0.102351
C115  C     C_1   0.925541 0.290075 0.440093 0.271682
N3    N     N_1   0.870921 0.235739 0.443450 -0.393675
C116  C     C_1   0.076853 0.703191 0.565886 0.286950
N4    N     N_1   0.119799 0.758688 0.561396 -0.398723
C117  C     C_1   0.019988 0.014619 0.244879 0.274600
N5    N     N_1   0.024297 0.009030 0.196234 -0.395532
C118  C     C_1   0.979261 0.985399 0.755080 0.276468
N6    N     N_1   0.973990 0.991012 0.803717 -0.392348

loop_
_geom_bond_atom_site_label_1
_geom_bond_atom_site_label_2
_ccdc_geom_bond_type
C14   C16   A    
C84   H30   S    
C100  C101  A    
C28   H10   S    
C51   C55   A    
O13   V3    S    
C17   C18   A    
C62   C72   A    
C98   C99   A    
C39   H11   S    
C44   C48   A    
V1    O19   S    
C80   C81   A    
C64   C66   A    
C25   C31   A    
C110  H50   S    
C15   C17   A    
C26   C32   A    
C103  C104  A    
C16   C22   A    
C65   C67   A    
O9    V1    S    
C78   C79   A    
C13   C115  S    
C99   C100  A    
C11   C13   A    
C97   C98   A    
C24   H4    S    
O3    C1    A    
C85   H31   S    
C69   C71   A    
V2    O20   S    
C104  C105  A    
C50   C52   A    
C6    C26   S    
C107  H48   S    
C46   C109  S    
C32   H7    S    
C93   H36   S    
C109  C110  A    
C32   C34   A    
C118  N6    T    
C68   C74   A    
C111  H51   S    
C41   H5    S    
O7    C3    A    
C79   H26   S    
C67   C73   A    
C46   C48   A    
C34   C36   A    
C89   N1    T    
O13   V1    S    
O5    C7    A    
C103  C108  A    
C51   C53   A    
C114  H54   S    
O7    V1    S    
O6    C8    A    
C35   C41   A    
C8    C11   S    
O8    V2    S    
C43   C47   A    
C27   C35   A    
C44   C50   A    
C91   C92   A    
C28   C36   A    
O3    V1    S    
C71   C76   A    
O14   V4    S    
C10   C83   S    
C28   C30   A    
C76   H24   S    
C19   C24   A    
C57   H15   S    
O14   V2    S    
C108  H49   S    
C62   H18   S    
C20   C23   A    
O4    C2    A    
C15   C21   A    
C27   H9    S    
C21   C23   A    
C38   C39   A    
C101  H43   S    
C2    O12   A    
C50   C89   S    
O17   V3    S    
C67   C69   A    
C99   H41   S    
C18   C20   A    
C77   C82   A    
C9    C77   S    
C45   C47   A    
O11   V3    S    
C70   C72   A    
C49   C51   A    
C40   H12   S    
C106  H47   S    
C22   C24   A    
C30   C117  S    
C31   C33   A    
C75   H23   S    
C34   C38   A    
C9    C19   A    
C52   C56   A    
C10   C20   A    
C87   C88   A    
O8    C4    A    
C55   C56   A    
C25   C29   A    
C23   H3    S    
C1    O11   A    
O15   V3    S    
C42   H6    S    
C115  N3    T    
C60   H14   S    
C113  C114  A    
C39   C41   A    
C45   C103  S    
C53   C59   A    
C58   C60   A    
C80   H27   S    
C83   C88   A    
C86   H32   S    
C16   C18   A    
C105  C106  A    
C21   H1    S    
V3    O19   S    
C37   C40   A    
O10   V2    S    
C33   C35   A    
C112  H52   S    
C14   C116  S    
C63   C65   A    
C91   C96   A    
C3    C64   S    
C62   C64   A    
C31   H8    S    
C94   C95   A    
C102  H44   S    
C88   H34   S    
C107  C108  A    
C40   C42   A    
C106  C107  A    
C47   C97   S    
C52   C54   A    
C96   H39   S    
O18   V4    S    
C36   C42   A    
C27   C29   A    
C77   C78   A    
O16   C6    A    
O1    C3    A    
O1    V3    S    
C79   C80   A    
C43   C49   A    
C1    C43   S    
C81   C82   A    
C26   C30   A    
C100  H42   S    
C22   H2    S    
C92   H35   S    
O16   V4    S    
C66   H20   S    
C95   H38   S    
C17   C19   A    
C83   C84   A    
C87   H33   S    
C113  H53   S    
C74   C76   A    
C86   C87   A    
C59   H13   S    
C54   C60   A    
C105  H46   S    
O5    V1    S    
O4    V2    S    
C7    C12   S    
C61   C71   A    
O6    V2    S    
C84   C85   A    
O10   C6    A    
O18   C8    A    
C46   C54   A    
C61   C63   A    
O2    V4    S    
C61   H17   S    
O15   C5    A    
C98   H40   S    
C111  C112  A    
C45   C53   A    
C94   H37   S    
C13   C15   A    
C90   N2    T    
C12   C14   A    
V4    O20   S    
C110  C111  A    
C101  C102  A    
C66   C68   A    
C78   H25   S    
C5    C25   S    
O9    C5    A    
C56   C57   A    
C9    C11   A    
C68   C70   A    
C10   C12   A    
C58   H16   S    
C116  N4    T    
O2    C4    A    
C49   C90   S    
C81   H28   S    
C82   H29   S    
C85   C86   A    
C97   C102  A    
C74   H22   S    
C48   C91   S    
C33   C37   A    
C117  N5    T    
C73   H21   S    
C92   C93   A    
C57   C59   A    
C37   C38   A    
C29   C118  S    
C95   C96   A    
C2    C44   S    
C4    C63   S    
C109  C114  A    
C65   H19   S    
C112  C113  A    
C73   C75   A    
C93   C94   A    
C69   C70   A    
O12   V4    S    
C104  H45   S    
C72   C75   A    
C55   C58   A    
O17   C7    A    
