data_str_m9_o16_o24_f0_sra.sym.69
_audit_creation_date              2012-12-11T15:13:48-0500
_audit_creation_method            fapswitch 2.2
_symmetry_space_group_name_H-M    P1
_symmetry_Int_Tables_number       1
_space_group_crystal_system       triclinic
_cell_length_a                    6.94529
_cell_length_b                    13.454977
_cell_length_c                    20.129011
_cell_angle_alpha                 104.132306
_cell_angle_beta                  90.264085
_cell_angle_gamma                 90.357658
_cell_volume                      1824.0279112

loop_
_atom_site_label
_atom_site_type_symbol
_atom_type_description
_atom_site_fract_x
_atom_site_fract_y
_atom_site_fract_z
_atom_type_partial_charge
O1    O     O_R   0.506780 0.600060 0.449950 -0.538539
O2    O     O_R   0.179840 0.597110 0.589410 -0.543536
O3    O     O_R   0.004570 0.399940 0.550050 -0.538375
C1    C     C_R   0.348695 0.618943 0.616929 0.676520
O4    O     O_R   0.177380 0.612160 0.452890 -0.540358
O5    O     O_R   0.002100 0.415100 0.412560 -0.540587
C2    C     C_R   0.346028 0.639126 0.436356 0.697295
O6    O     O_R   0.509250 0.584900 0.587440 -0.540654
O7    O     O_3   0.337570 0.435330 0.486930 -0.369581
V1    V     V_3+5 0.064650 0.512000 0.502430 1.413470
O8    O     O_R   0.672090 0.402890 0.410590 -0.543572
C3    C     C_R   0.840358 0.381140 0.383029 0.677895
O9    O     O_R   0.674540 0.387840 0.547110 -0.540710
C4    C     C_R   0.843331 0.360984 0.563678 0.695925
V2    V     V_3+5 0.564040 0.488000 0.497570 1.412142
O10   O     O_3   0.840990 0.564670 0.513070 -0.369270
C5    C     C_R   0.881208 0.106799 0.608169 -0.161537
H1    H     H_    0.874762 0.156229 0.514592 0.101398
H2    H     H_    0.901611 0.981001 0.690744 0.118014
H3    H     H_    0.894736 0.026829 0.581443 0.111873
C6    C     C_R   0.852391 0.283461 0.603222 -0.031012
C7    C     C_R   0.841042 0.319659 0.932911 -0.187850
C8    C     C_R   0.829548 0.396381 0.897841 -0.127234
C9    C     C_R   0.835352 0.372184 0.826518 -0.170354
C10   C     C_R   0.853053 0.269257 0.788091 0.079312
C11   C     C_R   0.865628 0.190941 0.824534 0.073316
C12   C     C_R   0.858213 0.241393 0.714880 0.071698
C13   C     C_R   0.875811 0.136276 0.680041 0.145522
C14   C     C_R   0.888128 0.061206 0.716988 -0.218458
C15   C     C_R   0.883209 0.087886 0.788017 -0.205172
C16   C     C_R   0.846613 0.314065 0.674747 -0.218446
C17   C     C_R   0.869729 0.180062 0.570006 -0.177349
C18   C     C_R   0.859589 0.217352 0.897056 -0.084860
H4    H     H_    0.833722 0.395067 0.697162 0.090427
H5    H     H_    0.835860 0.340153 0.988393 0.118433
H6    H     H_    0.825301 0.436018 0.803258 0.102219
H7    H     H_    0.815760 0.475471 0.926189 0.117299
H8    H     H_    0.893153 0.026578 0.814091 0.119008
C19   C     C_3   0.676669 0.222533 0.227637 -0.109847
C20   C     C_3   0.770855 0.200430 0.292409 -0.143386
H9    H     H_    0.700285 0.159908 0.327744 0.102719
H10   H     H_    0.528253 0.199674 0.209053 0.110564
C21   C     C_3   0.848993 0.311080 0.312327 -0.012595
C22   C     C_3   0.754852 0.334004 0.248349 -0.132286
C23   C     C_3   0.941574 0.299537 0.207496 -0.139260
C24   C     C_3   0.035787 0.277407 0.272264 -0.119594
C25   C     C_3   0.957534 0.165968 0.251556 -0.142849
C26   C     C_3   0.863501 0.188908 0.187599 -0.007795
H11   H     H_    0.670918 0.403639 0.247459 0.107553
H12   H     H_    0.012061 0.339918 0.172061 0.113336
H13   H     H_    0.184266 0.300091 0.290838 0.111028
H14   H     H_    0.040977 0.096212 0.252341 0.108521
C27   C     C_3   0.538272 0.724458 0.730924 -0.122137
C28   C     C_3   0.459113 0.835165 0.750130 -0.137397
H15   H     H_    0.543629 0.905726 0.750790 0.110659
H16   H     H_    0.688269 0.702986 0.715017 0.106882
C29   C     C_3   0.356745 0.811515 0.812297 -0.004467
C30   C     C_3   0.435991 0.701659 0.793907 -0.143703
C31   C     C_3   0.253692 0.665524 0.749740 -0.137849
C32   C     C_3   0.174551 0.776235 0.768934 -0.119767
C33   C     C_3   0.276828 0.799002 0.705939 -0.138667
C34   C     C_3   0.356089 0.689107 0.687558 -0.005188
H17   H     H_    0.501098 0.661874 0.830690 0.095036
H18   H     H_    0.169157 0.594980 0.749116 0.098646
H19   H     H_    0.024613 0.797891 0.784835 0.105552
H20   H     H_    0.211645 0.838830 0.669196 0.098222
C35   C     C_R   0.338768 0.893822 0.391588 -0.166090
H21   H     H_    0.333943 0.844576 0.485221 0.101749
H22   H     H_    0.330169 0.019538 0.308846 0.114797
H23   H     H_    0.329454 0.974046 0.418192 0.113123
C36   C     C_R   0.353411 0.716781 0.396827 -0.034066
C37   C     C_R   0.378349 0.679374 0.066948 -0.290123
C38   C     C_R   0.384501 0.600780 0.102070 0.479410
C39   C     C_R   0.378888 0.627434 0.173619 -0.213672
C40   C     C_R   0.362224 0.730467 0.211747 0.005926
C41   C     C_R   0.353367 0.808580 0.175202 0.067919
C42   C     C_R   0.356949 0.758601 0.285019 0.098851
C43   C     C_R   0.345151 0.864025 0.319738 0.148868
C44   C     C_R   0.338534 0.939072 0.282673 -0.220461
C45   C     C_R   0.341803 0.912004 0.211632 -0.182144
C46   C     C_R   0.361399 0.685911 0.325337 -0.216834
C47   C     C_R   0.341853 0.820521 0.429863 -0.177448
C48   C     C_R   0.360890 0.781934 0.102783 -0.119454
H24   H     H_    0.367017 0.604593 0.303136 0.091364
H25   H     H_    0.391423 0.662167 0.011766 0.089413
H26   H     H_    0.390080 0.564602 0.197786 0.127518
H27   H     H_    0.336016 0.973366 0.185502 0.113604
O11   O     O_R   0.203580 0.914920 0.912610 -0.541297
O12   O     O_R   0.535710 0.887810 0.047120 -0.539146
O13   O     O_R   0.710730 0.084950 0.087430 -0.539913
C49   C     C_R   0.367238 0.860605 0.063560 0.715413
O14   O     O_R   0.533010 0.902850 0.910600 -0.543843
O15   O     O_R   0.708010 0.100090 0.949930 -0.538101
C50   C     C_R   0.364175 0.881287 0.883012 0.678693
O16   O     O_R   0.206300 0.899780 0.050100 -0.539577
O17   O     O_3   0.375170 0.064580 0.013100 -0.369381
V3    V     V_3+5 0.648200 0.988020 0.997570 1.414312
O18   O     O_R   0.038030 0.112330 0.952840 -0.541559
C51   C     C_R   0.869113 0.139254 0.936445 0.687646
O19   O     O_R   0.040730 0.097300 0.089360 -0.544239
C52   C     C_R   0.872420 0.118922 0.116931 0.682852
V4    V     V_3+5 0.148780 0.012220 0.002360 1.407142
O20   O     O_3   0.871930 0.935430 0.986900 -0.369352
O21   O     O_3   0.412268 0.497464 0.070552 -0.560328
C53   C     C_3   0.336402 0.467988 0.003311 0.063562
H28   H     H_    0.436392 0.491802 0.966975 0.124947
H29   H     H_    0.190719 0.500803 0.999878 0.118485
C54   C     C_3   0.317868 0.351717 0.982297 -0.638520
H30   H     H_    0.212600 0.325282 0.015780 0.206441
H31   H     H_    0.267936 0.326797 0.928253 0.184707
H32   H     H_    0.459117 0.315899 0.987036 0.222563

loop_
_geom_bond_atom_site_label_1
_geom_bond_atom_site_label_2
_ccdc_geom_bond_type
C22   H11   S    
C20   C25   S    
O17   V4    S    
C38   C39   A    
C1    O6    A    
C37   H25   S    
C42   C43   A    
C7    H5    S    
C6    C16   A    
C31   H18   S    
C9    H6    S    
C4    C6    S    
C13   C14   A    
C3    C21   S    
C2    C36   S    
C27   H16   S    
V2    O10   S    
C1    C34   S    
C5    H3    S    
C54   H30   S    
C15   H8    S    
C24   C25   S    
O8    V2    S    
C33   H20   S    
C38   O21   S    
C8    C9    A    
O1    V2    S    
O12   C49   A    
O7    V1    S    
O15   C51   A    
O13   V3    S    
O16   V4    S    
C36   C47   A    
C31   C32   S    
O9    C4    A    
V4    O20   S    
C35   C43   A    
C41   C48   A    
O19   V4    S    
O21   C53   S    
C6    C17   A    
O14   V3    S    
C19   H10   S    
C20   C21   S    
C53   C54   S    
O11   C50   A    
C39   C40   A    
C12   C16   A    
C9    C10   A    
C19   C20   S    
O4    C2    A    
C43   C44   A    
C29   C32   S    
C30   C31   S    
O18   V4    S    
C24   H13   S    
O12   V3    S    
C32   C33   S    
C18   C51   S    
C25   H14   S    
O2    C1    A    
C40   C41   A    
O13   C52   A    
C14   C15   A    
C8    H7    S    
C53   H29   S    
C27   C34   S    
C11   C18   A    
C25   C26   S    
C42   C46   A    
C27   C30   S    
O17   V3    S    
O14   C50   A    
C16   H4    S    
C39   H26   S    
C40   C42   A    
V3    O20   S    
O3    C4    A    
C20   H9    S    
C32   H19   S    
C11   C15   A    
O6    V2    S    
C29   C50   S    
O9    V2    S    
C21   C22   S    
C10   C12   A    
H22   C44   S    
H1    C17   S    
O2    V1    S    
O15   V3    S    
C46   H24   S    
C22   C23   S    
C23   C26   S    
C30   H17   S    
C7    C18   A    
C28   H15   S    
C31   C34   S    
O1    C2    A    
C5    C13   A    
C41   C45   A    
C37   C38   A    
O5    V1    S    
O11   V4    S    
O8    C3    A    
C27   C28   S    
C19   C22   S    
C28   C33   S    
C45   H27   S    
C48   C49   S    
C53   H28   S    
C54   H32   S    
C35   H23   S    
H21   C47   S    
C10   C11   A    
O4    V1    S    
O3    V1    S    
V1    O10   S    
O5    C3    A    
C29   C30   S    
C23   H12   S    
C26   C52   S    
O19   C52   A    
C54   H31   S    
O7    V2    S    
C33   C34   S    
C21   C24   S    
C37   C48   A    
C49   O16   A    
C44   C45   A    
C23   C24   S    
C35   C47   A    
O18   C51   A    
C12   C13   A    
C5    C17   A    
C7    C8    A    
C19   C26   S    
C36   C46   A    
C28   C29   S    
H2    C14   S    
