data_str_m2_o16_o16_f0_pcu.sym.118
_audit_creation_date              2012-12-10T17:31:18-0500
_audit_creation_method            fapswitch 2.2
_symmetry_space_group_name_H-M    P1
_symmetry_Int_Tables_number       1
_space_group_crystal_system       triclinic
_cell_length_a                    19.03574
_cell_length_b                    18.502023
_cell_length_c                    12.377439
_cell_angle_alpha                 89.859199
_cell_angle_beta                  129.258882
_cell_angle_gamma                 90.660865
_cell_volume                      3375.11517967

loop_
_atom_site_label
_atom_site_type_symbol
_atom_type_description
_atom_site_fract_x
_atom_site_fract_y
_atom_site_fract_z
_atom_type_partial_charge
C1    C     C_R   0.612012 0.898189 0.652978 0.782038
C2    C     C_R   0.614017 0.100722 0.654948 0.781489
C3    C     C_R   0.112011 0.398189 0.652977 0.782027
C4    C     C_R   0.114021 0.600718 0.654954 0.781474
C5    C     C_R   0.238740 0.785781 0.020854 0.089252
C6    C     C_R   0.258055 0.237958 0.061015 0.090325
C7    C     C_R   0.738738 0.285778 0.020859 0.089259
C8    C     C_R   0.758061 0.737962 0.061022 0.090326
C9    C     C_R   0.652218 0.293925 0.984986 0.155187
C10   C     C_R   0.685884 0.751400 0.063400 0.158252
C11   C     C_R   0.152216 0.793940 0.984957 0.155174
C12   C     C_R   0.185883 0.251400 0.063400 0.158243
C13   C     C_R   0.575913 0.261706 0.864162 -0.195956
C14   C     C_R   0.607655 0.783744 0.949579 -0.234535
C15   C     C_R   0.075913 0.761724 0.864125 -0.195943
C16   C     C_R   0.107654 0.283746 0.949581 -0.234537
C17   C     C_R   0.585121 0.217736 0.783424 -0.169716
C18   C     C_R   0.602136 0.804669 0.837170 -0.186100
C19   C     C_R   0.085126 0.717746 0.783402 -0.169719
C20   C     C_R   0.102133 0.304669 0.837169 -0.186104
C21   C     C_R   0.315086 0.811547 0.152044 -0.170144
C22   C     C_R   0.319864 0.184899 0.150354 -0.187303
C23   C     C_R   0.815087 0.311547 0.152044 -0.170120
C24   C     C_R   0.819872 0.684906 0.150365 -0.187301
C25   C     C_R   0.218708 0.868445 0.189380 -0.160042
C26   C     C_R   0.259865 0.181517 0.273904 -0.166777
C27   C     C_R   0.718718 0.368425 0.189417 -0.160066
C28   C     C_R   0.759862 0.681513 0.273897 -0.166798
C29   C     C_R   0.682458 0.156928 0.745319 -0.086512
C30   C     C_R   0.679649 0.842681 0.744555 -0.099723
C31   C     C_R   0.182468 0.656918 0.745338 -0.086500
C32   C     C_R   0.179647 0.342679 0.744553 -0.099723
C33   C     C_R   0.688027 0.999527 0.292374 -0.104375
C34   C     C_R   0.188025 0.499481 0.292374 -0.104347
C35   C     C_R   0.343287 0.000379 0.633307 0.184730
C36   C     C_R   0.843287 0.500382 0.633309 0.184723
C37   C     C_R   0.312825 0.010782 0.708998 -0.263394
C38   C     C_R   0.812827 0.510794 0.709000 -0.263387
C39   C     C_R   0.386364 0.100181 0.345077 0.818338
C40   C     C_R   0.382882 0.901937 0.340402 0.797785
C41   C     C_R   0.886365 0.600181 0.345077 0.818358
C42   C     C_R   0.882885 0.401934 0.340407 0.797792
C43   C     C_R   0.373277 0.016014 0.852334 -0.141462
C44   C     C_R   0.873280 0.516028 0.852337 -0.141468
C45   C     C_R   0.466459 0.008599 0.925010 0.031896
C46   C     C_R   0.966461 0.508605 0.925012 0.031897
C47   C     C_R   0.496447 0.003212 0.843784 0.250782
C48   C     C_R   0.996447 0.503212 0.843785 0.250787
C49   C     C_R   0.530254 0.006338 0.075356 -0.034609
C50   C     C_R   0.030257 0.506338 0.075358 -0.034617
C51   C     C_R   0.624372 0.002298 0.144046 0.068119
C52   C     C_R   0.124373 0.502275 0.144048 0.068098
C53   C     C_R   0.652319 0.998929 0.062986 -0.221235
C54   C     C_R   0.152319 0.498910 0.062987 -0.221254
C55   C     C_R   0.590462 0.000164 0.917951 -0.165635
C56   C     C_R   0.090462 0.500158 0.917951 -0.165634
C57   C     C_R   0.503872 0.005544 0.160616 0.060392
C58   C     C_R   0.003875 0.505556 0.160618 0.060401
C59   C     C_R   0.656116 0.997136 0.367831 0.012628
C60   C     C_R   0.156114 0.497104 0.367829 0.012638
C61   C     C_R   0.642928 0.335257 0.069651 -0.172554
C62   C     C_R   0.689732 0.726318 0.173862 -0.188747
C63   C     C_R   0.142920 0.835281 0.069607 -0.172545
C64   C     C_R   0.189735 0.226323 0.173869 -0.188702
C65   C     C_R   0.305432 0.856262 0.232535 -0.056558
C66   C     C_R   0.321671 0.156881 0.256946 -0.054497
C67   C     C_R   0.805437 0.356255 0.232548 -0.056574
C68   C     C_R   0.821673 0.656882 0.256948 -0.054497
C69   C     C_R   0.764219 0.156281 0.767271 -0.197271
C70   C     C_R   0.752567 0.834037 0.744421 -0.204765
C71   C     C_R   0.264240 0.656253 0.767325 -0.197295
C72   C     C_R   0.252565 0.334035 0.744419 -0.204760
C73   C     C_R   0.332959 0.705733 0.857509 -0.172036
C74   C     C_R   0.330998 0.300376 0.854682 -0.183007
C75   C     C_R   0.832933 0.205767 0.857441 -0.172033
C76   C     C_R   0.831001 0.800381 0.854687 -0.183006
C77   C     C_R   0.324017 0.754292 0.934422 0.003489
C78   C     C_R   0.339097 0.275052 0.968554 -0.012361
C79   C     C_R   0.823999 0.254313 0.934381 0.003497
C80   C     C_R   0.839102 0.775059 0.968561 -0.012355
C81   C     C_R   0.746051 0.249554 0.927000 0.010427
C82   C     C_R   0.760450 0.772374 0.960296 0.004599
C83   C     C_R   0.246059 0.749547 0.927012 0.010437
C84   C     C_R   0.260445 0.272368 0.960289 0.004603
C85   C     C_R   0.670726 0.207219 0.818465 0.072547
C86   C     C_R   0.679980 0.806549 0.846001 0.075679
C87   C     C_R   0.170734 0.707216 0.818468 0.072547
C88   C     C_R   0.179976 0.306546 0.845996 0.075682
Cu1   Cu    Cu3+1 0.526340 0.000000 0.421010 0.963239
Cu2   Cu    Cu3+1 0.026340 0.500000 0.421010 0.963245
Cu3   Cu    Cu3+1 0.473640 1.000000 0.578990 0.954218
Cu4   Cu    Cu3+1 0.973640 0.500000 0.578990 0.954218
H1    H     H_    0.722893 0.993267 0.110253 0.194847
H2    H     H_    0.222893 0.493243 0.110250 0.194853
H3    H     H_    0.434008 0.007850 0.117154 0.154707
H4    H     H_    0.934012 0.507879 0.117157 0.154692
H5    H     H_    0.240757 0.012562 0.656288 0.167447
H6    H     H_    0.740759 0.512578 0.656292 0.167452
H7    H     H_    0.509151 0.268864 0.833934 0.152897
H8    H     H_    0.548294 0.788116 0.942730 0.184945
H9    H     H_    0.009147 0.768891 0.833880 0.152882
H10   H     H_    0.048295 0.288121 0.942736 0.184960
H11   H     H_    0.576639 0.344520 0.040033 0.159062
H12   H     H_    0.637223 0.739318 0.180404 0.189174
H13   H     H_    0.076628 0.844553 0.039971 0.159040
H14   H     H_    0.137229 0.239327 0.180417 0.189159
H15   H     H_    0.392413 0.707544 0.863846 0.167086
H16   H     H_    0.388962 0.300858 0.857240 0.161566
H17   H     H_    0.892376 0.207592 0.863751 0.167080
H18   H     H_    0.888966 0.800864 0.857244 0.161565
H19   H     H_    0.523662 0.194181 0.690639 0.170362
H20   H     H_    0.535651 0.819116 0.743710 0.184138
H21   H     H_    0.023670 0.694191 0.690612 0.170351
H22   H     H_    0.035648 0.319119 0.743711 0.184137
H23   H     H_    0.703425 0.994773 0.480687 0.152718
H24   H     H_    0.203421 0.494725 0.480685 0.152691
N1    N     N_R   0.566260 1.000000 0.302220 -0.198510
N2    N     N_R   0.066260 0.500000 0.302220 -0.198508
N3    N     N_R   0.434410 0.000000 0.697680 -0.251474
N4    N     N_R   0.934410 0.500000 0.697680 -0.251472
O1    O     O_R   0.608610 0.924520 0.551740 -0.580373
O2    O     O_R   0.608610 0.075480 0.551740 -0.571802
O3    O     O_R   0.108610 0.424520 0.551740 -0.580385
O4    O     O_R   0.108610 0.575480 0.551740 -0.571789
O5    O     O_R   0.564110 0.924510 0.685150 -0.610693
O6    O     O_R   0.564110 0.075490 0.685150 -0.605245
O7    O     O_R   0.064110 0.424510 0.685150 -0.610696
O8    O     O_R   0.064110 0.575490 0.685150 -0.605245
O9    O     O_R   0.435880 0.075470 0.314850 -0.590870
O10   O     O_R   0.435880 0.924530 0.314850 -0.561970
O11   O     O_R   0.935880 0.575470 0.314850 -0.590877
O12   O     O_R   0.935880 0.424530 0.314850 -0.561958
O13   O     O_R   0.391380 0.075460 0.448260 -0.563968
O14   O     O_R   0.391380 0.924540 0.448260 -0.574304
O15   O     O_R   0.891380 0.575460 0.448260 -0.563945
O16   O     O_R   0.891380 0.424540 0.448260 -0.574321
H25   H     H_    0.208394 0.906575 0.242696 0.188684
H26   H     H_    0.262361 0.163121 0.359187 0.208355
H27   H     H_    0.708407 0.406547 0.242747 0.188710
H28   H     H_    0.762352 0.663114 0.359173 0.208356
C89   C     C_2   0.787885 0.000118 0.373812 0.824183
O17   O     O_2   0.823353 0.040941 0.342469 -0.586451
O18   O     O_R   0.841956 0.956305 0.491586 -0.775800
H29   H     H_    0.909006 0.962037 0.540108 0.343363
C90   C     C_2   0.287881 0.500014 0.373810 0.824167
O19   O     O_2   0.323389 0.540836 0.342535 -0.586446
O20   O     O_R   0.341906 0.456145 0.491504 -0.775796
H30   H     H_    0.408957 0.461838 0.540026 0.343374
C91   C     C_2   0.272618 0.981413 0.486714 0.869009
O21   O     O_2   0.240059 0.920371 0.457917 -0.604906
O22   O     O_R   0.233417 0.034782 0.384709 -0.787493
H31   H     H_    0.178694 0.016754 0.289468 0.315027
C92   C     C_2   0.772615 0.481410 0.486720 0.868997
O23   O     O_2   0.740042 0.420374 0.457937 -0.604920
O24   O     O_R   0.733429 0.534772 0.384701 -0.787478
H32   H     H_    0.678700 0.516745 0.289461 0.315024
H33   H     H_    0.344401 0.024382 0.903052 0.160071
H34   H     H_    0.844405 0.524400 0.903054 0.160076
H35   H     H_    0.620033 0.998087 0.868316 0.206736
H36   H     H_    0.120033 0.498084 0.868316 0.206735
H37   H     H_    0.383020 0.798895 0.192262 0.149423
H38   H     H_    0.363770 0.162141 0.132665 0.153450
H39   H     H_    0.883019 0.298904 0.192248 0.149431
H40   H     H_    0.863784 0.662151 0.132683 0.153452
H41   H     H_    0.774474 0.118123 0.712241 0.162160
H42   H     H_    0.752623 0.859178 0.665332 0.178934
H43   H     H_    0.274498 0.618085 0.712316 0.162148
H44   H     H_    0.252624 0.359179 0.665334 0.178944
C93   C     C_2   0.389275 0.815755 0.000487 0.811490
O25   O     O_2   0.362260 0.876869 0.991081 -0.611186
O26   O     O_R   0.481285 0.803996 0.070979 -0.806889
H45   H     H_    0.519079 0.850065 0.111402 0.330882
C94   C     C_2   0.433175 0.262825 0.098175 0.800481
O27   O     O_2   0.457514 0.285288 0.210238 -0.564671
O28   O     O_R   0.494973 0.227934 0.091084 -0.780056
H46   H     H_    0.557148 0.223391 0.185799 0.349354
C95   C     C_2   0.889256 0.315777 0.000452 0.811488
O29   O     O_2   0.862241 0.376888 0.991066 -0.611179
O30   O     O_R   0.981265 0.304021 0.070933 -0.806885
H47   H     H_    0.019059 0.350090 0.111369 0.330889
C96   C     C_2   0.933180 0.762834 0.098182 0.800484
O31   O     O_2   0.957519 0.785300 0.210243 -0.564679
O32   O     O_R   0.994975 0.727939 0.091092 -0.780044
H48   H     H_    0.057150 0.723395 0.185805 0.349357

loop_
_geom_bond_atom_site_label_1
_geom_bond_atom_site_label_2
_ccdc_geom_bond_type
C83   C87   A    
O26   H45   S    
C13   H7    S    
Cu3   O6    S    
C44   H34   S    
Cu2   O3    S    
C14   C18   A    
C35   N3    A    
O20   H30   S    
C28   H28   S    
C48   C56   A    
C38   H6    S    
C37   H5    S    
C90   O19   D    
Cu1   O9    S    
C3    O3    A    
C48   N4    A    
C10   C62   A    
C94   O27   D    
C15   C19   A    
C18   C86   A    
C2    C29   S    
C9    C61   A    
Cu2   N2    S    
C57   N1    A    
C61   H11   S    
C1    O5    A    
C5    C11   A    
C19   C87   A    
C91   O22   S    
C6    C12   A    
C22   H38   S    
C34   C90   S    
C3    O7    A    
C73   H15   S    
Cu1   O2    S    
C19   H21   S    
O18   H29   S    
C32   C88   A    
C23   H39   S    
C17   H19   S    
C58   N2    A    
C49   C57   A    
C4    O4    A    
C42   O16   A    
C25   C63   A    
C23   C67   A    
C59   H23   S    
C9    C13   A    
C22   C66   A    
C26   C64   A    
C27   C61   A    
C90   O20   S    
C11   C15   A    
C2    O2    A    
C12   C16   A    
C44   C46   A    
C95   O30   S    
C78   C94   S    
C50   C52   A    
O22   H31   S    
C79   C95   S    
C60   N2    A    
C30   C86   A    
C29   C85   A    
Cu2   O12   S    
C45   C47   A    
C33   C59   A    
C71   H43   S    
C34   C60   A    
C72   H44   S    
Cu4   O16   S    
Cu4   O8    S    
C21   C65   A    
C30   C70   A    
C52   C54   A    
C36   C92   S    
C41   C68   S    
C29   C69   A    
C53   C55   A    
C54   C56   A    
C75   H17   S    
C6    C84   A    
C4    O8    A    
C53   H1    S    
C26   C66   A    
C93   O25   D    
C76   C80   A    
C31   C87   A    
C72   C74   A    
C10   C14   A    
C96   O32   S    
C79   C81   A    
C39   O9    A    
C49   C51   A    
C96   O31   D    
C40   O14   A    
C62   H12   S    
C27   H27   S    
Cu1   O10   S    
C51   C53   A    
C89   O18   S    
C50   C58   A    
C37   C43   A    
C25   H25   S    
O32   H48   S    
C38   C44   A    
C24   H40   S    
C55   H35   S    
Cu2   Cu4   S    
O28   H46   S    
Cu3   O13   S    
C45   C49   A    
C16   C20   A    
C25   C65   A    
C80   C96   S    
C15   H9    S    
C14   H8    S    
C43   C45   A    
C94   O28   S    
Cu2   O11   S    
C2    O6    A    
C16   H10   S    
C7    C81   A    
Cu1   N1    S    
C95   O29   D    
C40   C65   S    
C70   C76   A    
C42   C67   S    
C58   H4    S    
C39   C66   S    
C17   C85   A    
C60   H24   S    
Cu4   O15   S    
C92   O24   S    
C36   C38   A    
Cu4   O7    S    
C41   O15   A    
C35   C37   A    
C47   C55   A    
C93   O26   S    
C57   H3    S    
C7    C9    A    
C77   C93   S    
C40   O10   A    
C73   C77   A    
Cu3   O5    S    
C1    O1    A    
C28   C68   A    
Cu2   O4    S    
C8    C10   A    
C84   C88   A    
C18   H20   S    
C26   H26   S    
C5    C83   A    
C64   H14   S    
C33   C51   A    
C39   O13   A    
C46   C50   A    
C34   C52   A    
C76   H18   S    
C13   C17   A    
C33   C89   S    
C70   H42   S    
Cu4   N4    S    
C56   H36   S    
C82   C86   A    
C89   O17   D    
C20   H22   S    
Cu3   O14   S    
Cu1   O1    S    
C12   C64   A    
C7    C23   A    
C20   C88   A    
C47   N3    A    
C1    C30   S    
C8    C24   A    
C80   C82   A    
C69   C75   A    
Cu3   N3    S    
C43   H33   S    
C3    C32   S    
C36   N4    A    
C69   H41   S    
C54   H2    S    
C4    C31   S    
C27   C67   A    
C63   H13   S    
C24   C68   A    
C74   H16   S    
O30   H47   S    
C46   C48   A    
C78   C84   A    
C8    C82   A    
C41   O11   A    
C5    C21   A    
C59   N1    A    
Cu1   Cu3   S    
C74   C78   A    
C71   C73   A    
O24   H32   S    
C77   C83   A    
C42   O12   A    
C35   C91   S    
C92   O23   D    
C91   O21   D    
C11   C63   A    
C75   C79   A    
C81   C85   A    
C28   C62   A    
C31   C71   A    
C32   C72   A    
C21   H37   S    
C6    C22   A    
