data_str_m12_o9_o13_f0_bcu.sym.120
_audit_creation_date              2012-12-11T17:43:16-0500
_audit_creation_method            fapswitch 2.2
_symmetry_space_group_name_H-M    P1
_symmetry_Int_Tables_number       1
_space_group_crystal_system       triclinic
_cell_length_a                    15.059772
_cell_length_b                    15.193218
_cell_length_c                    16.922199
_cell_angle_alpha                 108.836765
_cell_angle_beta                  106.075849
_cell_angle_gamma                 109.419676
_cell_volume                      3119.40956642

loop_
_atom_site_label
_atom_site_type_symbol
_atom_type_description
_atom_site_fract_x
_atom_site_fract_y
_atom_site_fract_z
_atom_type_partial_charge
C1    C     C_R   0.090331 0.276979 0.033855 -0.152041
C2    C     C_R   0.074146 0.056157 0.940246 -0.256441
C3    C     C_R   0.996738 0.891346 0.942524 0.055979
C4    C     C_R   0.997282 0.078382 0.959559 0.051724
C5    C     C_R   0.073960 0.961369 0.930122 0.045748
C6    C     C_R   0.917279 0.004596 0.967162 0.022581
C7    C     C_R   0.731639 0.963706 0.921597 -0.217592
C8    C     C_R   0.260640 0.005328 0.977157 -0.224669
C9    C     C_R   0.672111 0.050566 0.026010 -0.147472
C10   C     C_R   0.318729 0.899372 0.885497 -0.131339
C11   C     C_R   0.490548 0.689312 0.352914 -0.113415
C12   C     C_R   0.913195 0.709937 0.922211 -0.170142
C13   C     C_R   0.517582 0.421243 0.729224 -0.121100
C14   C     C_R   0.502444 0.677937 0.271702 -0.134903
C15   C     C_R   0.524695 0.442298 0.818095 -0.115760
C16   C     C_R   0.935537 0.450610 0.734943 -0.131911
C17   C     C_R   0.064200 0.484575 0.255137 -0.148892
C18   C     C_R   0.526223 0.599057 0.227252 0.116365
C19   C     C_R   0.554058 0.544602 0.881813 0.108763
C20   C     C_R   0.539526 0.533090 0.266608 -0.170504
C21   C     C_R   0.574672 0.625019 0.855044 -0.194626
C22   C     C_R   0.527968 0.545082 0.348083 -0.109321
C23   C     C_R   0.027662 0.464163 0.725769 0.056274
C24   C     C_R   0.568724 0.603748 0.766452 -0.117156
C25   C     C_R   0.503260 0.622915 0.391055 -0.101639
C26   C     C_R   0.540175 0.501885 0.703557 -0.103463
C27   C     C_R   0.619148 0.571625 0.127341 -0.241902
C28   C     C_R   0.479447 0.584338 0.989136 -0.229511
C29   C     C_R   0.628411 0.559112 0.044757 0.069434
C30   C     C_R   0.462925 0.585291 0.066316 0.058209
C31   C     C_R   0.558308 0.567056 0.975245 0.016770
C32   C     C_R   0.535708 0.585011 0.139361 0.023090
C33   C     C_R   0.651041 0.978391 0.938947 -0.119646
C34   C     C_R   0.972697 0.427780 0.258375 0.052617
C35   C     C_R   0.340945 0.985098 0.964793 -0.105033
C36   C     C_R   0.963960 0.389330 0.326339 0.137992
C37   C     C_R   0.035916 0.418732 0.639008 0.128433
C38   C     C_R   0.139585 0.436115 0.552982 -0.228824
C39   C     C_R   0.858910 0.317694 0.397014 -0.233428
C40   C     C_R   0.720577 0.215203 0.823323 -0.150057
C41   C     C_R   0.223020 0.796452 0.187754 -0.134547
C42   C     C_R   0.133592 0.449890 0.636369 -0.173230
C43   C     C_R   0.865989 0.339334 0.324804 -0.199552
C44   C     C_R   0.944794 0.358106 0.556012 -0.277375
C45   C     C_R   0.664591 0.216773 0.744282 0.066795
C46   C     C_R   0.054194 0.409545 0.397497 -0.278949
C47   C     C_R   0.950038 0.352258 0.474134 0.192525
C48   C     C_R   0.048326 0.395577 0.473415 0.187778
C49   C     C_R   0.556241 0.141918 0.677212 0.132152
C50   C     C_R   0.279617 0.896875 0.360727 0.132876
C51   C     C_R   0.383627 0.085507 0.445641 -0.232526
C52   C     C_R   0.410009 0.968600 0.607048 -0.227321
C53   C     C_R   0.314645 0.995878 0.362550 -0.170406
C54   C     C_R   0.502547 0.049538 0.681732 -0.174700
C55   C     C_R   0.298793 0.890376 0.444097 -0.286790
C56   C     C_R   0.239308 0.801931 0.274453 0.056185
C57   C     C_R   0.509678 0.157306 0.602255 -0.304407
C58   C     C_R   0.372480 0.978735 0.526799 0.190351
C59   C     C_R   0.419455 0.075709 0.526278 0.197981
C60   C     C_R   0.773553 0.107165 0.096326 -0.156916
C61   C     C_R   0.216296 0.834362 0.817552 -0.181018
C62   C     C_R   0.856006 0.093064 0.080706 0.260855
C63   C     C_R   0.134170 0.853848 0.828161 0.254703
C64   C     C_R   0.300904 0.597807 0.005952 -0.154941
C65   C     C_R   0.736809 0.462650 0.047386 -0.134995
C66   C     C_R   0.834790 0.022135 0.990999 0.043014
C67   C     C_R   0.359181 0.565485 0.056009 0.056129
C68   C     C_R   0.156685 0.939608 0.910381 0.073312
C69   C     C_R   0.726076 0.309503 0.746598 -0.135916
C70   C     C_R   0.217657 0.701791 0.265349 -0.127768
C71   C     C_R   0.295516 0.499559 0.079267 -0.120989
C72   C     C_R   0.754091 0.565106 0.976718 -0.107503
C73   C     C_R   0.109638 0.535405 0.812469 -0.134632
C74   C     C_R   0.891212 0.400940 0.177879 -0.143203
C75   C     C_R   0.916427 0.194736 0.950409 -0.121198
C76   C     C_R   0.085936 0.796798 0.001631 -0.131137
C77   C     C_R   0.002950 0.179497 0.974867 0.053669
C78   C     C_R   0.709232 0.535682 0.030239 0.044245
C79   C     C_R   0.000082 0.801965 0.952324 0.046667
C80   C     C_3   0.964202 0.154637 0.160139 -0.410612
C81   C     C_3   0.968057 0.124195 0.238200 -0.869339
C82   C     C_3   0.025524 0.784612 0.749742 -0.407342
C83   C     C_3   0.993914 0.842432 0.697412 -0.871480
C84   C     C_R   0.917589 0.911605 0.957056 -0.222895
H1    H     H_    0.170034 0.293021 0.068761 0.101800
H2    H     H_    0.506909 0.379153 0.837169 0.114640
H3    H     H_    0.557038 0.471259 0.233490 0.106265
H4    H     H_    0.596389 0.704137 0.903142 0.124970
H5    H     H_    0.537653 0.493619 0.377672 0.102801
H6    H     H_    0.585757 0.666108 0.746447 0.105536
H7    H     H_    0.676193 0.569724 0.181464 0.131394
H8    H     H_    0.422869 0.583500 0.932496 0.129031
H9    H     H_    0.130189 0.445376 0.398969 0.114794
H10   H     H_    0.868804 0.327717 0.555783 0.117764
H11   H     H_    0.794746 0.321681 0.270687 0.112273
H12   H     H_    0.835126 0.683608 0.872544 0.107279
H13   H     H_    0.205509 0.492097 0.698866 0.119284
H14   H     H_    0.215586 0.467482 0.552952 0.127291
H15   H     H_    0.782967 0.283880 0.396643 0.126966
H16   H     H_    0.856554 0.401347 0.682242 0.095779
H17   H     H_    0.142644 0.505132 0.299167 0.089203
H18   H     H_    0.572229 0.934057 0.884652 0.107042
H19   H     H_    0.420502 0.035626 0.017164 0.105173
H20   H     H_    0.548348 0.228070 0.597541 0.111875
H21   H     H_    0.267295 0.815419 0.444488 0.119166
H22   H     H_    0.534706 0.036195 0.739684 0.114869
H23   H     H_    0.714100 0.907937 0.853268 0.126193
H24   H     H_    0.296525 0.004256 0.299825 0.115141
H25   H     H_    0.416907 0.160346 0.445055 0.122683
H26   H     H_    0.373538 0.895078 0.608924 0.125319
H27   H     H_    0.609596 0.062238 0.039317 0.108325
H28   H     H_    0.381154 0.883656 0.876282 0.107440
H29   H     H_    0.787594 0.161657 0.163453 0.125959
H30   H     H_    0.201342 0.769274 0.755868 0.115816
H31   H     H_    0.690861 0.163486 0.851357 0.096453
H32   H     H_    0.232918 0.859418 0.169328 0.093579
H33   H     H_    0.329071 0.659155 0.986414 0.096639
H34   H     H_    0.279201 0.071227 0.040030 0.124126
H35   H     H_    0.713062 0.422015 0.085656 0.097767
H36   H     H_    0.702179 0.344911 0.704336 0.088054
H37   H     H_    0.222941 0.676778 0.318478 0.095028
H38   H     H_    0.317918 0.466447 0.124381 0.105073
H39   H     H_    0.751690 0.622845 0.953670 0.113215
H40   H     H_    0.192035 0.564009 0.831292 0.094984
H41   H     H_    0.810771 0.343582 0.150254 0.087129
H42   H     H_    0.836513 0.136539 0.905364 0.116208
H43   H     H_    0.166894 0.851415 0.027300 0.104937
H44   H     H_    0.859075 0.857718 0.967579 0.134906
H45   H     H_    0.493988 0.631780 0.453920 0.097221
H46   H     H_    0.134137 0.112684 0.933267 0.140415
H47   H     H_    0.916721 0.143742 0.268949 0.262697
H48   H     H_    0.943345 0.038782 0.211707 0.260458
H49   H     H_    0.049095 0.168254 0.293518 0.251959
H50   H     H_    0.023630 0.142190 0.138158 0.200955
H51   H     H_    0.987720 0.239696 0.187005 0.201337
H52   H     H_    0.989253 0.910451 0.742938 0.263863
H53   H     H_    0.051220 0.870440 0.670416 0.260411
H54   H     H_    0.916023 0.788254 0.638128 0.249933
H55   H     H_    0.021947 0.713370 0.699620 0.193461
H56   H     H_    0.534868 0.485275 0.634741 0.096357
H57   H     H_    0.967470 0.755934 0.775503 0.196163
H58   H     H_    0.471423 0.749614 0.386245 0.114600
H59   H     H_    0.493688 0.342263 0.680025 0.115788
H60   H     H_    0.492709 0.730379 0.243305 0.114461
N1    N     N_R   0.055660 0.348550 0.045620 -0.040219
N2    N     N_R   0.185200 0.638170 0.176300 -0.039576
N3    N     N_R   0.201680 0.494570 0.045620 -0.038954
N4    N     N_R   0.798320 0.505430 0.954380 -0.041893
N5    N     N_R   0.068420 0.560530 0.871650 -0.039533
N6    N     N_R   0.931580 0.439470 0.128350 -0.035856
N7    N     N_R   0.948070 0.295860 0.997670 -0.043609
N8    N     N_R   0.051930 0.704140 0.002330 -0.038213
N9    N     N_R   0.944340 0.651450 0.954380 -0.035816
N10   N     N_R   0.960830 0.507850 0.823700 -0.041317
N11   N     N_R   0.039170 0.492150 0.176300 -0.037110
N12   N     N_R   0.811290 0.303410 0.871650 -0.038228
N13   N     N_R   0.188710 0.696590 0.128350 -0.040608
N14   N     N_R   0.205200 0.552990 0.997670 -0.037387
N15   N     N_R   0.794800 0.447010 0.002330 -0.040445
N16   N     N_R   0.814800 0.361830 0.823700 -0.037964
Ni1   Ni    Ni4+2 0.119340 0.493420 0.109960 0.212295
Ni2   Ni    Ni4+2 0.880660 0.506580 0.890040 0.215025
Ni3   Ni    Ni4+2 0.872590 0.372590 0.000000 0.213853
Ni4   Ni    Ni4+2 0.127410 0.627410 0.000000 0.214559

loop_
_geom_bond_atom_site_label_1
_geom_bond_atom_site_label_2
_ccdc_geom_bond_type
C84   H44   S    
C71   N3    A    
C12   C79   A    
C9    H27   S    
C27   C29   A    
C1    C77   A    
C14   C18   A    
C71   H38   S    
C1    N1    A    
C53   H24   S    
C76   C79   A    
C12   N9    A    
C38   H14   S    
C19   C31   S    
C49   C57   A    
N2    N13   A    
N11   Ni1   S    
C15   C19   A    
N6    Ni3   S    
C80   H51   S    
C55   H21   S    
C62   C80   S    
C19   C21   A    
C24   C26   A    
C38   C42   A    
C26   H56   S    
C82   H57   S    
C11   C14   A    
C57   C59   A    
C40   H31   S    
C11   C25   A    
C49   C54   A    
C20   H3    S    
C69   N16   A    
C80   H50   S    
C61   H30   S    
C81   H47   S    
C60   C62   A    
C37   C42   A    
C61   C63   A    
C17   H17   S    
C72   C78   A    
C29   C78   S    
N12   Ni3   S    
C75   N7    A    
C40   N12   A    
C22   C25   A    
C43   H11   S    
C27   H7    S    
C10   C35   A    
C70   N2    A    
N15   Ni3   S    
C52   H26   S    
C18   C20   A    
C30   C67   S    
C44   C47   A    
N14   Ni4   S    
C21   H4    S    
C25   H45   S    
C65   N15   A    
C51   H25   S    
C9    C33   A    
C7    C33   A    
C60   H29   S    
C23   C73   A    
C5    C68   S    
C52   C54   A    
C46   C48   A    
C1    H1    S    
C40   C45   A    
N2    Ni1   S    
C14   H60   S    
C50   C53   A    
C6    C84   A    
C62   C66   A    
C63   C82   S    
C45   C69   A    
C33   H18   S    
C64   C67   A    
N12   N16   A    
C4    C6    A    
N3    Ni1   S    
C42   H13   S    
C54   H22   S    
C16   H16   S    
C81   H48   S    
C39   C43   A    
C58   C59   A    
C23   C37   S    
C50   C56   S    
C64   H33   S    
C51   C53   A    
N4    N15   A    
N16   Ni2   S    
C2    C4    A    
N5    N10   A    
C41   C56   A    
C82   H55   S    
C39   H15   S    
C47   C48   A    
C45   C49   S    
C73   H40   S    
C65   H35   S    
C28   H8    S    
N5    Ni4   S    
C8    H34   S    
C10   H28   S    
C75   C77   A    
N13   Ni4   S    
C83   H52   S    
N8    Ni4   S    
C52   C58   A    
C34   C74   A    
C15   H2    S    
C41   N13   A    
C20   C22   A    
C8    C68   A    
C16   C23   A    
N7    Ni3   S    
N6    N11   A    
C13   C15   A    
C72   H39   S    
C16   N10   A    
C7    H23   S    
C13   C26   A    
C21   C24   A    
C10   C61   A    
C18   C32   S    
C17   C34   A    
C41   H32   S    
C17   N11   A    
C56   C70   A    
C83   H53   S    
C39   C47   A    
C57   H20   S    
C63   C68   A    
C65   C78   A    
C73   N5    A    
C27   C32   A    
C38   C48   A    
N10   Ni2   S    
C28   C31   A    
C12   H12   S    
C80   C81   S    
C3    C5    A    
C24   H6    S    
C2    C5    A    
C81   H49   S    
N1    N7    A    
C69   H36   S    
C35   H19   S    
C50   C55   A    
N9    Ni2   S    
C75   H42   S    
N4    Ni2   S    
C9    C60   A    
C37   C44   A    
C28   C30   A    
C4    C77   S    
C29   C31   A    
C72   N4    A    
C7    C66   A    
C30   C32   A    
C36   C46   A    
C70   H37   S    
C46   H9    S    
N1    Ni1   S    
C2    H46   S    
C22   H5    S    
C67   C71   A    
C13   H59   S    
C11   H58   S    
C44   H10   S    
C74   H41   S    
C3    C79   S    
C6    C66   S    
C51   C59   A    
N8    N9    A    
C34   C36   S    
C82   C83   S    
C55   C58   A    
C64   N14   A    
C3    C84   A    
C76   H43   S    
C76   N8    A    
C74   N6    A    
C36   C43   A    
N3    N14   A    
C8    C35   A    
C83   H54   S    
