data_str_m3_o40_o41_f0_fof.sym.200
_audit_creation_date              2012-12-10T16:37:56-0500
_audit_creation_method            fapswitch 2.2
_symmetry_space_group_name_H-M    P1
_symmetry_Int_Tables_number       1
_space_group_crystal_system       triclinic
_cell_length_a                    28.080704
_cell_length_b                    18.533668
_cell_length_c                    16.918388
_cell_angle_alpha                 90.02426
_cell_angle_beta                  60.784652
_cell_angle_gamma                 89.750895
_cell_volume                      7684.80476858

loop_
_atom_site_label
_atom_site_type_symbol
_atom_type_description
_atom_site_fract_x
_atom_site_fract_y
_atom_site_fract_z
_atom_type_partial_charge
C1    C     C_R   0.700891 0.266303 0.677224 0.897670
C2    C     C_R   0.299109 0.733697 0.322776 0.897670
C3    C     C_R   0.300000 0.264407 0.322666 0.893507
C4    C     C_R   0.700000 0.735593 0.677334 0.893507
C5    C     C_R   0.200891 0.766303 0.677224 0.897670
C6    C     C_R   0.799109 0.233697 0.322776 0.897670
C7    C     C_R   0.800000 0.764407 0.322666 0.893507
C8    C     C_R   0.200000 0.235593 0.677334 0.893507
C9    C     C_R   0.905018 0.498006 0.484009 0.070995
C10   C     C_R   0.094982 0.501994 0.515991 0.070995
C11   C     C_R   0.405018 0.998006 0.484009 0.070995
C12   C     C_R   0.594982 0.001994 0.515991 0.070995
C13   C     C_R   0.120783 0.385130 0.441276 -0.237714
C14   C     C_R   0.879216 0.614870 0.558724 -0.237714
C15   C     C_R   0.928812 0.378302 0.416480 -0.242665
C16   C     C_R   0.071188 0.621698 0.583519 -0.242665
C17   C     C_R   0.620784 0.885130 0.441276 -0.237714
C18   C     C_R   0.379216 0.114870 0.558724 -0.237714
C19   C     C_R   0.428812 0.878302 0.416480 -0.242665
C20   C     C_R   0.571188 0.121698 0.583519 -0.242665
C21   C     C_R   0.716992 0.259355 0.958176 0.022081
C22   C     C_R   0.283008 0.740645 0.041824 0.022081
C23   C     C_R   0.277431 0.269543 0.048726 0.018395
C24   C     C_R   0.722569 0.730457 0.951274 0.018395
C25   C     C_R   0.216992 0.759355 0.958176 0.022081
C26   C     C_R   0.783008 0.240645 0.041824 0.022081
C27   C     C_R   0.777431 0.769543 0.048726 0.018395
C28   C     C_R   0.222569 0.230457 0.951274 0.018395
C29   C     C_R   0.767995 0.223164 0.911813 0.065461
C30   C     C_R   0.232005 0.776836 0.088187 0.065461
C31   C     C_R   0.246259 0.205544 0.071692 0.063617
C32   C     C_R   0.753741 0.794455 0.928308 0.063617
C33   C     C_R   0.267995 0.723164 0.911813 0.065461
C34   C     C_R   0.732005 0.276836 0.088187 0.065461
C35   C     C_R   0.746259 0.705544 0.071692 0.063616
C36   C     C_R   0.253741 0.294455 0.928308 0.063616
C37   C     C_R   0.802226 0.216891 0.952037 0.030280
C38   C     C_R   0.197774 0.783109 0.047963 0.030280
C39   C     C_R   0.219985 0.185004 0.020958 0.026415
C40   C     C_R   0.780015 0.814996 0.979042 0.026415
C41   C     C_R   0.302226 0.716891 0.952037 0.030280
C42   C     C_R   0.697774 0.283109 0.047963 0.030280
C43   C     C_R   0.719985 0.685004 0.020958 0.026415
C44   C     C_R   0.280015 0.314996 0.979042 0.026415
C45   C     C_R   0.634080 0.307835 0.960152 0.035875
C46   C     C_R   0.365920 0.692165 0.039848 0.035874
C47   C     C_R   0.337579 0.351886 0.073526 0.007965
C48   C     C_R   0.662421 0.648113 0.926474 0.007965
C49   C     C_R   0.134080 0.807835 0.960152 0.035875
C50   C     C_R   0.865919 0.192165 0.039848 0.035874
C51   C     C_R   0.837579 0.851887 0.073526 0.007965
C52   C     C_R   0.162421 0.148113 0.926474 0.007965
C53   C     C_R   0.609663 0.334939 0.908082 -0.127217
C54   C     C_R   0.390337 0.665061 0.091918 -0.127217
C55   C     C_R   0.372480 0.362956 0.112033 -0.140014
C56   C     C_R   0.627520 0.637044 0.887967 -0.140014
C57   C     C_R   0.109663 0.834939 0.908082 -0.127217
C58   C     C_R   0.890337 0.165061 0.091918 -0.127217
C59   C     C_R   0.872480 0.862956 0.112033 -0.140014
C60   C     C_R   0.127520 0.137044 0.887967 -0.140014
C61   C     C_R   0.630156 0.314244 0.819036 -0.307623
C62   C     C_R   0.369844 0.685755 0.180963 -0.307623
C63   C     C_R   0.364134 0.325385 0.187652 -0.284044
C64   C     C_R   0.635866 0.674615 0.812348 -0.284044
C65   C     C_R   0.130156 0.814244 0.819036 -0.307623
C66   C     C_R   0.869844 0.185755 0.180963 -0.307623
C67   C     C_R   0.864134 0.825385 0.187652 -0.284044
C68   C     C_R   0.135866 0.174615 0.812348 -0.284044
C69   C     C_R   0.676839 0.272774 0.775896 -0.123136
C70   C     C_R   0.323161 0.727226 0.224104 -0.123136
C71   C     C_R   0.323184 0.275450 0.224984 -0.130883
C72   C     C_R   0.676816 0.724549 0.775016 -0.130883
C73   C     C_R   0.176839 0.772774 0.775896 -0.123136
C74   C     C_R   0.823161 0.227226 0.224104 -0.123136
C75   C     C_R   0.823184 0.775450 0.224984 -0.130883
C76   C     C_R   0.176816 0.224550 0.775016 -0.130883
C77   C     C_R   0.703979 0.248046 0.824652 0.082994
C78   C     C_R   0.296021 0.751954 0.175348 0.082994
C79   C     C_R   0.298742 0.249348 0.173119 0.085976
C80   C     C_R   0.701258 0.750651 0.826881 0.085976
C81   C     C_R   0.203979 0.748046 0.824652 0.082994
C82   C     C_R   0.796021 0.251954 0.175348 0.082994
C83   C     C_R   0.798742 0.749348 0.173119 0.085976
C84   C     C_R   0.201258 0.250651 0.826881 0.085976
C85   C     C_R   0.691140 0.129546 0.535647 0.897290
C86   C     C_R   0.308860 0.870454 0.464353 0.897290
C87   C     C_R   0.303112 0.127837 0.483155 0.909975
C88   C     C_R   0.696888 0.872163 0.516845 0.909975
C89   C     C_R   0.191140 0.629546 0.535647 0.897290
C90   C     C_R   0.808860 0.370454 0.464353 0.897290
C91   C     C_R   0.803112 0.627837 0.483155 0.909975
C92   C     C_R   0.196888 0.372163 0.516845 0.909975
C93   C     C_R   0.685065 0.271962 0.914265 0.061678
C94   C     C_R   0.314934 0.728038 0.085735 0.061678
C95   C     C_R   0.305383 0.289291 0.097188 0.062055
C96   C     C_R   0.694617 0.710709 0.902812 0.062055
C97   C     C_R   0.185065 0.771962 0.914265 0.061678
C98   C     C_R   0.814934 0.228038 0.085735 0.061678
C99   C     C_R   0.805383 0.789291 0.097188 0.062055
C100  C     C_R   0.194617 0.210709 0.902812 0.062055
C101  C     C_R   0.610573 0.314529 0.055641 0.018516
C102  C     C_R   0.389427 0.685471 0.944359 0.018516
C103  C     C_R   0.330495 0.402435 0.017724 0.008459
C104  C     C_R   0.669504 0.597565 0.982276 0.008459
C105  C     C_R   0.110573 0.814529 0.055641 0.018516
C106  C     C_R   0.889427 0.185471 0.944359 0.018516
C107  C     C_R   0.830495 0.902435 0.017724 0.008459
C108  C     C_R   0.169504 0.097565 0.982276 0.008459
C109  C     C_R   0.642964 0.306201 0.097202 -0.250879
C110  C     C_R   0.357036 0.693798 0.902798 -0.250878
C111  C     C_R   0.304797 0.382810 0.968153 -0.255607
C112  C     C_R   0.695203 0.617190 0.031847 -0.255607
C113  C     C_R   0.142964 0.806201 0.097202 -0.250879
C114  C     C_R   0.857036 0.193798 0.902798 -0.250878
C115  C     C_R   0.804797 0.882810 0.968153 -0.255607
C116  C     C_R   0.195203 0.117190 0.031847 -0.255607
C117  C     C_R   0.748684 0.199284 0.788844 -0.180425
C118  C     C_R   0.251316 0.800716 0.211156 -0.180425
C119  C     C_R   0.267223 0.186413 0.195407 -0.192601
C120  C     C_R   0.732776 0.813587 0.804593 -0.192601
C121  C     C_R   0.248684 0.699284 0.788844 -0.180425
C122  C     C_R   0.751316 0.300716 0.211156 -0.180425
C123  C     C_R   0.767223 0.686413 0.195407 -0.192601
C124  C     C_R   0.232776 0.313587 0.804593 -0.192601
C125  C     C_R   0.781073 0.189504 0.829354 -0.225977
C126  C     C_R   0.218927 0.810496 0.170646 -0.225977
C127  C     C_R   0.241593 0.165072 0.146215 -0.221678
C128  C     C_R   0.758407 0.834928 0.853785 -0.221678
C129  C     C_R   0.281073 0.689504 0.829354 -0.225977
C130  C     C_R   0.718927 0.310495 0.170646 -0.225977
C131  C     C_R   0.741593 0.665072 0.146215 -0.221678
C132  C     C_R   0.258407 0.334928 0.853785 -0.221678
C133  C     C_R   0.080402 0.089991 0.927721 0.934547
C134  C     C_R   0.919598 0.910009 0.072279 0.934547
C135  C     C_R   0.929758 0.104851 0.061748 0.924209
C136  C     C_R   0.070241 0.895149 0.938252 0.924209
C137  C     C_R   0.580402 0.589991 0.927721 0.934547
C138  C     C_R   0.419598 0.410008 0.072279 0.934547
C139  C     C_R   0.429758 0.604851 0.061748 0.924209
C140  C     C_R   0.570241 0.395149 0.938252 0.924209
C141  C     C_R   0.522425 0.119668 0.579735 0.113338
C142  C     C_R   0.477575 0.880332 0.420265 0.113338
C143  C     C_R   0.425917 0.115888 0.568014 0.109254
C144  C     C_R   0.574083 0.884112 0.431986 0.109254
C145  C     C_R   0.022425 0.619668 0.579735 0.113338
C146  C     C_R   0.977575 0.380332 0.420265 0.113338
C147  C     C_R   0.925917 0.615888 0.568014 0.109254
C148  C     C_R   0.074083 0.384112 0.431986 0.109254
C149  C     C_R   0.484457 0.176375 0.615445 -0.205560
C150  C     C_R   0.515543 0.823625 0.384554 -0.205560
C151  C     C_R   0.436322 0.174240 0.610255 -0.200522
C152  C     C_R   0.563678 0.825759 0.389745 -0.200522
C153  C     C_R   0.984457 0.676375 0.615445 -0.205559
C154  C     C_R   0.015543 0.323625 0.384554 -0.205560
C155  C     C_R   0.936322 0.674240 0.610255 -0.200522
C156  C     C_R   0.063678 0.325759 0.389745 -0.200522
C157  C     C_R   0.463322 0.058336 0.532997 0.031405
C158  C     C_R   0.536678 0.941664 0.467003 0.031405
C159  C     C_R   0.511298 0.059926 0.539655 0.029370
C160  C     C_R   0.488702 0.940074 0.460345 0.029370
C161  C     C_R   0.963322 0.558336 0.532997 0.031405
C162  C     C_R   0.036678 0.441663 0.467003 0.031405
C163  C     C_R   0.011298 0.559926 0.539655 0.029370
C164  C     C_R   0.988702 0.440074 0.460345 0.029370
C165  C     C_R   0.952239 0.498624 0.492838 -0.050778
C166  C     C_R   0.047761 0.501376 0.507162 -0.050778
C167  C     C_R   0.452239 0.998624 0.492838 -0.050778
C168  C     C_R   0.547761 0.001376 0.507162 -0.050778
C169  C     C_R   0.891446 0.436339 0.450135 0.063702
C170  C     C_R   0.108554 0.563661 0.549865 0.063702
C171  C     C_R   0.129213 0.441014 0.490108 0.046219
C172  C     C_R   0.870786 0.558986 0.509892 0.046219
C173  C     C_R   0.391446 0.936339 0.450135 0.063702
C174  C     C_R   0.608554 0.063661 0.549865 0.063702
C175  C     C_R   0.629213 0.941013 0.490108 0.046219
C176  C     C_R   0.370787 0.058986 0.509892 0.046219
C177  C     C_R   0.840532 0.435743 0.451219 -0.121579
C178  C     C_R   0.159468 0.564257 0.548781 -0.121579
C179  C     C_R   0.170416 0.438354 0.515329 -0.105948
C180  C     C_R   0.829584 0.561646 0.484670 -0.105948
C181  C     C_R   0.340532 0.935743 0.451219 -0.121579
C182  C     C_R   0.659468 0.064257 0.548781 -0.121579
C183  C     C_R   0.670416 0.938354 0.515329 -0.105948
C184  C     C_R   0.329584 0.061646 0.484670 -0.105948
C185  C     C_R   0.813991 0.499833 0.458119 -0.296834
C186  C     C_R   0.186009 0.500167 0.541881 -0.296833
C187  C     C_R   0.313991 0.999833 0.458119 -0.296834
C188  C     C_R   0.686009 0.000167 0.541881 -0.296834
H1    H     H_    0.092293 0.281156 0.362210 0.144944
H2    H     H_    0.907706 0.718844 0.637790 0.144944
H3    H     H_    0.007946 0.277557 0.352894 0.142176
H4    H     H_    0.992054 0.722443 0.647105 0.142176
H5    H     H_    0.592293 0.781156 0.362210 0.144944
H6    H     H_    0.407706 0.218844 0.637790 0.144944
H7    H     H_    0.507946 0.777557 0.352894 0.142176
H8    H     H_    0.492054 0.222443 0.647105 0.142176
H9    H     H_    0.778776 0.500654 0.447825 0.193572
H10   H     H_    0.221224 0.499346 0.552175 0.193571
H11   H     H_    0.278776 0.000654 0.447825 0.193572
H12   H     H_    0.721224 0.999346 0.552175 0.193572
H13   H     H_    0.150524 0.342560 0.408670 0.176246
H14   H     H_    0.849476 0.657440 0.591329 0.176247
H15   H     H_    0.921400 0.332785 0.383871 0.160612
H16   H     H_    0.078600 0.667215 0.616128 0.160612
H17   H     H_    0.650524 0.842560 0.408670 0.176246
H18   H     H_    0.349476 0.157440 0.591329 0.176246
H19   H     H_    0.421400 0.832785 0.383871 0.160612
H20   H     H_    0.578600 0.167214 0.616128 0.160612
H21   H     H_    0.611450 0.335002 0.780663 0.190193
H22   H     H_    0.388550 0.664998 0.219337 0.190193
H23   H     H_    0.387212 0.338924 0.221584 0.203711
H24   H     H_    0.612788 0.661076 0.778416 0.203711
H25   H     H_    0.111450 0.835001 0.780663 0.190193
H26   H     H_    0.888550 0.164998 0.219337 0.190193
H27   H     H_    0.887212 0.838924 0.221584 0.203711
H28   H     H_    0.112788 0.161076 0.778416 0.203711
H29   H     H_    0.623457 0.313009 0.169907 0.144272
H30   H     H_    0.376543 0.686990 0.830093 0.144272
H31   H     H_    0.300014 0.424435 0.927914 0.143471
H32   H     H_    0.699986 0.575565 0.072086 0.143471
H33   H     H_    0.123457 0.813009 0.169907 0.144272
H34   H     H_    0.876543 0.186991 0.830093 0.144272
H35   H     H_    0.800014 0.924435 0.927914 0.143471
H36   H     H_    0.199986 0.075565 0.072086 0.143471
H37   H     H_    0.758841 0.165207 0.731136 0.174396
H38   H     H_    0.241158 0.834793 0.268864 0.174396
H39   H     H_    0.263226 0.151612 0.249585 0.166330
H40   H     H_    0.736774 0.848388 0.750415 0.166330
H41   H     H_    0.258841 0.665207 0.731136 0.174396
H42   H     H_    0.741159 0.334793 0.268864 0.174396
H43   H     H_    0.763226 0.651612 0.249585 0.166330
H44   H     H_    0.236774 0.348388 0.750415 0.166330
H45   H     H_    0.815090 0.152437 0.796817 0.140254
H46   H     H_    0.184910 0.847563 0.203183 0.140254
H47   H     H_    0.216962 0.117215 0.170155 0.139315
H48   H     H_    0.783038 0.882785 0.829845 0.139315
H49   H     H_    0.315090 0.652437 0.796817 0.140254
H50   H     H_    0.684910 0.347563 0.203183 0.140254
H51   H     H_    0.716962 0.617215 0.170155 0.139315
H52   H     H_    0.283038 0.382785 0.829845 0.139315
O1    O     O_R   0.746490 0.236330 0.638080 -0.640571
O2    O     O_R   0.253510 0.763670 0.361920 -0.640571
O3    O     O_R   0.253510 0.236330 0.361920 -0.646625
O4    O     O_R   0.746490 0.763670 0.638080 -0.646625
O5    O     O_R   0.246490 0.736330 0.638080 -0.640571
O6    O     O_R   0.753510 0.263670 0.361920 -0.640571
O7    O     O_R   0.753510 0.736330 0.361920 -0.646625
O8    O     O_R   0.246490 0.263670 0.638080 -0.646625
O9    O     O_R   0.674170 0.186160 0.516270 -0.625800
O10   O     O_R   0.325830 0.813840 0.483730 -0.625800
O11   O     O_R   0.325830 0.186160 0.483730 -0.634273
O12   O     O_R   0.674170 0.813840 0.516270 -0.634273
O13   O     O_R   0.174170 0.686160 0.516270 -0.625800
O14   O     O_R   0.825830 0.313840 0.483730 -0.625800
O15   O     O_R   0.825830 0.686160 0.483730 -0.634273
O16   O     O_R   0.174170 0.313840 0.516270 -0.634273
O17   O     O_R   0.739960 0.127620 0.525000 -0.629592
O18   O     O_R   0.260040 0.872380 0.475000 -0.629592
O19   O     O_R   0.260040 0.127620 0.475000 -0.637108
O20   O     O_R   0.739960 0.872380 0.525000 -0.637108
O21   O     O_R   0.239960 0.627620 0.525000 -0.629592
O22   O     O_R   0.760040 0.372380 0.475000 -0.629592
O23   O     O_R   0.760040 0.627620 0.475000 -0.637108
O24   O     O_R   0.239960 0.372380 0.525000 -0.637108
O25   O     O_R   0.680700 0.294870 0.629350 -0.625593
O26   O     O_R   0.319300 0.705130 0.370650 -0.625593
O27   O     O_R   0.319300 0.294870 0.370650 -0.615329
O28   O     O_R   0.680700 0.705130 0.629350 -0.615329
O29   O     O_R   0.180700 0.794870 0.629350 -0.625593
O30   O     O_R   0.819300 0.205130 0.370650 -0.625593
O31   O     O_R   0.819300 0.794870 0.370650 -0.615329
O32   O     O_R   0.180700 0.205130 0.629350 -0.615329
O33   O     O_R   0.062020 0.072840 0.007170 -0.623925
O34   O     O_R   0.937980 0.927160 0.992830 -0.623925
O35   O     O_R   0.937980 0.072840 0.992830 -0.610417
O36   O     O_R   0.062020 0.927160 0.007170 -0.610417
O37   O     O_R   0.562020 0.572840 0.007170 -0.623925
O38   O     O_R   0.437980 0.427160 0.992830 -0.623925
O39   O     O_R   0.437980 0.572840 0.992830 -0.610417
O40   O     O_R   0.562020 0.427160 0.007170 -0.610417
O41   O     O_R   0.947860 0.073950 0.109290 -0.625766
O42   O     O_R   0.052140 0.926050 0.890710 -0.625766
O43   O     O_R   0.052140 0.073950 0.890710 -0.615448
O44   O     O_R   0.947860 0.926050 0.109290 -0.615448
O45   O     O_R   0.447860 0.573950 0.109290 -0.625766
O46   O     O_R   0.552140 0.426050 0.890710 -0.625766
O47   O     O_R   0.552140 0.573950 0.890710 -0.615448
O48   O     O_R   0.447860 0.426050 0.109290 -0.615448
Zn1   Zn    Zn3+2 0.792340 0.208750 0.507670 0.940531
Zn2   Zn    Zn3+2 0.207660 0.791250 0.492330 0.940531
Zn3   Zn    Zn3+2 0.207660 0.208750 0.492330 0.940322
Zn4   Zn    Zn3+2 0.792340 0.791250 0.507670 0.940322
Zn5   Zn    Zn3+2 0.292340 0.708750 0.507670 0.940531
Zn6   Zn    Zn3+2 0.707660 0.291250 0.492330 0.940531
Zn7   Zn    Zn3+2 0.707660 0.708750 0.492330 0.940322
Zn8   Zn    Zn3+2 0.292340 0.291250 0.507670 0.940321
Zn9   Zn    Zn3+2 0.505960 0.500000 0.080520 0.961490
Zn10  Zn    Zn3+2 0.494040 0.500000 0.919480 0.961490
Zn11  Zn    Zn3+2 0.005960 0.000000 0.080520 0.961490
Zn12  Zn    Zn3+2 0.994040 0.000000 0.919480 0.961490
C189  C     C_1   0.552177 0.316849 0.114782 0.178929
N1    N     N_1   0.505480 0.318089 0.162665 -0.205670
C190  C     C_1   0.447823 0.683151 0.885218 0.178928
N2    N     N_1   0.494520 0.681910 0.837335 -0.205670
C191  C     C_1   0.332342 0.478517 0.032111 0.184959
N3    N     N_1   0.331216 0.539737 0.045269 -0.199166
C192  C     C_1   0.667658 0.521483 0.967889 0.184959
N4    N     N_1   0.668783 0.460263 0.954731 -0.199166
C193  C     C_1   0.052177 0.816849 0.114782 0.178929
N5    N     N_1   0.005480 0.818089 0.162665 -0.205670
C194  C     C_1   0.947823 0.183151 0.885218 0.178928
N6    N     N_1   0.994520 0.181910 0.837335 -0.205670
C195  C     C_1   0.832342 0.978517 0.032111 0.184959
N7    N     N_1   0.831216 0.039737 0.045269 -0.199166
C196  C     C_1   0.167658 0.021483 0.967889 0.184959
N8    N     N_1   0.168783 0.960263 0.954731 -0.199166

loop_
_geom_bond_atom_site_label_1
_geom_bond_atom_site_label_2
_ccdc_geom_bond_type
C128  H48   S    
C154  H3    S    
C85   C182  S    
C6    O30   A    
C9    C169  A    
C34   C42   A    
C181  C187  A    
C189  N1    T    
O9    Zn6   S    
C27   C99   A    
O39   Zn10  S    
C170  C178  A    
C139  O39   A    
C42   C109  A    
C24   C96   A    
C149  H8    S    
C106  C194  S    
O1    Zn1   S    
C137  O47   A    
C62   C70   A    
C103  C191  S    
C147  C155  A    
C88   O12   A    
C123  C131  A    
C143  C151  A    
C90   C177  S    
C11   C167  A    
C82   C98   A    
C76   C84   A    
C73   C81   A    
C161  C163  A    
C162  C164  A    
O3    Zn3   S    
C129  H49   S    
C84   C100  A    
C121  H41   S    
C87   O19   A    
C37   C114  A    
C27   C35   A    
C10   C171  A    
C133  O43   A    
C21   C29   A    
O6    Zn6   S    
C81   C121  A    
C23   C31   A    
C24   C32   A    
C65   H25   S    
C190  N2    T    
C146  C154  A    
C113  H33   S    
C92   O24   A    
C63   C71   A    
C36   C44   A    
C89   O21   A    
O36   Zn11  S    
C91   O23   A    
C12   C174  A    
C176  C184  A    
C108  C196  S    
C26   C34   A    
C6    O6    A    
C15   H15   S    
O44   Zn11  S    
C127  H47   S    
C60   C68   A    
C148  C162  A    
C183  C188  A    
C108  C116  A    
O38   Zn10  S    
C21   C93   A    
C78   C94   A    
C7    O31   A    
C23   C95   A    
C135  O35   A    
C49   C97   A    
C21   C42   A    
C22   C41   A    
C51   C107  A    
C24   C43   A    
C64   H24   S    
C185  H9    S    
C16   H16   S    
C82   C122  A    
C161  C165  A    
C17   C175  A    
C18   C176  A    
O20   Zn4   S    
C85   O9    A    
O47   Zn10  S    
C29   C125  A    
C140  O40   A    
C69   C77   A    
C31   C127  A    
C45   C93   A    
C174  C182  A    
O30   Zn1   S    
C71   C79   A    
O17   Zn1   S    
C179  C186  A    
C118  H38   S    
C87   O11   A    
C137  O37   A    
C11   C176  A    
C91   O15   A    
C17   C144  A    
O11   Zn8   S    
C151  H6    S    
C105  C113  A    
C18   C143  A    
C78   C118  A    
C149  C151  A    
C188  H12   S    
C66   C74   A    
C7    O7    A    
C8    C76   S    
C49   C57   A    
C124  C132  A    
C52   C60   A    
C59   C67   A    
C53   C61   A    
C141  C159  A    
C20   C174  A    
C55   C63   A    
C86   C181  S    
C56   C64   A    
C35   C43   A    
C156  H1    S    
C90   O14   A    
C45   C53   A    
O10   Zn5   S    
C138  O38   A    
C22   C94   A    
C171  C179  A    
C111  H31   S    
C169  C177  A    
C112  H32   S    
C50   C98   A    
C104  C192  S    
C133  O33   A    
C104  C112  A    
C3    O3    A    
C145  C163  A    
C146  C164  A    
C14   C147  A    
C52   C100  A    
C134  O44   A    
C16   C145  A    
C178  C186  A    
C25   C38   A    
C107  C195  S    
C54   C139  S    
C46   C94   A    
C27   C40   A    
C10   C166  A    
C57   C65   A    
C91   C180  S    
C62   H22   S    
C182  C188  A    
C89   C178  S    
C2    O2    A    
C28   C36   A    
C25   C97   A    
C191  N3    T    
C67   C75   A    
C136  O42   A    
C121  C129  A    
C22   C30   A    
C20   C141  A    
C63   H23   S    
C15   C146  A    
C58   C135  S    
C68   C76   A    
O24   Zn8   S    
C59   C134  S    
C184  C187  A    
C85   O17   A    
C32   C128  A    
C17   H17   S    
C132  H52   S    
C72   C80   A    
C56   C137  S    
O18   Zn2   S    
C14   H14   S    
C5    C73   S    
C126  H46   S    
C150  H7    S    
C109  H29   S    
C13   C171  A    
C31   C39   A    
O23   Zn7   S    
C140  O46   A    
C117  C125  A    
C4    O4    A    
O16   Zn3   S    
C25   C33   A    
C119  C127  A    
O12   Zn7   S    
O13   Zn2   S    
C157  C167  A    
C30   C126  A    
C158  C168  A    
C115  H35   S    
C164  C165  A    
O21   Zn5   S    
O32   Zn3   S    
O2    Zn2   S    
C40   C115  A    
C101  C109  A    
C177  C185  A    
C103  C111  A    
C86   O18   A    
C102  C190  S    
C162  C166  A    
C79   C119  A    
O48   Zn9   S    
O22   Zn6   S    
C153  C155  A    
C120  H40   S    
C154  C156  A    
C172  C180  A    
C173  C181  A    
C196  N8    T    
C157  C159  A    
C83   C99   A    
C158  C160  A    
O40   Zn9   S    
C74   C82   A    
C6    C74   S    
C3    O27   A    
C141  C149  A    
C192  N4    T    
C50   C58   A    
C163  C166  A    
C47   C103  A    
C147  C161  A    
C38   C113  A    
C49   C105  A    
C54   C62   A    
C28   C39   A    
C1    C69   S    
C23   C44   A    
C187  H11   S    
C116  H36   S    
C3    C71   S    
O33   Zn11  S    
C79   C95   A    
C92   C179  S    
O34   Zn12  S    
C46   C54   A    
O8    Zn8   S    
C61   H21   S    
C114  H34   S    
C45   C101  A    
C92   O16   A    
C19   C142  A    
O26   Zn5   S    
C102  C110  A    
C35   C131  A    
O31   Zn4   S    
C4    C72   S    
O35   Zn12  S    
C33   C129  A    
C36   C132  A    
O45   Zn9   S    
C5    O5    A    
C120  C128  A    
C26   C37   A    
C10   C170  A    
C5    O29   A    
C33   C41   A    
C142  C150  A    
C9    C165  A    
C75   C83   A    
C195  N7    T    
C77   C93   A    
C68   H28   S    
C88   O20   A    
C44   C111  A    
C16   C170  A    
C123  H43   S    
C8    O8    A    
C8    O32   A    
C39   C116  A    
C29   C37   A    
C50   C106  A    
C186  H10   S    
C9    C172  A    
C148  C156  A    
C83   C123  A    
C2    C70   S    
C60   C133  S    
C144  C152  A    
C2    O26   A    
C86   O10   A    
C194  N6    T    
C80   C120  A    
C66   H26   S    
O7    Zn7   S    
C70   C78   A    
C53   C140  S    
C67   H27   S    
C135  O41   A    
O41   Zn11  S    
C139  O45   A    
C19   C173  A    
O42   Zn12  S    
C193  N5    T    
C46   C102  A    
C117  H37   S    
C55   C138  S    
C152  H5    S    
C106  C114  A    
C155  H2    S    
C77   C117  A    
C48   C104  A    
C138  O48   A    
C65   C73   A    
C159  C168  A    
C15   C169  A    
C160  C167  A    
O43   Zn12  S    
O4    Zn4   S    
C131  H51   S    
C57   C136  S    
C80   C96   A    
O14   Zn1   S    
C101  C189  S    
C105  C193  S    
C28   C100  A    
C32   C40   A    
C52   C108  A    
C89   O13   A    
C19   H19   S    
C136  O36   A    
C90   O22   A    
C58   C66   A    
C143  C157  A    
C51   C99   A    
C122  H42   S    
C11   C173  A    
C14   C172  A    
O5    Zn5   S    
C87   C184  S    
C88   C183  S    
C7    C75   S    
O15   Zn4   S    
O19   Zn3   S    
C124  H44   S    
C107  C115  A    
C1    O1    A    
C26   C98   A    
C12   C175  A    
O37   Zn9   S    
C41   C110  A    
C134  O34   A    
C150  C152  A    
C51   C59   A    
C43   C112  A    
C20   H20   S    
C144  C158  A    
C47   C55   A    
C61   C69   A    
C48   C56   A    
C130  H50   S    
C175  C183  A    
C48   C96   A    
C4    O28   A    
C142  C160  A    
C12   C168  A    
C84   C124  A    
C13   C148  A    
C18   H18   S    
O28   Zn7   S    
C145  C153  A    
O29   Zn2   S    
C81   C97   A    
O25   Zn6   S    
C13   H13   S    
C64   C72   A    
O27   Zn8   S    
C110  H30   S    
C125  H45   S    
C180  C185  A    
C1    O25   A    
C34   C130  A    
C47   C95   A    
O46   Zn10  S    
C118  C126  A    
C30   C38   A    
C122  C130  A    
C119  H39   S    
C153  H4    S    
