data_str_m9_o2_o19_f0_sra.sym.63
_audit_creation_date              2012-12-11T16:28:29-0500
_audit_creation_method            fapswitch 2.2
_symmetry_space_group_name_H-M    P1
_symmetry_Int_Tables_number       1
_space_group_crystal_system       triclinic
_cell_length_a                    16.580899
_cell_length_b                    7.255394
_cell_length_c                    15.197843
_cell_angle_alpha                 89.997059
_cell_angle_beta                  94.801861
_cell_angle_gamma                 89.996501
_cell_volume                      1821.89789404

loop_
_atom_site_label
_atom_site_type_symbol
_atom_type_description
_atom_site_fract_x
_atom_site_fract_y
_atom_site_fract_z
_atom_type_partial_charge
O1    O     O_R   0.663460 0.361760 0.165970 -0.530131
O2    O     O_R   0.336540 0.638240 0.834030 -0.530096
O3    O     O_R   0.836540 0.861760 0.334030 -0.530052
O4    O     O_R   0.163460 0.138240 0.665970 -0.530050
O5    O     O_R   0.827100 0.689870 0.163730 -0.535222
O6    O     O_R   0.172900 0.310130 0.836270 -0.535224
O7    O     O_R   0.672900 0.189870 0.336270 -0.535270
O8    O     O_R   0.327100 0.810130 0.663730 -0.535234
H1    H     H_    0.212385 0.967246 0.499474 0.091407
H2    H     H_    0.787627 0.032791 0.500529 0.091418
H3    H     H_    0.287630 0.466836 0.000528 0.091448
H4    H     H_    0.712371 0.533011 0.999472 0.091442
C1    C     C_R   0.853329 0.522948 0.143636 0.699507
C2    C     C_R   0.146671 0.477052 0.856364 0.699506
C3    C     C_R   0.646671 0.022949 0.356364 0.699509
C4    C     C_R   0.353329 0.977051 0.643636 0.699503
O9    O     O_R   0.663490 0.691370 0.155500 -0.534292
O10   O     O_R   0.336510 0.308630 0.844500 -0.534323
O11   O     O_R   0.836510 0.191370 0.344500 -0.534350
O12   O     O_R   0.163490 0.808630 0.655500 -0.534352
O13   O     O_R   0.671770 0.863320 0.325740 -0.528036
O14   O     O_R   0.328230 0.136680 0.674260 -0.528072
O15   O     O_R   0.828230 0.363320 0.174260 -0.528086
O16   O     O_R   0.171770 0.636680 0.825740 -0.528085
C5    C     C_R   0.635805 0.523004 0.134237 0.774927
C6    C     C_R   0.364194 0.476996 0.865763 0.774936
C7    C     C_R   0.864191 0.022986 0.365768 0.774922
C8    C     C_R   0.135813 0.977014 0.634229 0.774941
H5    H     H_    0.129276 0.000666 0.229065 0.120531
H6    H     H_    0.870725 0.999510 0.770944 0.120528
H7    H     H_    0.370713 0.500813 0.270927 0.120527
H8    H     H_    0.629297 0.498961 0.729073 0.120524
O17   O     O_3   0.752910 0.528800 0.305860 -0.372268
O18   O     O_3   0.247090 0.471200 0.694140 -0.372265
O19   O     O_3   0.747090 0.028800 0.194140 -0.372257
O20   O     O_3   0.252910 0.971200 0.805860 -0.372258
V1    V     V_3+5 0.749460 0.803010 0.239640 1.456768
V2    V     V_3+5 0.250540 0.196990 0.760360 1.456717
V3    V     V_3+5 0.750540 0.303010 0.260360 1.456635
V4    V     V_3+5 0.249460 0.696990 0.739640 1.456691
C9    C     C_1   0.468840 0.994759 0.530141 -0.006596
C10   C     C_1   0.531159 0.005241 0.469859 -0.006596
C11   C     C_1   0.031159 0.494759 0.969859 -0.006591
C12   C     C_1   0.968841 0.505240 0.030141 -0.006593
H9    H     H_    0.760497 0.026611 0.653965 0.126056
H10   H     H_    0.239512 0.973545 0.346039 0.126054
H11   H     H_    0.739513 0.526487 0.846044 0.126058
H12   H     H_    0.260495 0.473209 0.153959 0.126055
C13   C     C_R   0.034466 0.008707 0.317979 0.183776
C14   C     C_R   0.965538 0.991351 0.682020 0.183775
C15   C     C_R   0.465522 0.508956 0.182013 0.183772
C16   C     C_R   0.534479 0.491013 0.817986 0.183766
C17   C     C_R   0.115063 0.997210 0.297339 -0.162832
C18   C     C_R   0.884943 0.002915 0.702669 -0.162840
C19   C     C_R   0.384931 0.497252 0.202654 -0.162814
C20   C     C_R   0.615074 0.502568 0.797345 -0.162815
C21   C     C_R   0.177541 0.982081 0.363205 -0.149529
C22   C     C_R   0.822466 0.018035 0.636803 -0.149535
C23   C     C_R   0.322463 0.481871 0.136792 -0.149537
C24   C     C_R   0.677543 0.517910 0.863208 -0.149538
C25   C     C_R   0.160949 0.978611 0.451106 -0.134688
C26   C     C_R   0.839059 0.021439 0.548900 -0.134688
C27   C     C_R   0.339059 0.478376 0.048892 -0.134708
C28   C     C_R   0.660943 0.521493 0.951107 -0.134705
C29   C     C_R   0.080569 0.989346 0.475782 0.005262
C30   C     C_R   0.919436 0.010674 0.524221 0.005262
C31   C     C_R   0.419435 0.489272 0.024214 0.005280
C32   C     C_R   0.580566 0.510686 0.975784 0.005282
C33   C     C_R   0.015315 0.003805 0.408356 0.074454
C34   C     C_R   0.984689 0.996219 0.591644 0.074473
C35   C     C_R   0.484681 0.503884 0.091642 0.074452
C36   C     C_R   0.515319 0.496104 0.908356 0.074455
C37   C     C_R   0.065682 0.986360 0.566545 -0.166178
C38   C     C_R   0.934323 0.013642 0.433455 -0.166194
C39   C     C_R   0.434326 0.486282 0.933452 -0.166180
C40   C     C_R   0.565673 0.513718 0.066547 -0.166179
C41   C     C_1   0.416041 0.986175 0.581515 -0.197728
C42   C     C_1   0.583958 0.013825 0.418485 -0.197722
C43   C     C_1   0.083959 0.486176 0.918485 -0.197750
C44   C     C_1   0.916041 0.513823 0.081515 -0.197752
N1    N     N_3   0.973521 0.026826 0.245860 -0.666569
H13   H     H_    0.977445 0.913081 0.204162 0.226378
H14   H     H_    0.985850 0.145371 0.210197 0.225106
N2    N     N_3   0.026487 0.973181 0.754126 -0.666550
H15   H     H_    0.022566 0.086909 0.795837 0.226361
H16   H     H_    0.014149 0.854643 0.789784 0.225101
N3    N     N_3   0.526445 0.527606 0.254118 -0.666601
H17   H     H_    0.522626 0.413980 0.295915 0.226352
H18   H     H_    0.513998 0.646216 0.289676 0.225134
N4    N     N_3   0.473549 0.472484 0.745882 -0.666592
H19   H     H_    0.477464 0.586005 0.704039 0.226339
H20   H     H_    0.485909 0.353746 0.710377 0.225138

loop_
_geom_bond_atom_site_label_1
_geom_bond_atom_site_label_2
_ccdc_geom_bond_type
C22   C26   A    
N3    H17   S    
C19   C23   A    
C9    C10   S    
C16   N4    S    
O10   C6    A    
N1    H13   S    
C14   N2    S    
H6    C18   S    
O17   V3    S    
C2    O16   A    
H1    C25   S    
C28   C32   A    
O19   V1    S    
N2    H16   S    
H3    C27   S    
C9    C41   T    
C35   C40   A    
O12   V4    S    
C29   C33   A    
C3    C42   S    
O5    V1    S    
C11   C43   T    
C30   C38   A    
C29   C37   A    
C1    O15   A    
C4    C41   S    
C13   N1    S    
O4    C8    A    
H11   C24   S    
C31   C35   A    
O6    V2    S    
C7    C38   S    
O11   C7    A    
O5    C1    A    
O7    C3    A    
C1    C44   S    
O8    C4    A    
C13   C33   A    
O1    C5    A    
H2    C26   S    
C15   C35   A    
C36   C39   A    
C8    C37   S    
N1    H14   S    
C27   C31   A    
H9    C22   S    
C26   C30   A    
C12   C44   T    
N2    H15   S    
C15   N3    S    
C17   C21   A    
O9    V1    S    
O12   C8    A    
C20   C24   A    
C11   C12   S    
C16   C36   A    
C25   C29   A    
O6    C2    A    
N4    H20   S    
C32   C36   A    
C34   C37   A    
C6    C39   S    
C33   C38   A    
O2    C6    A    
C14   C18   A    
C2    C43   S    
O11   V3    S    
O4    V2    S    
C10   C42   T    
N3    H18   S    
H10   C21   S    
O18   V4    S    
C31   C39   A    
H12   C23   S    
C18   C22   A    
H4    C28   S    
C4    O14   A    
C21   C25   A    
C32   C40   A    
C23   C27   A    
C24   C28   A    
C5    C40   S    
O9    C5    A    
O3    C7    A    
C14   C34   A    
N4    H19   S    
C30   C34   A    
H5    C17   S    
C13   C17   A    
O20   V2    S    
O16   V4    S    
H8    C20   S    
C15   C19   A    
O10   V2    S    
O1    V3    S    
O2    V4    S    
C3    O13   A    
O13   V1    S    
O3    V1    S    
O7    V3    S    
O8    V4    S    
H7    C19   S    
O15   V3    S    
C16   C20   A    
O14   V2    S    
