data_str_m3_o14_o16_f0_pcu.sym.89
_audit_creation_date              2012-12-10T17:42:45-0500
_audit_creation_method            fapswitch 2.2
_symmetry_space_group_name_H-M    P1
_symmetry_Int_Tables_number       1
_space_group_crystal_system       triclinic
_cell_length_a                    9.986884
_cell_length_b                    10.731619
_cell_length_c                    12.976405
_cell_angle_alpha                 94.297194
_cell_angle_beta                  70.534238
_cell_angle_gamma                 90.98905
_cell_volume                      1307.5274167

loop_
_atom_site_label
_atom_site_type_symbol
_atom_type_description
_atom_site_fract_x
_atom_site_fract_y
_atom_site_fract_z
_atom_type_partial_charge
Br1   Br    Br    0.785854 0.742743 0.220657 -0.516893
Br2   Br    Br    0.626486 0.736661 0.704089 -0.517602
Br3   Br    Br    0.261011 0.727541 0.862648 -0.490415
C1    C     C_R   0.506579 0.738244 0.487675 0.941902
C2    C     C_R   0.373891 0.441584 0.811422 -0.077719
C3    C     C_R   0.320783 0.873243 0.395088 -0.144112
C4    C     C_R   0.420644 0.492265 0.703599 0.953649
C5    C     C_R   0.199612 0.931505 0.391333 -0.134186
C6    C     C_R   0.149699 0.040859 0.456898 -0.203234
C7    C     C_R   0.231705 0.100968 0.514451 0.021913
C8    C     C_R   0.371402 0.055494 0.497897 0.062228
C9    C     C_R   0.402123 0.931560 0.455045 0.065437
C10   C     C_R   0.516811 0.870724 0.470175 -0.142684
C11   C     C_R   0.628379 0.941259 0.486851 0.027794
C12   C     C_R   0.449074 0.442476 0.971289 0.055105
C13   C     C_R   0.610853 0.067593 0.511083 -0.247181
C14   C     C_R   0.485232 0.126485 0.515332 -0.142428
C15   C     C_R   0.822869 0.701293 0.630863 0.291564
C16   C     C_R   0.494352 0.260464 0.507717 0.850418
C17   C     C_R   0.889908 0.800339 0.670741 -0.240358
C18   C     C_R   0.025479 0.787888 0.671678 -0.047900
C19   C     C_R   0.097821 0.678084 0.628318 -0.140528
C20   C     C_R   0.049097 0.589816 0.563937 0.100496
C21   C     C_R   0.904296 0.594314 0.564366 0.111455
C22   C     C_R   0.953116 0.412668 0.439747 -0.096796
C23   C     C_R   0.400789 0.508015 0.899520 0.004379
C24   C     C_R   0.095748 0.413343 0.439161 -0.090706
C25   C     C_R   0.578837 0.501624 0.295804 0.865493
C26   C     C_R   0.619523 0.707668 0.080493 -0.200161
C27   C     C_R   0.622478 0.528264 0.181226 -0.092111
C28   C     C_R   0.359489 0.311586 0.810695 -0.208862
C29   C     C_R   0.389171 0.246571 0.889484 0.044567
C30   C     C_R   0.438671 0.310672 0.967012 -0.209574
C31   C     C_1   0.159715 0.191705 0.603017 0.186355
C32   C     C_1   0.087425 0.886139 0.722605 0.270394
C33   C     C_1   0.388184 0.112314 0.881285 0.188945
C34   C     C_R   0.514833 0.511346 0.038516 0.101352
C35   C     C_1   0.769215 0.891082 0.462072 0.283312
C36   C     C_R   0.534406 0.641829 0.029083 0.042805
C37   C     C_R   0.462583 0.705464 0.973300 -0.186270
C38   C     C_R   0.388566 0.638851 0.913933 0.285696
C39   C     C_R   0.557508 0.456613 0.117467 -0.265251
C40   C     C_R   0.669108 0.649216 0.153089 0.247571
H1    H     H_    0.353355 0.784653 0.348048 0.163386
H2    H     H_    0.642946 0.805407 0.067515 0.174165
H3    H     H_    0.524024 0.363909 0.141682 0.137061
H4    H     H_    0.340152 0.259659 0.742225 0.138711
H5    H     H_    0.473634 0.255111 0.019298 0.134866
H6    H     H_    0.141280 0.887990 0.341799 0.184865
H7    H     H_    0.046143 0.077440 0.464316 0.143280
H8    H     H_    0.699989 0.120772 0.520597 0.167727
H9    H     H_    0.920238 0.340954 0.390259 0.141849
H10   H     H_    0.832424 0.885359 0.711111 0.185309
H11   H     H_    0.193122 0.664603 0.645354 0.239755
H12   H     H_    0.462177 0.806648 0.977203 0.187946
H13   H     H_    0.169033 0.342077 0.389092 0.142525
N1    N     N_R   0.856860 0.501200 0.500990 -0.100902
N2    N     N_R   0.142450 0.501280 0.501020 -0.110801
N3    N     N_1   0.101149 0.263932 0.673955 -0.178728
N4    N     N_1   0.136769 0.965432 0.763394 -0.159126
N5    N     N_1   0.388507 0.004342 0.874354 -0.121959
N6    N     N_1   0.882703 0.851001 0.439795 -0.206388
O1    O     O_R   0.385310 0.683220 0.500000 -0.649987
O2    O     O_R   0.614640 0.683250 0.500010 -0.561012
O3    O     O_R   0.328400 0.499950 0.653610 -0.615593
O4    O     O_R   0.557730 0.499970 0.653620 -0.570838
O5    O     O_R   0.385360 0.316750 0.499990 -0.623749
O6    O     O_R   0.614690 0.316780 0.500000 -0.625024
O7    O     O_R   0.442270 0.500030 0.346380 -0.616376
O8    O     O_R   0.671600 0.500050 0.346390 -0.573636
Zn1   Zn    Zn3+2 0.346880 0.499980 0.499990 0.955503
Zn2   Zn    Zn3+2 0.653120 0.500020 0.500010 1.009309

loop_
_geom_bond_atom_site_label_1
_geom_bond_atom_site_label_2
_ccdc_geom_bond_type
C5    C6    A    
C20   N2    A    
O8    Zn2   S    
C8    C9    A    
C16   O5    A    
C33   N5    T    
C18   C32   S    
C22   C24   A    
C6    C7    A    
C1    O2    A    
C25   O8    A    
O5    Zn1   S    
C25   O7    A    
C13   H8    S    
O6    Zn2   S    
C20   C21   A    
C37   H12   S    
C29   C30   A    
C26   C36   A    
C25   C27   S    
C22   H9    S    
O7    Zn1   S    
C16   O6    A    
C34   C36   A    
C28   H4    S    
C10   C11   A    
C26   C40   A    
C4    O4    A    
C9    C10   A    
C19   H11   S    
C1    O1    A    
C13   C14   A    
C22   N1    A    
C15   C21   A    
C17   H10   S    
C37   C38   A    
C14   C16   S    
C4    O3    A    
O1    Zn1   S    
C12   C30   A    
C15   C17   A    
O2    Zn2   S    
N1    Zn2   S    
C3    C9    A    
C31   N3    T    
N2    Zn1   S    
C28   C29   A    
C11   C13   A    
C27   C40   A    
C11   C35   S    
C7    C8    A    
Br2   C15   S    
C2    C23   A    
C32   N4    T    
C29   C33   S    
C36   C37   A    
C17   C18   A    
C3    H1    S    
C12   C34   A    
C7    C31   S    
C39   H3    S    
C26   H2    S    
C34   C39   A    
C2    C4    S    
C30   H5    S    
C24   H13   S    
Br3   C38   S    
C12   C23   A    
C3    C5    A    
C2    C28   A    
C18   C19   A    
C27   C39   A    
C5    H6    S    
Br1   C40   S    
C19   C20   A    
O4    Zn2   S    
C6    H7    S    
C1    C10   S    
C23   C38   A    
O3    Zn1   S    
C21   N1    A    
C35   N6    T    
C24   N2    A    
C8    C14   A    
