data_str_m3_o10_o29_f0_pcu.sym.84
_audit_creation_date              2012-12-10T16:59:22-0500
_audit_creation_method            fapswitch 2.2
_symmetry_space_group_name_H-M    P1
_symmetry_Int_Tables_number       1
_space_group_crystal_system       triclinic
_cell_length_a                    7.746007
_cell_length_b                    8.557977
_cell_length_c                    27.510191
_cell_angle_alpha                 90.934357
_cell_angle_beta                  85.927924
_cell_angle_gamma                 93.777013
_cell_volume                      1814.97596484

loop_
_atom_site_label
_atom_site_type_symbol
_atom_type_description
_atom_site_fract_x
_atom_site_fract_y
_atom_site_fract_z
_atom_type_partial_charge
C1    C     C_R   0.545946 0.794847 0.498723 0.984947
C2    C     C_R   0.617416 0.692479 0.127919 -0.124420
C3    C     C_R   0.509780 0.514383 0.646391 -0.429037
C4    C     C_R   0.495215 0.525980 0.354237 -0.438446
C5    C     C_R   0.627145 0.685857 0.025170 -0.017894
C6    C     C_R   0.345799 0.528026 0.978848 -0.018286
C7    C     C_R   0.331917 0.555018 0.029867 -0.031116
C8    C     C_R   0.640800 0.661056 0.973909 -0.033906
C9    C     C_R   0.478068 0.622012 0.052863 -0.061974
C10   C     C_R   0.496587 0.588401 0.950965 -0.055510
C11   C     C_R   0.752359 0.778292 0.050237 0.751844
C12   C     C_R   0.454049 0.205148 0.501262 0.967302
C13   C     C_R   0.221667 0.431083 0.954830 0.733064
C14   C     C_R   0.752356 0.773560 0.100712 -0.221305
C15   C     C_R   0.228768 0.420554 0.904418 -0.214676
C16   C     C_R   0.502601 0.501335 0.593889 1.046352
C17   C     C_R   0.497840 0.502126 0.406178 1.064898
C18   C     C_R   0.797877 0.693168 0.944803 0.727288
C19   C     C_R   0.175110 0.524294 0.059095 0.731820
C20   C     C_2   0.570171 0.958372 0.497975 -0.293693
C21   C     C_2   0.429811 0.041610 0.501975 -0.281811
C22   C     C_R   0.658567 0.612874 0.820521 0.651974
C23   C     C_R   0.506216 0.569596 0.899612 -0.063302
C24   C     C_R   0.332775 0.555793 0.182705 0.633882
C25   C     C_R   0.376864 0.480932 0.825631 0.591254
C26   C     C_R   0.618476 0.679589 0.178525 0.612336
C27   C     C_R   0.604649 0.420969 0.721629 0.604071
C28   C     C_R   0.426189 0.688434 0.288412 0.632469
C29   C     C_R   0.601377 0.409054 0.671292 0.454301
C30   C     C_R   0.427174 0.661872 0.337953 0.460734
C31   C     C_R   0.426080 0.634910 0.671667 0.543030
C32   C     C_R   0.561399 0.415770 0.320970 0.552154
C33   C     C_R   0.432112 0.650253 0.722230 -0.005255
C34   C     C_R   0.473978 0.627086 0.104324 -0.066586
C35   C     C_R   0.555764 0.439081 0.270809 -0.016842
C36   C     C_R   0.519703 0.539924 0.747145 -0.023534
C37   C     C_R   0.489582 0.578099 0.254873 -0.028241
C38   C     C_3   0.346399 0.784829 0.748599 -0.312357
C39   C     C_3   0.457627 0.937904 0.741551 -0.641245
C40   C     C_3   0.615781 0.313723 0.235208 -0.319211
C41   C     C_3   0.812656 0.324251 0.226733 -0.639091
C42   C     C_R   0.655824 0.624586 0.871357 -0.116838
C43   C     C_R   0.326313 0.566790 0.132301 -0.111094
C44   C     C_R   0.801770 0.682340 0.894365 -0.238064
C45   C     C_R   0.175144 0.523083 0.109519 -0.246317
C46   C     C_R   0.368024 0.492069 0.876462 -0.121260
F1    F     F_    0.341494 0.739189 0.646901 -0.637302
F2    F     F_    0.018008 0.510232 0.040095 -0.597454
F3    F     F_    0.625165 0.283707 0.337440 -0.619078
F4    F     F_    0.365431 0.770323 0.370147 -0.591615
F5    F     F_    0.682369 0.291949 0.647040 -0.598283
F6    F     F_    0.361796 0.820957 0.272703 -0.584816
F7    F     F_    0.688444 0.315542 0.745979 -0.596537
F8    F     F_    0.863956 0.886689 0.027414 -0.581694
F9    F     F_    0.105340 0.329977 0.979146 -0.583172
F10   F     F_    0.953797 0.717089 0.964059 -0.591542
H1    H     H_    0.013888 0.382583 0.463385 0.208000
H2    H     H_    0.475931 0.968314 0.702355 0.299834
H3    H     H_    0.392821 0.034286 0.761476 0.261732
H4    H     H_    0.216726 0.797578 0.734773 0.269896
H5    H     H_    0.323779 0.763850 0.788272 0.200051
H6    H     H_    0.857620 0.439629 0.211043 0.281804
H7    H     H_    0.874271 0.309164 0.261449 0.302464
H8    H     H_    0.853309 0.230954 0.200674 0.247178
H9    H     H_    0.570954 0.195955 0.249383 0.278693
H10   H     H_    0.558929 0.323312 0.199557 0.194131
H11   H     H_    0.986115 0.617410 0.536619 0.210860
H12   H     H_    0.923040 0.712263 0.873469 0.213704
H13   H     H_    0.054853 0.491584 0.130659 0.203972
H14   H     H_    0.855444 0.838525 0.118494 0.214362
H15   H     H_    0.128335 0.349299 0.887464 0.223558
H16   H     H_    0.702631 0.009695 0.494158 0.183474
H17   H     H_    0.297351 0.990283 0.505787 0.187229
H18   H     H_    0.586472 0.927313 0.756098 0.275772
N1    N     N_R   0.518595 0.544968 0.798962 -0.311175
N2    N     N_R   0.480221 0.605733 0.204234 -0.306779
N3    N     N_2   0.950320 0.457960 0.486880 -0.159090
N4    N     N_2   0.049680 0.542040 0.513120 -0.154264
O1    O     O_R   0.389250 0.738570 0.503220 -0.597284
O2    O     O_2   0.194987 0.492649 0.210000 -0.558674
O3    O     O_2   0.756539 0.738137 0.201810 -0.526227
O4    O     O_2   0.244687 0.408155 0.802851 -0.518156
O5    O     O_R   0.610750 0.261430 0.496780 -0.607409
O6    O     O_R   0.678390 0.711630 0.494810 -0.642932
O7    O     O_R   0.321610 0.288370 0.505190 -0.639063
O8    O     O_R   0.355440 0.513440 0.575450 -0.574145
O9    O     O_R   0.644560 0.486560 0.424550 -0.586375
O10   O     O_R   0.644590 0.486500 0.567040 -0.600845
O11   O     O_R   0.355410 0.513500 0.432960 -0.603707
O12   O     O_2   0.798987 0.669240 0.792802 -0.532648
Zn1   Zn    Zn3+2 0.306940 0.517990 0.505620 1.040395
Zn2   Zn    Zn3+2 0.693060 0.482010 0.494380 1.030747

loop_
_geom_bond_atom_site_label_1
_geom_bond_atom_site_label_2
_ccdc_geom_bond_type
N3    Zn2   S    
C27   C29   A    
O7    Zn1   S    
N3    N4    D    
C1    O6    A    
O5    Zn2   S    
C23   C42   A    
C12   O7    A    
C41   H6    S    
C35   C37   A    
C5    C11   A    
O8    Zn1   S    
C38   C39   S    
C11   C14   A    
C21   H17   S    
C33   C36   A    
C39   H18   S    
C3    C29   A    
C24   O2    S    
O10   Zn2   S    
C26   N2    A    
C31   C33   A    
O11   Zn1   S    
O1    Zn1   S    
C18   F10   S    
C38   H5    S    
C2    C34   A    
C30   F4    S    
C23   C46   A    
C31   F1    S    
O9    Zn2   S    
C16   O8    A    
C14   H14   S    
H11   N4    S    
C42   C44   A    
C22   N1    A    
C45   H13   S    
C32   C35   A    
H1    N3    S    
C17   O11   A    
C19   F2    S    
C24   N2    A    
C39   H2    S    
C12   C21   S    
C8    C18   A    
C12   O5    A    
C25   N1    A    
C5    C9    A    
C36   N1    S    
C18   C44   A    
C39   H3    S    
C19   C45   A    
C22   O12   S    
C2    C26   A    
N4    Zn1   S    
C3    C31   A    
C43   C45   A    
C4    C32   A    
C11   F8    S    
C38   H4    S    
C4    C17   S    
C40   C41   S    
C37   N2    S    
C26   O3    S    
C7    C19   A    
C40   H9    S    
C13   C15   A    
C25   O4    S    
C27   C36   A    
C44   H12   S    
C41   H7    S    
C29   F5    S    
C7    C9    A    
C1    C20   S    
C17   O9    A    
C34   C43   A    
C6    C10   A    
C5    C8    A    
C27   F7    S    
C6    C7    A    
C10   C23   A    
C15   H15   S    
C33   C38   S    
C15   C46   A    
C28   C30   A    
C35   C40   S    
C6    C13   A    
C28   F6    S    
C22   C42   A    
C28   C37   A    
C1    O1    A    
C9    C34   A    
C2    C14   A    
C32   F3    S    
C20   C21   D    
C8    C10   A    
C16   O10   A    
C24   C43   A    
C20   H16   S    
C40   H10   S    
O6    Zn2   S    
C41   H8    S    
C25   C46   A    
C4    C30   A    
C3    C16   S    
C13   F9    S    
