data_str_m3_o10_o29_f0_pcu.sym.90
_audit_creation_date              2012-12-10T16:59:22-0500
_audit_creation_method            fapswitch 2.2
_symmetry_space_group_name_H-M    P1
_symmetry_Int_Tables_number       1
_space_group_crystal_system       triclinic
_cell_length_a                    7.764183
_cell_length_b                    8.568503
_cell_length_c                    27.727736
_cell_angle_alpha                 91.024004
_cell_angle_beta                  86.211135
_cell_angle_gamma                 93.914785
_cell_volume                      1836.16296657

loop_
_atom_site_label
_atom_site_type_symbol
_atom_type_description
_atom_site_fract_x
_atom_site_fract_y
_atom_site_fract_z
_atom_type_partial_charge
C1    C     C_R   0.545957 0.794769 0.498733 0.970285
C2    C     C_R   0.514046 0.643016 0.128009 -0.021380
C3    C     C_R   0.510026 0.498650 0.646128 -0.077452
C4    C     C_R   0.489983 0.501398 0.353871 -0.077452
C5    C     C_R   0.531844 0.643593 0.025793 0.048962
C6    C     C_R   0.468288 0.356571 0.974206 0.048964
C7    C     C_R   0.461085 0.357447 0.025441 0.048730
C8    C     C_R   0.539050 0.642716 0.974557 0.048728
C9    C     C_R   0.492934 0.500949 0.050875 0.074430
C10   C     C_R   0.507190 0.499216 0.949124 0.074429
C11   C     C_R   0.562222 0.782786 0.053137 -0.223041
C12   C     C_R   0.454042 0.205231 0.501267 0.970291
C13   C     C_R   0.437902 0.217378 0.946862 -0.223045
C14   C     C_R   0.552318 0.782221 0.103173 -0.132410
C15   C     C_R   0.447772 0.217946 0.896826 -0.132408
C16   C     C_R   0.502923 0.499861 0.593784 0.888270
C17   C     C_R   0.497078 0.500145 0.406216 0.888263
C18   C     C_R   0.576985 0.780990 0.947555 -0.221886
C19   C     C_R   0.423152 0.219173 0.052443 -0.221889
C20   C     C_2   0.570016 0.958440 0.498003 -0.363963
C21   C     C_2   0.429984 0.041559 0.501996 -0.363963
C22   C     C_R   0.547211 0.636325 0.821988 0.558193
C23   C     C_R   0.513878 0.498412 0.897894 -0.048472
C24   C     C_R   0.452853 0.363845 0.178011 0.558188
C25   C     C_R   0.495621 0.358673 0.821477 0.526892
C26   C     C_R   0.504407 0.641501 0.178523 0.526904
C27   C     C_R   0.367035 0.457953 0.725190 -0.095992
C28   C     C_R   0.632979 0.542180 0.274814 -0.096027
C29   C     C_R   0.359690 0.460314 0.675384 -0.185367
C30   C     C_R   0.640323 0.539756 0.324619 -0.185367
C31   C     C_R   0.667597 0.534598 0.667161 -0.234954
C32   C     C_R   0.332410 0.465493 0.332835 -0.234944
C33   C     C_R   0.674670 0.534623 0.717161 0.225021
C34   C     C_R   0.486221 0.501755 0.102105 -0.048470
C35   C     C_R   0.325341 0.465524 0.282835 0.225026
C36   C     C_R   0.523158 0.496663 0.746278 0.251112
C37   C     C_R   0.476856 0.503504 0.253722 0.251124
C38   C     C_R   0.547283 0.639009 0.872412 -0.025353
C39   C     C_R   0.452811 0.361159 0.127587 -0.025349
C40   C     C_R   0.579546 0.778932 0.897571 -0.129937
C41   C     C_R   0.420571 0.221233 0.102427 -0.129935
C42   C     C_R   0.486025 0.357154 0.871991 -0.021373
H1    H     H_    0.784737 0.564226 0.644868 0.173720
H2    H     H_    0.251441 0.425851 0.747706 0.180786
H3    H     H_    0.577170 0.891806 0.122367 0.194906
H4    H     H_    0.422909 0.108362 0.877633 0.194913
H5    H     H_    0.594696 0.895369 0.037315 0.139813
H6    H     H_    0.405441 0.104793 0.962684 0.139813
H7    H     H_    0.605633 0.894019 0.963618 0.139327
H8    H     H_    0.394516 0.106142 0.036381 0.139327
H9    H     H_    0.702096 0.009968 0.494193 0.181907
H10   H     H_    0.297904 0.990032 0.505806 0.181907
H11   H     H_    0.215267 0.435852 0.355124 0.173720
H12   H     H_    0.013612 0.383263 0.463438 0.193627
H13   H     H_    0.986387 0.616737 0.536562 0.193626
H14   H     H_    0.608984 0.887950 0.878637 0.193000
H15   H     H_    0.391130 0.112215 0.121360 0.193002
H16   H     H_    0.762756 0.569694 0.340217 0.179989
H17   H     H_    0.237258 0.430344 0.659788 0.179987
H18   H     H_    0.748574 0.574295 0.252301 0.180785
I1    I     I_    0.916280 0.589991 0.746671 -0.331594
I2    I     I_    0.083739 0.410189 0.253318 -0.331603
N1    N     N_R   0.525177 0.497075 0.797682 -0.353027
N2    N     N_R   0.474853 0.503097 0.202318 -0.353025
N3    N     N_2   0.950320 0.457960 0.486880 -0.174013
N4    N     N_2   0.049680 0.542040 0.513120 -0.174012
O1    O     O_R   0.389250 0.738570 0.503220 -0.610395
O2    O     O_2   0.432305 0.228594 0.202636 -0.505009
O3    O     O_2   0.524844 0.776963 0.203781 -0.517586
O4    O     O_2   0.475141 0.223213 0.796220 -0.517599
O5    O     O_R   0.610750 0.261430 0.496780 -0.610393
O6    O     O_R   0.678390 0.711630 0.494810 -0.630226
O7    O     O_R   0.321610 0.288370 0.505190 -0.630223
O8    O     O_R   0.355440 0.513440 0.575450 -0.616747
O9    O     O_R   0.644560 0.486560 0.424550 -0.616747
O10   O     O_R   0.644590 0.486500 0.567040 -0.628564
O11   O     O_R   0.355410 0.513500 0.432960 -0.628564
O12   O     O_2   0.567761 0.771576 0.797363 -0.505011
Zn1   Zn    Zn3+2 0.306940 0.517990 0.505620 0.958400
Zn2   Zn    Zn3+2 0.693060 0.482010 0.494380 0.958398

loop_
_geom_bond_atom_site_label_1
_geom_bond_atom_site_label_2
_ccdc_geom_bond_type
C27   C29   A    
C11   H5    S    
C33   C36   A    
C39   C41   A    
H12   N3    S    
N4    Zn1   S    
C23   C42   A    
C31   H1    S    
C16   O8    A    
C35   C37   A    
C5    C11   A    
C20   H9    S    
C11   C14   A    
C22   C38   A    
C24   C39   A    
C25   N1    A    
C3    C29   A    
C26   N2    A    
C18   C40   A    
C22   N1    A    
C27   H2    S    
C29   H17   S    
C40   H14   S    
C31   C33   A    
C36   N1    S    
O9    Zn2   S    
C2    C34   A    
C28   H18   S    
C24   N2    A    
N3    Zn2   S    
C12   O7    A    
O5    Zn2   S    
C14   H3    S    
O11   Zn1   S    
C1    O6    A    
C34   C39   A    
C32   C35   A    
O1    Zn1   S    
C22   O12   S    
C12   C21   S    
C8    C18   A    
C5    C9    A    
C5    C8    A    
C17   O11   A    
O7    Zn1   S    
C2    C26   A    
C3    C31   A    
C4    C32   A    
C4    C17   S    
C8    C10   A    
C12   O5    A    
C7    C19   A    
O8    Zn1   S    
C13   C15   A    
C9    C34   A    
C10   C23   A    
C32   H11   S    
C37   N2    S    
C7    C9    A    
C1    C20   S    
C16   O10   A    
O10   Zn2   S    
C15   C42   A    
C25   C42   A    
C6    C10   A    
C13   H6    S    
C6    C7    A    
C27   C36   A    
C23   C38   A    
C28   C30   A    
C41   H15   S    
O6    Zn2   S    
C6    C13   A    
C38   C40   A    
C19   H8    S    
C28   C37   A    
C30   H16   S    
C1    O1    A    
C35   I2    S    
C2    C14   A    
C24   O2    S    
C20   C21   D    
C33   I1    S    
N3    N4    D    
C17   O9    A    
C26   O3    S    
C25   O4    S    
C15   H4    S    
C21   H10   S    
C4    C30   A    
C3    C16   S    
C19   C41   A    
C18   H7    S    
H13   N4    S    
