data_str_m9_o18_o19_f0_sra.sym.1
_audit_creation_date              2012-12-11T15:27:35-0500
_audit_creation_method            fapswitch 2.2
_symmetry_space_group_name_H-M    P1
_symmetry_Int_Tables_number       1
_space_group_crystal_system       triclinic
_cell_length_a                    23.265753
_cell_length_b                    7.301811
_cell_length_c                    15.141964
_cell_angle_alpha                 90.421625
_cell_angle_beta                  108.293491
_cell_angle_gamma                 89.492964
_cell_volume                      2442.22146638

loop_
_atom_site_label
_atom_site_type_symbol
_atom_type_description
_atom_site_fract_x
_atom_site_fract_y
_atom_site_fract_z
_atom_type_partial_charge
O1    O     O_R   0.711000 0.648610 0.341170 -0.535458
O2    O     O_R   0.289000 0.351390 0.658830 -0.535458
O3    O     O_R   0.789000 0.148610 0.158830 -0.535972
O4    O     O_R   0.211000 0.851390 0.841170 -0.535972
O5    O     O_R   0.829650 0.322030 0.336650 -0.537616
O6    O     O_R   0.170350 0.677970 0.663350 -0.537616
O7    O     O_R   0.670350 0.822030 0.163350 -0.536886
O8    O     O_R   0.329650 0.177970 0.836650 -0.536887
C1    C     C_R   0.854283 0.485520 0.356774 0.717318
C2    C     C_R   0.145717 0.514480 0.643226 0.717318
C3    C     C_R   0.645721 0.986070 0.143224 0.717891
C4    C     C_R   0.354279 0.013930 0.856776 0.717892
O9    O     O_R   0.713950 0.319280 0.352070 -0.539836
O10   O     O_R   0.286050 0.680720 0.647930 -0.539836
O11   O     O_R   0.786050 0.819280 0.147930 -0.539366
O12   O     O_R   0.213950 0.180720 0.852070 -0.539366
O13   O     O_R   0.672470 0.142870 0.174360 -0.533678
O14   O     O_R   0.327530 0.857130 0.825640 -0.533678
O15   O     O_R   0.827530 0.642870 0.325640 -0.533006
O16   O     O_R   0.172470 0.357130 0.674360 -0.533006
C5    C     C_R   0.701899 0.488482 0.375951 0.682276
C6    C     C_R   0.298101 0.511518 0.624049 0.682277
C7    C     C_R   0.798134 0.986552 0.124014 0.682435
C8    C     C_R   0.201866 0.013448 0.875986 0.682435
O17   O     O_3   0.736530 0.478650 0.191680 -0.378333
O18   O     O_3   0.263470 0.521350 0.808320 -0.378333
O19   O     O_3   0.763470 0.978650 0.308320 -0.378707
O20   O     O_3   0.236530 0.021350 0.691680 -0.378708
V1    V     V_3+5 0.752500 0.206170 0.260820 1.425600
V2    V     V_3+5 0.247500 0.793830 0.739180 1.425600
V3    V     V_3+5 0.747500 0.706170 0.239180 1.428426
V4    V     V_3+5 0.252500 0.293830 0.760820 1.428426
C9    C     C_R   0.827553 0.989996 0.052045 -0.025153
C10   C     C_R   0.172447 0.010004 0.947955 -0.025153
C11   C     C_R   0.672378 0.501633 0.447643 -0.025907
C12   C     C_R   0.327622 0.498367 0.552357 -0.025906
C13   C     C_R   0.823526 0.940906 0.892614 -0.161266
C14   C     C_R   0.176474 0.059094 0.107385 -0.161266
C15   C     C_R   0.675306 0.587880 0.602950 -0.161130
C16   C     C_R   0.324694 0.412120 0.397050 -0.161130
C17   C     C_R   0.794278 0.953582 0.959674 -0.171269
C18   C     C_R   0.205722 0.046418 0.040326 -0.171269
C19   C     C_R   0.704901 0.560105 0.537129 -0.171448
C20   C     C_R   0.295099 0.439895 0.462871 -0.171448
C21   C     C_R   0.890183 0.013197 0.077750 -0.210970
C22   C     C_R   0.109817 0.986803 0.922250 -0.210971
C23   C     C_R   0.610164 0.471309 0.423553 -0.211143
C24   C     C_R   0.389836 0.528691 0.576447 -0.211143
C25   C     C_R   0.921426 0.996452 0.011508 0.082363
C26   C     C_R   0.078574 0.003548 0.988492 0.082363
C27   C     C_R   0.578528 0.502705 0.488326 0.082037
C28   C     C_R   0.421472 0.497295 0.511674 0.082037
C29   C     C_R   0.886608 0.960295 0.917746 0.140263
C30   C     C_R   0.113392 0.039705 0.082254 0.140263
C31   C     C_R   0.612576 0.561401 0.579200 0.139791
C32   C     C_R   0.387424 0.438599 0.420800 0.139791
C33   C     C_R   0.985817 0.010968 0.035380 0.058350
C34   C     C_R   0.014183 0.989032 0.964620 0.058350
C35   C     C_R   0.514430 0.481119 0.465540 0.058113
C36   C     C_R   0.485570 0.518881 0.534460 0.058113
C37   C     C_R   0.977211 0.954250 0.872365 -0.186443
C38   C     C_R   0.022789 0.045749 0.127635 -0.186443
C39   C     C_R   0.521784 0.576073 0.623904 -0.186496
C40   C     C_R   0.478216 0.423927 0.376096 -0.186496
C41   C     C_R   0.914871 0.940773 0.849747 -0.200778
C42   C     C_R   0.085129 0.059227 0.150253 -0.200778
C43   C     C_R   0.583859 0.596181 0.645522 -0.200531
C44   C     C_R   0.416141 0.403819 0.354478 -0.200531
H1    H     H_    0.888491 0.913118 0.778070 0.123138
H2    H     H_    0.111509 0.086883 0.221930 0.123138
H3    H     H_    0.609645 0.641121 0.714983 0.123138
H4    H     H_    0.390355 0.358879 0.285017 0.123138
H5    H     H_    0.087054 0.961623 0.849548 0.097540
H6    H     H_    0.912946 0.038377 0.150452 0.097540
H7    H     H_    0.412050 0.571188 0.647102 0.097857
H8    H     H_    0.587950 0.428812 0.352898 0.097857
H9    H     H_    0.254203 0.066757 0.060212 0.104818
H10   H     H_    0.745797 0.933243 0.939788 0.104818
H11   H     H_    0.246968 0.414091 0.444390 0.105511
H12   H     H_    0.753031 0.585909 0.555609 0.105511
H13   H     H_    0.796917 0.912356 0.821178 0.112111
H14   H     H_    0.203083 0.087644 0.178822 0.112111
H15   H     H_    0.701317 0.633544 0.672132 0.112317
H16   H     H_    0.298683 0.366456 0.327868 0.112317
H17   H     H_    0.994818 0.935752 0.815155 0.124897
H18   H     H_    0.005182 0.064248 0.184844 0.124897
H19   H     H_    0.503760 0.607604 0.679563 0.125070
H20   H     H_    0.496240 0.392396 0.320437 0.125069
C45   C     C_1   0.416774 0.006320 0.918720 -0.191282
C46   C     C_1   0.583226 0.993680 0.081280 -0.191282
C47   C     C_1   0.083219 0.507643 0.581253 -0.191273
C48   C     C_1   0.916780 0.492357 0.418747 -0.191272
C49   C     C_1   0.469146 0.002076 0.969950 0.001393
C50   C     C_1   0.530854 0.997924 0.030050 0.001394
C51   C     C_1   0.030854 0.502731 0.530038 0.001293
C52   C     C_1   0.969146 0.497269 0.469962 0.001293

loop_
_geom_bond_atom_site_label_1
_geom_bond_atom_site_label_2
_ccdc_geom_bond_type
O17   V3    S    
O1    C5    A    
C49   C50   S    
O19   V1    S    
C9    C21   A    
C16   H16   S    
O3    C7    A    
C51   C52   S    
C10   C18   A    
C48   C52   T    
O15   V3    S    
C25   C33   A    
C33   C38   A    
O18   V4    S    
C38   H18   S    
C35   C40   A    
C26   C30   A    
C36   C39   A    
C40   C44   A    
O9    V1    S    
C23   H8    S    
C14   C18   A    
O4    C8    A    
C25   C29   A    
O1    V3    S    
O13   V1    S    
O2    V4    S    
O3    V1    S    
C28   C36   A    
C1    O15   A    
C15   C31   A    
C2    O16   A    
C7    C9    S    
O2    C6    A    
C10   C22   A    
C11   C19   A    
C16   C20   A    
C43   H3    S    
C44   H4    S    
C13   C29   A    
C34   C37   A    
O11   C7    A    
C11   C23   A    
C35   C36   A    
O12   C8    A    
C14   H14   S    
C45   C49   T    
C24   H7    S    
C13   H13   S    
O10   V2    S    
C1    C48   S    
C46   C50   T    
O5    V1    S    
C39   C43   A    
O7    V3    S    
C38   C42   A    
O8    V4    S    
C4    C45   S    
C17   H10   S    
C23   C27   A    
C16   C32   A    
C19   H12   S    
C32   C44   A    
C8    C10   S    
C21   H6    S    
C26   C34   A    
O7    C3    A    
O5    C1    A    
C31   C43   A    
C14   C30   A    
C21   C25   A    
O8    C4    A    
O9    C5    A    
C37   H17   S    
O14   V2    S    
O6    V2    S    
C2    C47   S    
C12   C20   A    
C27   C35   A    
C29   C41   A    
O16   V4    S    
C3    O13   A    
C39   H19   S    
C20   H11   S    
O6    C2    A    
C15   C19   A    
O11   V3    S    
C30   C42   A    
O12   V4    S    
C6    C12   S    
C22   C26   A    
C9    C17   A    
O10   C6    A    
O20   V2    S    
C5    C11   S    
C15   H15   S    
C3    C46   S    
C33   C34   A    
C42   H2    S    
C41   H1    S    
C12   C24   A    
C27   C31   A    
C13   C17   A    
C47   C51   T    
C37   C41   A    
C24   C28   A    
C18   H9    S    
C4    O14   A    
C40   H20   S    
C22   H5    S    
O4    V2    S    
C28   C32   A    
