data_str_m3_o10_o15_f0_pcu.sym.119
_audit_creation_date              2012-12-10T16:50:55-0500
_audit_creation_method            fapswitch 2.2
_symmetry_space_group_name_H-M    P1
_symmetry_Int_Tables_number       1
_space_group_crystal_system       triclinic
_cell_length_a                    7.723911
_cell_length_b                    8.612476
_cell_length_c                    10.912425
_cell_angle_alpha                 91.379392
_cell_angle_beta                  85.387651
_cell_angle_gamma                 93.524347
_cell_volume                      722.063540413

loop_
_atom_site_label
_atom_site_type_symbol
_atom_type_description
_atom_site_fract_x
_atom_site_fract_y
_atom_site_fract_z
_atom_type_partial_charge
C1    C     C_R   0.545302 0.794576 0.498644 0.881468
C2    C     C_R   0.953328 0.403122 0.051028 -0.203198
C3    C     C_R   0.025734 0.555305 0.074108 -0.226297
C4    C     C_R   0.971161 0.436095 0.924946 -0.208245
C5    C     C_R   0.179600 0.565112 0.135498 -0.197847
C6    C     C_R   0.816708 0.426375 0.864190 -0.191797
C7    C     C_R   0.342039 0.530480 0.071584 0.041940
C8    C     C_R   0.655319 0.462954 0.928439 0.027762
C9    C     C_R   0.355761 0.552322 0.944765 -0.068611
C10   C     C_R   0.641826 0.441762 0.055327 0.028568
C11   C     C_R   0.490313 0.484498 0.127686 -0.178973
C12   C     C_R   0.454694 0.205424 0.501397 0.901626
C13   C     C_R   0.507779 0.510460 0.872442 -0.204484
C14   C     C_2   0.565769 0.957507 0.515087 0.187090
C15   C     C_2   0.434203 0.042494 0.484994 0.213015
C16   C     C_R   0.503144 0.504456 0.739978 0.880862
C17   C     C_R   0.496343 0.493596 0.260078 0.930126
C18   C     C_R   0.214545 0.625105 0.896710 0.478384
C19   C     C_R   0.781222 0.368179 0.103590 0.475106
C20   C     C_R   0.043677 0.588220 0.948141 -0.090531
H1    H     H_    0.961143 0.679421 0.924121 0.182077
H2    H     H_    0.826698 0.371407 0.774507 0.210267
H3    H     H_    0.780889 0.940160 0.596936 0.345963
H4    H     H_    0.219033 0.059836 0.403183 0.340431
H5    H     H_    0.037220 0.312324 0.073416 0.160733
H6    H     H_    0.015309 0.384016 0.405703 0.189110
H7    H     H_    0.984698 0.615957 0.594326 0.210507
H8    H     H_    0.063388 0.363288 0.873186 0.173794
H9    H     H_    0.933474 0.628519 0.125423 0.166332
H10   H     H_    0.366379 0.781735 0.810345 0.324958
H11   H     H_    0.853763 0.216077 0.215811 0.323812
H12   H     H_    0.167151 0.618238 0.225681 0.207634
N1    N     N_2   0.950330 0.457950 0.466250 -0.174008
N2    N     N_2   0.049670 0.542050 0.533750 -0.160998
O1    O     O_R   0.389250 0.738570 0.508280 -0.542874
O2    O     O_3   0.743778 0.250001 0.187165 -0.759595
O3    O     O_3   0.707016 0.023059 0.573553 -0.776372
O4    O     O_3   0.292930 0.976945 0.426550 -0.768604
O5    O     O_R   0.610750 0.261430 0.491720 -0.544233
O6    O     O_R   0.678390 0.711630 0.486650 -0.652732
O7    O     O_R   0.321610 0.288370 0.513350 -0.654386
O8    O     O_R   0.355430 0.513480 0.694040 -0.595693
O9    O     O_R   0.644570 0.486520 0.305960 -0.595706
O10   O     O_R   0.644570 0.486540 0.672410 -0.644387
O11   O     O_R   0.355430 0.513460 0.327590 -0.654987
O12   O     O_3   0.240888 0.748119 0.816776 -0.761609
Zn1   Zn    Zn3+2 0.306940 0.517990 0.514440 0.991682
Zn2   Zn    Zn3+2 0.693060 0.482010 0.485560 0.982917

loop_
_geom_bond_atom_site_label_1
_geom_bond_atom_site_label_2
_ccdc_geom_bond_type
H4    O4    S    
C17   O9    A    
C15   O4    S    
C8    C13   A    
N2    Zn1   S    
C5    C7    A    
O9    Zn2   S    
C16   O10   A    
H6    N1    S    
C2    C4    A    
C14   C15   D    
C12   C15   S    
C10   C19   A    
O8    Zn1   S    
C5    H12   S    
O1    Zn1   S    
C7    C9    A    
C12   O5    A    
C2    C3    A    
O7    Zn1   S    
C3    C20   A    
C14   O3    S    
C7    C11   A    
C12   O7    A    
C6    C8    A    
C18   O12   S    
C8    C10   A    
C4    H8    S    
C17   O11   A    
N1    N2    D    
C2    H5    S    
C18   C20   A    
C19   O2    S    
O11   Zn1   S    
H7    N2    S    
C10   C11   A    
C4    C20   A    
C16   O8    A    
C9    C18   A    
C20   H1    S    
C1    O1    A    
C4    C6    A    
C13   C16   S    
C3    H9    S    
N1    Zn2   S    
C9    C13   A    
O6    Zn2   S    
C11   C17   S    
H11   O2    S    
C1    C14   S    
C1    O6    A    
C2    C19   A    
H3    O3    S    
H10   O12   S    
O10   Zn2   S    
O5    Zn2   S    
C3    C5    A    
C6    H2    S    
