data_str_m2_o10_o29_f0_pcu.sym.65
_audit_creation_date              2012-10-26T20:17:40-0400
_audit_creation_method            fapswitch 2.2
_symmetry_space_group_name_H-M    P1
_symmetry_Int_Tables_number       1
_space_group_crystal_system       triclinic
_cell_length_a                    27.795314
_cell_length_b                    8.659455
_cell_length_c                    7.434438
_cell_angle_alpha                 103.215685
_cell_angle_beta                  94.118755
_cell_angle_gamma                 92.418704
_cell_volume                      1734.35313676

loop_
_atom_site_label
_atom_site_type_symbol
_atom_type_description
_atom_site_fract_x
_atom_site_fract_y
_atom_site_fract_z
_atom_type_partial_charge
Br1   Br    Br    0.648417 0.334058 0.803412 -0.474283
Br2   Br    Br    0.351593 0.665989 0.196602 -0.474291
C1    C     C_R   0.498519 0.199530 0.452976 0.555625
C2    C     C_R   0.869207 0.352931 0.417068 -0.021160
C3    C     C_R   0.354964 0.509093 0.510142 0.018711
C4    C     C_R   0.645037 0.490943 0.489865 0.018711
C5    C     C_R   0.971817 0.351329 0.429819 0.014370
C6    C     C_R   0.028185 0.648815 0.570128 0.014360
C7    C     C_R   0.976670 0.642357 0.568826 0.011744
C8    C     C_R   0.023331 0.357790 0.431094 0.011768
C9    C     C_R   0.948959 0.496363 0.492060 -0.029304
C10   C     C_R   0.051042 0.503778 0.507886 -0.029317
C11   C     C_R   0.941896 0.205634 0.375607 0.237554
C12   C     C_R   0.501481 0.800469 0.547024 0.555623
C13   C     C_R   0.058109 0.794504 0.624368 0.237574
C14   C     C_R   0.891553 0.210557 0.370864 -0.101068
C15   C     C_R   0.108452 0.789571 0.629145 -0.101035
C16   C     C_R   0.407621 0.503777 0.502993 0.572751
C17   C     C_R   0.592379 0.496229 0.497008 0.572752
C18   C     C_R   0.048640 0.223991 0.351647 -0.098949
C19   C     C_R   0.951358 0.776169 0.648215 -0.098989
C20   C     C_2   0.497783 0.031406 0.426575 -0.124687
C21   C     C_2   0.502217 0.968593 0.573425 -0.124689
C22   C     C_R   0.176523 0.366540 0.464976 0.403642
C23   C     C_R   0.102472 0.504717 0.516882 -0.046556
C24   C     C_R   0.823476 0.633585 0.534986 0.403636
C25   C     C_R   0.181442 0.645795 0.590735 0.407977
C26   C     C_R   0.818561 0.354321 0.409293 0.407977
C27   C     C_R   0.276017 0.570052 0.392147 -0.022688
C28   C     C_R   0.723989 0.430055 0.607886 -0.022686
C29   C     C_R   0.325914 0.570875 0.382036 0.138363
C30   C     C_R   0.674091 0.429192 0.617984 0.138367
C31   C     C_R   0.333055 0.450977 0.648232 -0.136602
C32   C     C_R   0.666941 0.549070 0.351775 -0.136607
C33   C     C_R   0.283118 0.450556 0.656565 -0.038620
C34   C     C_R   0.897529 0.495415 0.483081 -0.046541
C35   C     C_R   0.716879 0.549527 0.343449 -0.038620
C36   C     C_R   0.254550 0.509529 0.528023 0.204171
C37   C     C_R   0.745452 0.490580 0.472002 0.204170
C38   C     C_3   0.948139 0.959947 0.180293 -0.023754
C39   C     C_3   0.975781 0.809374 0.155439 -0.355500
C40   C     C_3   0.051855 0.040174 0.819697 -0.023770
C41   C     C_3   0.024250 0.190819 0.844465 -0.355486
C42   C     C_R   0.125873 0.363546 0.453643 0.026721
C43   C     C_R   0.874126 0.636586 0.546292 0.026721
C44   C     C_R   0.098481 0.224745 0.369288 -0.124956
C45   C     C_R   0.901517 0.775403 0.630585 -0.124990
C46   C     C_R   0.130795 0.647194 0.582936 -0.021162
Cu1   Cu    Cu3+1 0.505380 0.517380 0.684380 1.029154
Cu2   Cu    Cu3+1 0.494620 0.482620 0.315620 1.029155
H1    H     H_    0.354529 0.403484 0.748148 0.156250
H2    H     H_    0.253635 0.616676 0.293968 0.161658
H3    H     H_    0.869577 0.100157 0.339905 0.173738
H4    H     H_    0.130430 0.899969 0.660127 0.173754
H5    H     H_    0.031595 0.117936 0.264786 0.171990
H6    H     H_    0.968399 0.882254 0.735016 0.172058
H7    H     H_    0.493588 0.959090 0.285377 0.145799
H8    H     H_    0.506411 0.040910 0.714623 0.145796
H9    H     H_    0.909072 0.922203 0.159762 0.144072
H10   H     H_    0.957274 0.022498 0.070734 0.101787
H11   H     H_    0.963095 0.735901 0.248386 0.180683
H12   H     H_    0.645465 0.596543 0.251850 0.156250
H13   H     H_    0.969147 0.738350 0.010726 0.095762
H14   H     H_    0.015188 0.838559 0.187205 0.161194
H15   H     H_    0.090929 0.077818 0.840365 0.144033
H16   H     H_    0.042672 0.977641 0.929213 0.101759
H17   H     H_    0.984841 0.161725 0.812583 0.161266
H18   H     H_    0.036984 0.264254 0.751553 0.180678
H19   H     H_    0.030869 0.261844 0.989186 0.095750
H20   H     H_    0.462052 0.378131 0.948327 0.242315
H21   H     H_    0.537948 0.621869 0.051673 0.242313
H22   H     H_    0.266589 0.404004 0.762304 0.157372
H23   H     H_    0.733406 0.596078 0.237705 0.157375
H24   H     H_    0.115495 0.116840 0.308711 0.163490
H25   H     H_    0.884502 0.883314 0.691123 0.163501
H26   H     H_    0.746375 0.383452 0.706072 0.161655
N1    N     N_R   0.203132 0.506573 0.532667 -0.398071
N2    N     N_R   0.796869 0.493544 0.467343 -0.398072
N3    N     N_2   0.486510 0.456430 0.038510 -0.239140
N4    N     N_2   0.513490 0.543570 0.961490 -0.239141
O1    O     O_R   0.503500 0.286120 0.619780 -0.502055
O2    O     O_2   0.800981 0.768797 0.594604 -0.473698
O3    O     O_2   0.791156 0.217633 0.344881 -0.463707
O4    O     O_2   0.208848 0.782477 0.655187 -0.463713
O5    O     O_3   0.960871 0.057718 0.360017 -0.538835
O6    O     O_3   0.039142 0.942428 0.639945 -0.538827
O7    O     O_R   0.496500 0.713880 0.380220 -0.502053
O8    O     O_R   0.494410 0.256780 0.308360 -0.496557
O9    O     O_R   0.505590 0.743220 0.691640 -0.496560
O10   O     O_R   0.434810 0.514700 0.655690 -0.510068
O11   O     O_R   0.565190 0.485300 0.344310 -0.510070
O12   O     O_R   0.425720 0.485350 0.344280 -0.456654
O13   O     O_R   0.574280 0.514650 0.655720 -0.456656
O14   O     O_2   0.199017 0.231330 0.405334 -0.473702

loop_
_geom_bond_atom_site_label_1
_geom_bond_atom_site_label_2
_ccdc_geom_bond_type
C25   C46   A    
C38   O5    S    
C5    C8    A    
C4    C30   A    
C2    C34   A    
C38   H10   S    
C21   H8    S    
C32   C35   A    
C15   C46   A    
C39   H11   S    
Cu1   O10   S    
Cu2   N3    S    
C20   H7    S    
C5    C9    A    
C4    C17   S    
C24   N2    A    
C25   O4    S    
C12   O7    A    
C32   H12   S    
Cu1   O1    S    
C14   H3    S    
C3    C29   A    
C24   C43   A    
C8    C18   A    
C41   H18   S    
C3    C31   A    
C27   C36   A    
C1    O1    A    
C40   H15   S    
C40   O6    S    
C26   N2    A    
C17   O13   A    
Cu2   O8    S    
H20   N3    S    
C24   O2    S    
C38   H9    S    
C26   O3    S    
C27   C29   A    
C18   H5    S    
C23   C42   A    
H21   N4    S    
C2    C26   A    
C42   C44   A    
C43   C45   A    
C16   O10   A    
C37   N2    S    
C33   C36   A    
C6    C7    A    
C3    C16   S    
Br1   C30   S    
C4    C32   A    
Br2   C29   S    
C12   C21   S    
C2    C14   A    
C12   O9    A    
C22   O14   S    
C28   H26   S    
C22   N1    A    
C6    C10   A    
C34   C43   A    
C7    C9    A    
C23   C46   A    
C8    C10   A    
Cu2   O7    S    
C13   O6    S    
Cu2   O12   S    
C38   C39   S    
C33   H22   S    
C6    C13   A    
C22   C42   A    
C40   C41   S    
C39   H13   S    
C44   H24   S    
C13   C15   A    
C35   H23   S    
C9    C34   A    
C1    O8    A    
Cu1   O9    S    
C25   N1    A    
C19   H6    S    
C36   N1    S    
C31   H1    S    
Cu1   N4    S    
C10   C23   A    
C16   O12   A    
C45   H25   S    
C35   C37   A    
C28   C30   A    
C7    C19   A    
C31   C33   A    
C28   C37   A    
C17   O11   A    
N3    N4    D    
Cu2   O11   S    
C5    C11   A    
C41   H17   S    
Cu1   Cu2   S    
C11   C14   A    
C11   O5    S    
C40   H16   S    
C20   C21   D    
C1    C20   S    
C39   H14   S    
Cu1   O13   S    
C41   H19   S    
C15   H4    S    
C18   C44   A    
C19   C45   A    
C27   H2    S    
