data_str_m3_o5_o29_f0_pcu.sym.118
_audit_creation_date              2013-03-05T16:48:40-0500
_audit_creation_method            fapswitch 2.2
_symmetry_space_group_name_H-M    P1
_symmetry_Int_Tables_number       1
_space_group_crystal_system       triclinic
_cell_length_a                    27.821388
_cell_length_b                    8.909705
_cell_length_c                    8.094182
_cell_angle_alpha                 90.036399
_cell_angle_beta                  89.999835
_cell_angle_gamma                 89.999898
_cell_volume                      2006.38834132

loop_
_atom_site_label
_atom_site_type_symbol
_atom_site_description
_atom_site_fract_x
_atom_site_fract_y
_atom_site_fract_z
_atom_type_partial_charge
O1    O     O_R   0.500000 0.285350 0.636850 -0.613104
O2    O     O_R   0.500000 0.714650 0.363150 -0.613104
O3    O     O_R   0.500000 0.714650 0.636850 -0.611530
O4    O     O_R   0.500000 0.285350 0.363150 -0.611530
C1    C     C_R   0.499997 0.217993 0.499961 0.940087
C2    C     C_R   0.499997 0.782007 0.500039 0.940087
O5    O     O_R   0.428760 0.500000 0.636860 -0.613082
O6    O     O_R   0.571240 0.500000 0.363140 -0.613013
O7    O     O_R   0.571240 0.500000 0.636860 -0.613013
O8    O     O_R   0.428760 0.500000 0.363140 -0.613082
C3    C     C_R   0.405828 0.500001 0.500000 0.866516
C4    C     C_R   0.594188 0.499999 0.500000 0.866301
Zn1   Zn    Zn3+2 0.500000 0.500000 0.682780 1.025525
Zn2   Zn    Zn3+2 0.500000 0.500000 0.317220 1.025526
C5    C     C_R   0.177468 0.369609 0.533315 0.512521
C6    C     C_R   0.822598 0.630925 0.469168 0.512356
C7    C     C_R   0.177468 0.630422 0.466693 0.512522
C8    C     C_R   0.822598 0.369103 0.530798 0.512354
O9    O     O_2   0.202347 0.243345 0.567853 -0.539083
O10   O     O_2   0.797720 0.757730 0.437105 -0.538276
O11   O     O_2   0.202347 0.756686 0.432156 -0.539083
O12   O     O_2   0.797720 0.242298 0.562860 -0.538277
N1    N     N_R   0.201374 0.500015 0.500003 -0.351649
N2    N     N_R   0.798692 0.500014 0.499983 -0.351797
C9    C     C_R   0.277492 0.581466 0.619908 -0.127398
C10   C     C_R   0.722575 0.420507 0.378527 -0.127774
C11   C     C_R   0.277491 0.418557 0.380092 -0.127398
C12   C     C_R   0.722576 0.579514 0.621449 -0.127779
C13   C     C_R   0.327492 0.582911 0.620691 -0.055739
C14   C     C_R   0.672575 0.419035 0.377717 -0.055468
C15   C     C_R   0.327491 0.417103 0.379310 -0.055737
C16   C     C_R   0.672575 0.580972 0.622273 -0.055474
C17   C     C_R   0.252634 0.500013 0.500000 0.274069
C18   C     C_R   0.747431 0.500014 0.499984 0.274415
C19   C     C_R   0.101637 0.500016 0.500003 -0.050241
C20   C     C_R   0.898431 0.500014 0.499987 -0.050466
C21   C     C_R   0.127209 0.366961 0.532953 -0.022644
C22   C     C_R   0.872857 0.633546 0.469509 -0.022558
C23   C     C_R   0.127210 0.633071 0.467056 -0.022645
C24   C     C_R   0.872857 0.366482 0.530462 -0.022558
C25   C     C_R   0.102310 0.234528 0.565340 -0.137977
C26   C     C_R   0.897757 0.766492 0.439852 -0.137453
C27   C     C_R   0.102310 0.765505 0.434673 -0.137977
C28   C     C_R   0.897757 0.233535 0.560117 -0.137452
C29   C     C_R   0.353104 0.500004 0.500001 -0.129281
C30   C     C_R   0.646940 0.500001 0.499997 -0.129823
H1    H     H_    0.257559 0.355698 0.288000 0.156597
H2    H     H_    0.742512 0.640864 0.714752 0.156210
H3    H     H_    0.257561 0.644328 0.712001 0.156598
H4    H     H_    0.742512 0.359159 0.285221 0.156210
H5    H     H_    0.121226 0.130831 0.591204 0.191749
H6    H     H_    0.878839 0.870670 0.416543 0.190861
H7    H     H_    0.121227 0.869203 0.408815 0.191749
H8    H     H_    0.878839 0.129357 0.583419 0.190861
C31   C     C_R   0.974546 0.363997 0.531222 0.048432
C32   C     C_R   0.025523 0.635827 0.467656 0.048256
C33   C     C_R   0.974547 0.636033 0.468765 0.048432
C34   C     C_R   0.025522 0.364205 0.532343 0.048257
C35   C     C_R   0.949411 0.500015 0.499992 0.071120
C36   C     C_R   0.050658 0.500016 0.500001 0.071333
C37   C     C_R   0.947524 0.231870 0.560305 -0.219996
C38   C     C_R   0.052543 0.767265 0.434906 -0.220808
C39   C     C_R   0.947524 0.768158 0.439670 -0.219996
C40   C     C_R   0.052543 0.232769 0.565105 -0.220811
H9    H     H_    0.963395 0.123987 0.583715 0.136248
H10   H     H_    0.036677 0.874489 0.407905 0.137917
H11   H     H_    0.963395 0.876040 0.416253 0.136250
H12   H     H_    0.036677 0.125547 0.592114 0.137920
C41   C     C_1   0.499995 0.065233 0.499944 -0.168276
C42   C     C_1   0.499995 0.934767 0.500056 -0.168276
N3    N     N_1   0.500000 0.500000 0.073640 -0.018207
N4    N     N_1   0.500000 0.500000 0.926360 -0.018206
C43   C     C_1   0.351337 0.325641 0.256540 0.220670
N5    N     N_1   0.370389 0.252372 0.158224 -0.168263
C44   C     C_1   0.648778 0.670459 0.746904 0.221501
N6    N     N_1   0.629768 0.742133 0.846724 -0.168525
C45   C     C_1   0.351339 0.674367 0.743463 0.220669
N7    N     N_1   0.370393 0.747632 0.841780 -0.168264
C46   C     C_1   0.648777 0.329533 0.253101 0.221500
N8    N     N_1   0.629767 0.257845 0.153293 -0.168526

loop_
_geom_bond_atom_site_label_1
_geom_bond_atom_site_label_2
_geom_bond_distance
_ccdc_geom_bond_type
C31   C35   1.421952 A    
Zn2   N3    1.971581 S    
C20   C35   1.418343 A    
C16   C44   1.445907 S    
C45   N7    1.157471 T    
C11   C17   1.395009 A    
O5    C3    1.278360 A    
C7    N1    1.365799 A    
O1    C1    1.259756 A    
C40   H12   1.074964 S    
C19   C21   1.408221 A    
C22   C26   1.393181 A    
C10   H4    1.084555 S    
C7    C23   1.398466 A    
C15   C43   1.445903 S    
C34   C36   1.422024 A    
O7    Zn1   2.016542 S    
C32   C33   1.418253 A    
C43   N5    1.157472 T    
C8    C24   1.398481 A    
C5    C21   1.398466 A    
C20   C24   1.408156 A    
C1    C41   1.361049 S    
C5    O9    1.350267 S    
C27   H7    1.083814 S    
N1    C17   1.426130 S    
C8    N2    1.365790 A    
O3    Zn1   1.948498 S    
C6    O10   1.350263 S    
O3    C2    1.259871 A    
C5    N1    1.365799 A    
C12   C18   1.394856 A    
C6    N2    1.365789 A    
C21   C25   1.393287 A    
O2    C2    1.259756 A    
C10   C18   1.394857 A    
C33   C39   1.416626 A    
C9    C13   1.391149 A    
C39   H11   1.074718 S    
C38   H10   1.074964 S    
C11   C15   1.391147 A    
C12   C16   1.391154 A    
C4    C30   1.467626 S    
O8    Zn2   2.016545 S    
C23   C27   1.393288 A    
C34   C40   1.416765 A    
N2    C18   1.426141 S    
C32   C36   1.422026 A    
C13   C29   1.416603 A    
C19   C36   1.418293 A    
C19   C23   1.408221 A    
C44   N6    1.157440 T    
C37   H9    1.074718 S    
C24   C28   1.393182 A    
O6    C4    1.278581 A    
C9    C17   1.395009 A    
C14   C46   1.445907 S    
C10   C14   1.391152 A    
C32   C38   1.416765 A    
C3    C29   1.466860 S    
O1    Zn1   1.948035 S    
C11   H1    1.084558 S    
C2    C42   1.361049 S    
C12   H2    1.084553 S    
O6    Zn2   2.016544 S    
C8    O12   1.350264 S    
C16   C30   1.416964 A    
C14   C30   1.416965 A    
O4    C1    1.259871 A    
Zn1   N4    1.971581 S    
C28   C37   1.384656 A    
C20   C22   1.408157 A    
N3    N4    1.192110 T    
C31   C37   1.416625 A    
O4    Zn2   1.948499 S    
C41   C42   1.162410 T    
O2    Zn2   1.948034 S    
O7    C4    1.278583 A    
C9    H3    1.084558 S    
C33   C35   1.421953 A    
O8    C3    1.278360 A    
C46   N8    1.157442 T    
C28   H8    1.083691 S    
O5    Zn1   2.016547 S    
C13   C45   1.445904 S    
C15   C29   1.416603 A    
C31   C34   1.418253 A    
C6    C22   1.398484 A    
C25   C40   1.384674 A    
C26   C39   1.384659 A    
C25   H5    1.083815 S    
C27   C38   1.384674 A    
C26   H6    1.083691 S    
C7    O11   1.350266 S    
