data_str_m3_o10_o15_f0_pcu.sym.129
_audit_creation_date              2012-12-10T16:50:56-0500
_audit_creation_method            fapswitch 2.2
_symmetry_space_group_name_H-M    P1
_symmetry_Int_Tables_number       1
_space_group_crystal_system       triclinic
_cell_length_a                    7.928385
_cell_length_b                    8.605813
_cell_length_c                    10.594744
_cell_angle_alpha                 92.419643
_cell_angle_beta                  87.1723
_cell_angle_gamma                 92.990267
_cell_volume                      720.448471557

loop_
_atom_site_label
_atom_site_type_symbol
_atom_type_description
_atom_site_fract_x
_atom_site_fract_y
_atom_site_fract_z
_atom_type_partial_charge
C1    C     C_R   0.544182 0.793452 0.500712 0.888362
C2    C     C_R   0.908461 0.286926 0.056262 -0.132446
C3    C     C_R   0.012231 0.425760 0.041972 -0.119690
C4    C     C_R   0.906026 0.262404 0.923378 -0.193808
C5    C     C_R   0.157635 0.452588 0.113707 -0.103688
C6    C     C_R   0.760120 0.292527 0.860629 -0.166461
C7    C     C_R   0.322644 0.432266 0.059325 0.057326
C8    C     C_R   0.629946 0.370650 0.925835 0.065769
C9    C     C_R   0.334424 0.397272 0.929162 0.089129
C10   C     C_R   0.621799 0.375374 0.058603 0.059504
C11   C     C_R   0.477285 0.436720 0.124841 -0.166445
C12   C     C_R   0.455936 0.206449 0.499652 0.929066
C13   C     C_R   0.490977 0.415158 0.864705 -0.170950
C14   C     C_2   0.207572 0.214383 0.765162 0.436553
C15   C     C_2   0.693513 0.176572 0.210601 0.411683
C16   C     C_2   0.001594 0.306023 0.436580 0.591915
C17   C     C_2   0.987251 0.672038 0.604189 0.566177
C18   C     C_2   0.563213 0.957258 0.519092 0.203550
C19   C     C_2   0.436818 0.042265 0.483238 0.323641
C20   C     C_R   0.499038 0.474832 0.736903 0.884507
C21   C     C_R   0.492981 0.485392 0.259147 0.910542
C22   C     C_R   0.191986 0.338734 0.866345 -0.006806
C23   C     C_R   0.747179 0.296669 0.118153 0.020415
C24   C     C_R   0.032464 0.381033 0.913384 -0.207092
H1    H     H_    0.942326 0.146451 0.892021 0.171061
H2    H     H_    0.234608 0.057010 0.386767 0.376122
H3    H     H_    0.970961 0.214388 0.502209 0.061269
H4    H     H_    0.861122 0.671774 0.644984 0.070669
H5    H     H_    0.938857 0.528837 0.060186 0.158820
H6    H     H_    0.003001 0.475936 0.854165 0.160172
H7    H     H_    0.977382 0.197392 0.098968 0.186845
H8    H     H_    0.135331 0.505697 0.205999 0.211790
H9    H     H_    0.751609 0.255441 0.762111 0.209254
H10   H     H_    0.108569 0.193497 0.698571 0.060790
H11   H     H_    0.785631 0.126042 0.266780 0.089472
H12   H     H_    0.767800 0.940893 0.613073 0.342429
N1    N     N_2   0.950330 0.457950 0.466250 -0.184178
N2    N     N_2   0.049670 0.542050 0.533750 -0.162486
O1    O     O_R   0.389250 0.738570 0.508280 -0.498903
O2    O     O_2   0.546671 0.126593 0.219396 -0.587212
O3    O     O_3   0.698138 0.023723 0.584557 -0.810245
O4    O     O_3   0.302085 0.974838 0.418071 -0.729550
O5    O     O_2   0.072188 0.275094 0.334801 -0.652468
O6    O     O_2   0.082173 0.784210 0.628141 -0.547375
O7    O     O_R   0.610750 0.261430 0.491720 -0.618264
O8    O     O_R   0.678390 0.711630 0.486650 -0.672519
O9    O     O_R   0.321610 0.288370 0.513350 -0.663556
O10   O     O_R   0.355430 0.513480 0.694040 -0.623099
O11   O     O_R   0.644570 0.486520 0.305960 -0.632053
O12   O     O_R   0.644570 0.486540 0.672410 -0.679783
O13   O     O_R   0.355430 0.513460 0.327590 -0.595997
O14   O     O_2   0.325616 0.128380 0.760964 -0.570935
Zn1   Zn    Zn3+2 0.306940 0.517990 0.514440 1.026155
Zn2   Zn    Zn3+2 0.693060 0.482010 0.485560 0.933018

loop_
_geom_bond_atom_site_label_1
_geom_bond_atom_site_label_2
_ccdc_geom_bond_type
C14   H10   S    
C2    C4    A    
C6    H9    S    
C8    C13   A    
C10   C23   A    
C5    C7    A    
C20   O12   A    
C13   C20   S    
C19   O4    S    
C16   N1    S    
O9    Zn1   S    
C5    H8    S    
C14   C22   S    
C16   H3    S    
C15   C23   S    
C2    C3    A    
H12   O3    S    
C17   O6    D    
O1    Zn1   S    
C7    C11   A    
C16   O5    D    
O8    Zn2   S    
C1    C18   S    
O12   Zn2   S    
N2    Zn1   S    
C12   O9    A    
N1    Zn2   S    
C12   C19   S    
C21   O11   A    
N1    N2    D    
O7    Zn2   S    
C4    H1    S    
C22   C24   A    
C17   N2    S    
O10   Zn1   S    
C4    C24   A    
C24   H6    S    
C15   O2    D    
C4    C6    A    
C10   C11   A    
C1    O1    A    
O11   Zn2   S    
C7    C9    A    
C21   O13   A    
H2    O4    S    
C8    C10   A    
C18   C19   D    
C18   O3    S    
C15   H11   S    
C2    C23   A    
C3    H5    S    
C9    C13   A    
C9    C22   A    
C2    H7    S    
C6    C8    A    
C20   O10   A    
C1    O8    A    
C3    C5    A    
C17   H4    S    
C11   C21   S    
C14   O14   D    
C3    C24   A    
C12   O7    A    
O13   Zn1   S    
