data_str_m9_o17_o25_f0_sra.sym.45
_audit_creation_date              2012-12-11T15:24:36-0500
_audit_creation_method            fapswitch 2.2
_symmetry_space_group_name_H-M    P1
_symmetry_Int_Tables_number       1
_space_group_crystal_system       triclinic
_cell_length_a                    23.210953
_cell_length_b                    7.168393
_cell_length_c                    20.451611
_cell_angle_alpha                 90.001455
_cell_angle_beta                  93.48936
_cell_angle_gamma                 90.134047
_cell_volume                      3396.52824341

loop_
_atom_site_label
_atom_site_type_symbol
_atom_type_description
_atom_site_fract_x
_atom_site_fract_y
_atom_site_fract_z
_atom_type_partial_charge
O1    O     O_R   0.188030 0.379840 0.189340 -0.531963
O2    O     O_R   0.811970 0.620160 0.810660 -0.531620
O3    O     O_R   0.311970 0.879840 0.310660 -0.531107
O4    O     O_R   0.688030 0.120160 0.689340 -0.533468
O5    O     O_R   0.307090 0.708420 0.185790 -0.531464
O6    O     O_R   0.692910 0.291580 0.814210 -0.535188
O7    O     O_R   0.192910 0.208420 0.314210 -0.536825
O8    O     O_R   0.807090 0.791580 0.685790 -0.533925
C1    C     C_R   0.325136 0.540050 0.169086 0.743046
C2    C     C_R   0.674229 0.458197 0.829345 0.729052
C3    C     C_R   0.174650 0.039894 0.330509 0.737379
C4    C     C_R   0.825671 0.958473 0.670486 0.729111
O9    O     O_R   0.188180 0.709480 0.181650 -0.530124
O10   O     O_R   0.811820 0.290520 0.818350 -0.536981
O11   O     O_R   0.311820 0.209480 0.318350 -0.532836
O12   O     O_R   0.688180 0.790520 0.681650 -0.535897
O13   O     O_R   0.192210 0.880960 0.306500 -0.538930
O14   O     O_R   0.807790 0.119040 0.693500 -0.528471
O15   O     O_R   0.307790 0.380960 0.193500 -0.536336
O16   O     O_R   0.692210 0.619040 0.806500 -0.527038
C5    C     C_R   0.170066 0.540214 0.163191 0.752212
C6    C     C_R   0.830171 0.459248 0.835864 0.747086
C7    C     C_R   0.328240 0.040534 0.338584 0.749073
C8    C     C_R   0.669620 0.958857 0.664246 0.748438
O17   O     O_3   0.251460 0.546730 0.290970 -0.374777
O18   O     O_3   0.748540 0.453270 0.709030 -0.370447
O19   O     O_3   0.248540 0.046730 0.209030 -0.369442
O20   O     O_3   0.751460 0.953270 0.790970 -0.368876
V1    V     V_3+5 0.249730 0.821120 0.242400 1.464964
V2    V     V_3+5 0.750270 0.178880 0.757600 1.529219
V3    V     V_3+5 0.250270 0.321120 0.257600 1.457960
V4    V     V_3+5 0.749730 0.678880 0.742400 1.532775
C9    C     C_R   0.565454 0.941723 0.635241 -0.230805
C10   C     C_R   0.431499 0.037076 0.371550 -0.229407
C11   C     C_R   0.933458 0.433143 0.867113 -0.229596
C12   C     C_R   0.065973 0.522709 0.131405 -0.239165
C13   C     C_R   0.620751 0.966339 0.614279 -0.147325
C14   C     C_R   0.375844 0.032383 0.391403 -0.143100
C15   C     C_R   0.878319 0.467941 0.886522 -0.157101
C16   C     C_R   0.121839 0.529232 0.111252 -0.147358
C17   C     C_R   0.628463 0.999871 0.547466 0.283581
C18   C     C_R   0.367265 0.022302 0.459146 0.297041
C19   C     C_R   0.870183 0.515648 0.952155 0.293695
C20   C     C_R   0.130520 0.524130 0.043456 0.298550
C21   C     C_R   0.579386 0.004968 0.501611 -0.032552
C22   C     C_R   0.416324 0.005735 0.506139 -0.025711
C23   C     C_R   0.918605 0.516665 0.999307 -0.033517
C24   C     C_R   0.081708 0.503795 0.996392 -0.028471
C25   C     C_R   0.522830 0.001822 0.525904 -0.097554
C26   C     C_R   0.473181 0.016851 0.482731 -0.104903
C27   C     C_R   0.975430 0.502646 0.976003 -0.102834
C28   C     C_R   0.024820 0.515058 0.019577 -0.102886
C29   C     C_R   0.516223 0.973872 0.593264 0.031081
C30   C     C_R   0.480253 0.034139 0.415232 0.030181
C31   C     C_R   0.982418 0.468584 0.909048 0.029076
C32   C     C_R   0.017458 0.530726 0.087119 0.029040
C33   C     C_R   0.585757 0.004870 0.432808 0.346922
C34   C     C_R   0.410084 0.971345 0.574276 0.343079
C35   C     C_R   0.911381 0.525865 0.068021 0.350333
C36   C     C_R   0.088413 0.468533 0.928266 0.345396
C37   C     C_R   0.535669 0.035026 0.390357 0.298610
C38   C     C_R   0.460880 0.972091 0.618528 0.275987
C39   C     C_R   0.961826 0.546521 0.111282 0.272672
C40   C     C_R   0.037689 0.465546 0.883948 0.274995
H1    H     H_    0.561298 0.905152 0.686122 0.168134
H2    H     H_    0.436008 0.046373 0.320559 0.153551
H3    H     H_    0.937875 0.389336 0.816974 0.168308
H4    H     H_    0.060574 0.516411 0.182863 0.157357
C41   C     C_3   0.049982 0.035096 0.537064 -0.446505
C42   C     C_3   0.948141 0.005683 0.468846 -0.237003
C43   C     C_3   0.448806 0.533609 0.961088 -0.447830
C44   C     C_3   0.550756 0.506119 0.028953 -0.246819
C45   C     C_3   0.009312 0.862961 0.536803 0.470196
C46   C     C_3   0.990512 0.168359 0.466573 0.460648
C47   C     C_3   0.489483 0.361430 0.961414 0.476276
C48   C     C_3   0.508481 0.668440 0.030704 0.457228
H5    H     H_    0.091409 0.058285 0.566300 0.161624
H6    H     H_    0.904534 0.010205 0.443313 0.197876
H7    H     H_    0.407578 0.556895 0.931748 0.160559
H8    H     H_    0.594593 0.511301 0.054293 0.199466
C49   C     C_1   0.870503 0.964139 0.624383 -0.098751
C50   C     C_1   0.130083 0.028030 0.378190 -0.140577
C51   C     C_1   0.629003 0.463266 0.874749 -0.101157
C52   C     C_1   0.369500 0.528720 0.120923 -0.147708
C53   C     C_3   0.996622 0.164546 0.541913 0.244668
C54   C     C_3   0.999175 0.867449 0.461132 0.241277
C55   C     C_3   0.502149 0.662596 0.955457 0.249170
C56   C     C_3   0.499660 0.367287 0.036978 0.242490
C57   C     C_3   0.957329 0.991653 0.543256 -0.052052
C58   C     C_3   0.041961 0.033455 0.460596 -0.120629
C59   C     C_3   0.541437 0.490273 0.954553 -0.052420
C60   C     C_3   0.457111 0.533579 0.037526 -0.116973
C61   C     C_1   0.909263 0.970572 0.587077 0.139089
C62   C     C_1   0.091524 0.025033 0.416619 0.012113
C63   C     C_1   0.589811 0.469446 0.911427 0.138269
C64   C     C_1   0.407919 0.526393 0.082133 0.010400
Br1   Br    Br    0.705757 0.053137 0.522570 -0.535191
Br2   Br    Br    0.288276 0.050523 0.482873 -0.557811
Br3   Br    Br    0.793384 0.593296 0.972279 -0.502445
Br4   Br    Br    0.209209 0.561084 0.019695 -0.554930
O21   O     O_3   0.634852 0.914978 0.411416 -0.547658
C65   C     C_3   0.660533 0.993133 0.356172 0.225659
H9    H     H_    0.707762 0.001177 0.368666 0.157894
H10   H     H_    0.649325 0.139600 0.345923 0.075714
C66   C     C_3   0.652069 0.860459 0.296918 -0.334025
H11   H     H_    0.674202 0.726951 0.309906 0.195051
H12   H     H_    0.605709 0.826357 0.285874 0.236076
C67   C     C_3   0.676611 0.937042 0.234224 -0.786354
H13   H     H_    0.651552 0.060094 0.215112 0.253701
H14   H     H_    0.673027 0.826644 0.195800 0.245594
H15   H     H_    0.723100 0.976659 0.243324 0.224057
O22   O     O_3   0.355135 0.909408 0.589658 -0.548503
C68   C     C_3   0.341715 0.896769 0.655711 0.211368
H16   H     H_    0.294122 0.910545 0.656496 0.125099
H17   H     H_    0.357015 0.015981 0.685492 0.097748
C69   C     C_3   0.357295 0.703758 0.683680 -0.286036
H18   H     H_    0.327751 0.599309 0.659556 0.187111
H19   H     H_    0.401896 0.664409 0.672882 0.219714
C70   C     C_3   0.351449 0.696519 0.757460 -0.854006
H20   H     H_    0.383149 0.792486 0.782282 0.260322
H21   H     H_    0.360337 0.552905 0.775689 0.225635
H22   H     H_    0.307154 0.736760 0.769460 0.225406
O23   O     O_3   0.855785 0.480810 0.087450 -0.547031
C71   C     C_3   0.841712 0.511266 0.153054 0.231135
H23   H     H_    0.793977 0.523728 0.152233 0.134683
H24   H     H_    0.855385 0.648132 0.172343 0.094961
C72   C     C_3   0.857762 0.342365 0.196783 -0.334884
H25   H     H_    0.826570 0.228116 0.184818 0.184636
H26   H     H_    0.900995 0.289276 0.186589 0.224516
C73   C     C_3   0.856832 0.386956 0.269794 -0.752017
H27   H     H_    0.889332 0.495224 0.283834 0.270780
H28   H     H_    0.867589 0.259128 0.298794 0.234406
H29   H     H_    0.813429 0.436285 0.281892 0.227568
O24   O     O_3   0.144065 0.415143 0.912675 -0.548801
C74   C     C_3   0.156387 0.388062 0.846692 0.210032
H30   H     H_    0.203958 0.400350 0.844767 0.123766
H31   H     H_    0.141168 0.501675 0.814301 0.101743
C75   C     C_3   0.140079 0.190476 0.823320 -0.287043
H32   H     H_    0.169266 0.089915 0.849873 0.189867
H33   H     H_    0.095327 0.154397 0.834818 0.218324
C76   C     C_3   0.146018 0.169027 0.749799 -0.857656
H34   H     H_    0.114203 0.259136 0.722457 0.260072
H35   H     H_    0.137442 0.021981 0.735090 0.223698
H36   H     H_    0.190265 0.207545 0.736858 0.225725
O25   O     O_3   0.539171 0.044640 0.323224 -0.588667
C77   C     C_3   0.550971 0.230539 0.304918 0.058004
H37   H     H_    0.578637 0.223905 0.262713 0.180160
H38   H     H_    0.574627 0.312772 0.344380 0.106351
C78   C     C_3   0.496679 0.337846 0.283008 -0.328338
H39   H     H_    0.474253 0.271526 0.239473 0.224987
H40   H     H_    0.467046 0.348458 0.323257 0.198968
C79   C     C_3   0.513650 0.534175 0.265789 -0.819034
H41   H     H_    0.534795 0.603460 0.309517 0.245527
H42   H     H_    0.474166 0.612056 0.251006 0.228504
H43   H     H_    0.543786 0.531280 0.225540 0.248337
O26   O     O_3   0.458378 0.956571 0.686110 -0.576379
C80   C     C_3   0.454572 0.136057 0.715115 0.072675
H44   H     H_    0.429391 0.119788 0.759293 0.150957
H45   H     H_    0.430632 0.237558 0.682349 0.091802
C81   C     C_3   0.513443 0.217581 0.738304 -0.321880
H46   H     H_    0.536263 0.122058 0.774019 0.239981
H47   H     H_    0.540274 0.238823 0.696023 0.189398
C82   C     C_3   0.506129 0.407962 0.770008 -0.757651
H48   H     H_    0.475629 0.495028 0.739507 0.234640
H49   H     H_    0.548189 0.482009 0.774103 0.223923
H50   H     H_    0.489423 0.392296 0.819318 0.259614
O27   O     O_3   0.958541 0.571534 0.177958 -0.585087
C83   C     C_3   0.953861 0.764046 0.192030 0.060412
H51   H     H_    0.930376 0.774378 0.237630 0.177984
H52   H     H_    0.928174 0.842687 0.153235 0.105978
C84   C     C_3   0.012555 0.857831 0.204528 -0.316799
H53   H     H_    0.037986 0.784919 0.243929 0.210080
H54   H     H_    0.036631 0.860724 0.159319 0.200687
C85   C     C_3   0.004646 0.056620 0.226232 -0.821111
H55   H     H_    0.988833 0.142141 0.183916 0.241474
H56   H     H_    0.046844 0.110676 0.245262 0.219723
H57   H     H_    0.973286 0.061917 0.265172 0.242560
O28   O     O_3   0.040296 0.446976 0.816438 -0.578009
C86   C     C_3   0.043825 0.625040 0.786272 0.066395
H58   H     H_    0.068007 0.606363 0.741462 0.152211
H59   H     H_    0.068662 0.727524 0.817913 0.095693
C87   C     C_3   0.984708 0.706131 0.764247 -0.318805
H60   H     H_    0.960695 0.608224 0.730275 0.235326
H61   H     H_    0.959221 0.731515 0.807355 0.190819
C88   C     C_3   0.991536 0.893614 0.730348 -0.765002
H62   H     H_    0.023764 0.981338 0.758224 0.235914
H63   H     H_    0.949898 0.969179 0.727917 0.221432
H64   H     H_    0.005741 0.873356 0.680191 0.263825
O29   O     O_3   0.024731 0.701607 0.573615 -0.525489
C89   C     C_3   0.085977 0.681540 0.581940 0.126551
H65   H     H_    0.101366 0.749617 0.628563 0.107276
H66   H     H_    0.108998 0.742195 0.540736 0.120842
C90   C     C_3   0.102833 0.475956 0.584680 -0.287803
H67   H     H_    0.081440 0.405003 0.624641 0.233037
H68   H     H_    0.089039 0.412213 0.536894 0.220948
C91   C     C_3   0.167593 0.447336 0.597439 -0.848954
H69   H     H_    0.191890 0.522366 0.560438 0.263364
H70   H     H_    0.177476 0.295901 0.594618 0.253592
H71   H     H_    0.181564 0.497376 0.647317 0.225392
O30   O     O_3   0.979788 0.335510 0.431809 -0.518504
C92   C     C_3   0.010448 0.340060 0.374005 0.191850
H72   H     H_    0.983778 0.412445 0.335136 0.185497
H73   H     H_    0.015339 0.202127 0.351848 0.088272
C93   C     C_3   0.069371 0.441301 0.384867 -0.304577
H74   H     H_    0.065354 0.582236 0.406042 0.235478
H75   H     H_    0.099108 0.368939 0.420365 0.187545
C94   C     C_3   0.096157 0.458708 0.319767 -0.772092
H76   H     H_    0.100334 0.320632 0.297067 0.214636
H77   H     H_    0.138343 0.532855 0.324758 0.254386
H78   H     H_    0.066156 0.533671 0.286749 0.209838
O31   O     O_3   0.473400 0.199900 0.925288 -0.524128
C95   C     C_3   0.412050 0.178576 0.918951 0.129642
H79   H     H_    0.395866 0.235353 0.870665 0.103664
H80   H     H_    0.389243 0.248504 0.958497 0.121209
C96   C     C_3   0.395195 0.973696 0.923102 -0.290300
H81   H     H_    0.414926 0.894301 0.884090 0.233282
H82   H     H_    0.410862 0.920573 0.971934 0.225781
C97   C     C_3   0.330150 0.943622 0.914112 -0.840557
H83   H     H_    0.307573 0.021699 0.951719 0.262359
H84   H     H_    0.320470 0.792498 0.919108 0.257617
H85   H     H_    0.314132 0.989600 0.864436 0.226128
O32   O     O_3   0.518324 0.837528 0.064348 -0.517872
C98   C     C_3   0.495022 0.830781 0.126578 0.189028
H86   H     H_    0.526404 0.897779 0.162477 0.185657
H87   H     H_    0.491794 0.688627 0.146169 0.094153
C99   C     C_3   0.436028 0.931688 0.126674 -0.298006
H88   H     H_    0.437743 0.078126 0.110557 0.235513
H89   H     H_    0.403031 0.869735 0.092556 0.192050
C100  C     C_3   0.416338 0.929628 0.195543 -0.814477
H90   H     H_    0.404912 0.787449 0.210951 0.222060
H91   H     H_    0.378921 0.024397 0.200861 0.242572
H92   H     H_    0.453402 0.971514 0.228112 0.233977
Br5   Br    Br    0.963002 0.733324 0.388168 -0.617234
Br6   Br    Br    0.968261 0.359905 0.597712 -0.516592
Br7   Br    Br    0.538074 0.230454 0.108091 -0.615707
Br8   Br    Br    0.528948 0.856771 0.897805 -0.518980

loop_
_geom_bond_atom_site_label_1
_geom_bond_atom_site_label_2
_ccdc_geom_bond_type
C34   C38   A    
C74   C75   S    
C84   H53   S    
O1    C5    A    
O21   C65   S    
C50   C62   T    
C55   C59   S    
O19   V1    S    
C9    C29   A    
O13   V1    S    
C92   H72   S    
O3    C7    A    
C98   H86   S    
C60   C64   S    
C44   C48   S    
O4    V2    S    
O15   V3    S    
C10   H2    S    
C43   H7    S    
O28   C86   S    
C93   H75   S    
C98   C99   S    
C9    H1    S    
O23   C71   S    
C67   H13   S    
O7    C3    A    
C66   H12   S    
C21   C33   A    
C80   H44   S    
C34   O22   S    
O9    V1    S    
O26   C80   S    
C82   H49   S    
C19   Br3   S    
C49   C61   T    
C14   C18   A    
C100  H92   S    
C78   H40   S    
O25   C77   S    
C11   C15   A    
O4    C8    A    
C83   H52   S    
C88   H63   S    
C78   H39   S    
C42   H6    S    
C2    C51   S    
O1    V3    S    
C44   H8    S    
C40   O28   S    
C69   H18   S    
C65   C66   S    
O2    V4    S    
C52   C64   T    
C33   C37   A    
O3    V1    S    
C99   C100  S    
C37   O25   S    
C85   H55   S    
C12   C16   A    
C89   C90   S    
C65   H9    S    
C87   H60   S    
C41   H5    S    
C1    O15   A    
C83   C84   S    
C43   C60   S    
C56   C60   S    
C2    O16   A    
O30   C92   S    
C90   H68   S    
O2    C6    A    
C94   H78   S    
C95   C96   S    
C58   C62   S    
O14   V2    S    
C21   C25   A    
C77   H38   S    
C47   C59   S    
C68   C69   S    
O11   C7    A    
O12   C8    A    
C22   C34   A    
C35   O23   S    
C92   H73   S    
O29   C89   S    
O10   V2    S    
C91   H71   S    
O20   V4    S    
O22   C68   S    
C44   C56   S    
C39   O27   S    
C24   C36   A    
O5    V1    S    
C70   H21   S    
C3    C50   S    
O17   V1    S    
C84   C85   S    
C54   Br5   S    
O7    V3    S    
C77   H37   S    
C11   C31   A    
C94   H76   S    
O8    V4    S    
C81   C82   S    
C74   H30   S    
C82   H50   S    
C91   H70   S    
C54   C58   S    
C96   C97   S    
O27   C83   S    
C44   C59   S    
C53   C57   S    
O18   V4    S    
C88   H64   S    
C15   C19   A    
C1    C52   S    
C48   O32   S    
O19   V3    S    
C57   C61   S    
C9    C13   A    
C55   Br8   S    
C53   Br6   S    
C76   H35   S    
C81   H47   S    
C73   H28   S    
C96   H81   S    
C72   H26   S    
C89   H65   S    
O5    C1    A    
C100  H90   S    
C12   C32   A    
C77   C78   S    
C84   H54   S    
C29   C38   A    
C97   H84   S    
O31   C95   S    
C48   C55   S    
C79   H43   S    
C11   H3    S    
O8    C4    A    
C90   C91   S    
C51   C63   T    
C31   C40   A    
C98   H87   S    
C8    C13   S    
C32   C39   A    
O9    C5    A    
C99   H88   S    
C26   C30   A    
C66   C67   S    
C95   H79   S    
C41   C45   S    
C85   H57   S    
C67   H14   S    
C75   H33   S    
C48   C60   S    
C71   C72   S    
C43   C55   S    
C83   H51   S    
O6    V2    S    
C95   H80   S    
C25   C26   A    
C80   C81   S    
C99   H89   S    
C18   C22   A    
O10   C6    A    
C92   C93   S    
C17   Br1   S    
C78   C79   S    
C73   H29   S    
C72   H25   S    
C42   C54   S    
C36   O24   S    
C41   C53   S    
C97   H85   S    
C71   H24   S    
C68   H16   S    
O16   V4    S    
C70   H22   S    
C74   H31   S    
C56   Br7   S    
C69   C70   S    
C3    O13   A    
C89   H66   S    
C87   H61   S    
C10   C14   A    
O17   V3    S    
C97   H83   S    
C79   H42   S    
C91   H69   S    
C75   C76   S    
O6    C2    A    
C23   C27   A    
C70   H20   S    
C12   H4    S    
O11   V3    S    
O24   C74   S    
C76   H36   S    
C30   C37   A    
O12   V4    S    
C7    C14   S    
C33   O21   S    
C66   H11   S    
C22   C26   A    
C35   C39   A    
C67   H15   S    
C65   H10   S    
C36   C40   A    
C81   H46   S    
C86   C87   S    
C96   H82   S    
C73   H27   S    
C72   C73   S    
C45   C57   S    
C27   C28   A    
C100  H91   S    
C76   H34   S    
C43   C47   S    
C20   Br4   S    
C10   C30   A    
C46   C58   S    
C88   H62   S    
C46   O30   S    
C5    C16   S    
C28   C32   A    
C25   C29   A    
C6    C15   S    
O20   V2    S    
C23   C35   A    
C69   H19   S    
C4    C49   S    
C93   C94   S    
C27   C31   A    
C46   C53   S    
C13   C17   A    
O32   C98   S    
C42   C46   S    
C85   H56   S    
C45   C54   S    
C82   H48   S    
C75   H32   S    
C18   Br2   S    
C59   C63   S    
C86   H58   S    
C42   C57   S    
C20   C24   A    
C47   C56   S    
C16   C20   A    
C93   H74   S    
C38   O26   S    
C80   H45   S    
C90   H67   S    
C4    O14   A    
C94   H77   S    
C17   C21   A    
C47   O31   S    
C79   H41   S    
C68   H17   S    
C24   C28   A    
C19   C23   A    
C87   C88   S    
C45   O29   S    
C41   C58   S    
C71   H23   S    
C86   H59   S    
O18   V2    S    
