data_str_m12_o4_o9_f0_bcu.sym.40
_audit_creation_date              2012-12-11T17:10:33-0500
_audit_creation_method            fapswitch 2.2
_symmetry_space_group_name_H-M    P1
_symmetry_Int_Tables_number       1
_space_group_crystal_system       triclinic
_cell_length_a                    14.912404
_cell_length_b                    14.861687
_cell_length_c                    14.908791
_cell_angle_alpha                 109.64514
_cell_angle_beta                  110.088276
_cell_angle_gamma                 109.083465
_cell_volume                      2530.64405014

loop_
_atom_site_label
_atom_site_type_symbol
_atom_type_description
_atom_site_fract_x
_atom_site_fract_y
_atom_site_fract_z
_atom_type_partial_charge
C1    C     C_R   0.201559 0.293206 0.193816 -0.162514
C2    C     C_R   0.472678 0.564252 0.248989 -0.122633
C3    C     C_R   0.494810 0.800234 0.590397 -0.147659
C4    C     C_R   0.596261 0.504046 0.804116 -0.158533
C5    C     C_R   0.702981 0.395741 0.409617 -0.135307
C6    C     C_R   0.431649 0.800807 0.497703 0.083409
C7    C     C_R   0.793733 0.419370 0.501425 0.070550
C8    C     C_R   0.550152 0.548451 0.223778 0.072437
C9    C     C_R   0.825870 0.826800 0.774865 0.073292
C10   C     C_R   0.969666 0.489313 0.203593 -0.126548
C11   C     C_R   0.995218 0.481844 0.299336 -0.142030
C12   C     C_R   0.565163 0.563565 0.867705 0.078331
C13   C     C_R   0.948227 0.378533 0.291459 0.106146
C14   C     C_R   0.873584 0.283505 0.186175 -0.188529
C15   C     C_R   0.845736 0.291912 0.091007 -0.100933
C16   C     C_R   0.432250 0.185454 0.406370 -0.157095
C17   C     C_R   0.894398 0.394429 0.099608 -0.112525
C18   C     C_R   0.865900 0.336120 0.396366 -0.225982
C19   C     C_R   0.871745 0.379549 0.498258 0.044638
C20   C     C_R   0.969039 0.415341 0.594426 0.030013
C21   C     C_R   0.063682 0.431594 0.587567 -0.233348
C22   C     C_R   0.063611 0.421528 0.490409 0.062510
C23   C     C_R   0.449050 0.172379 0.497258 0.069287
C24   C     C_R   0.961607 0.372205 0.392223 0.027211
C25   C     C_R   0.063718 0.535859 0.800224 -0.172808
C26   C     C_R   0.069988 0.557500 0.901555 -0.110393
C27   C     C_R   0.988871 0.481819 0.905986 -0.100732
C28   C     C_R   0.274328 0.536957 0.590063 -0.128802
C29   C     C_R   0.901056 0.384252 0.809031 -0.122123
C30   C     C_R   0.894343 0.362163 0.707275 -0.146121
C31   C     C_R   0.975663 0.438007 0.701990 0.114519
C32   C     C_R   0.657998 0.553645 0.034714 0.160418
C33   C     C_R   0.604355 0.599679 0.984621 0.032992
C34   C     C_R   0.169640 0.464096 0.495040 0.048809
C35   C     C_R   0.574561 0.667757 0.044812 -0.203454
C36   C     C_R   0.572115 0.664784 0.136852 -0.198902
C37   C     C_R   0.598501 0.593018 0.167583 0.034313
C38   C     C_R   0.654846 0.549886 0.124798 0.160424
C39   C     C_3   0.644757 0.437980 0.084878 -0.512613
C40   C     C_R   0.527193 0.275935 0.591151 -0.122003
C41   C     C_3   0.648728 0.442747 0.986903 -0.523512
C42   C     C_R   0.335260 0.872812 0.394289 0.133375
C43   C     C_R   0.391253 0.877659 0.494344 0.043161
C44   C     C_R   0.423296 0.969264 0.592684 -0.210000
C45   C     C_R   0.402232 0.706582 0.407210 -0.156180
C46   C     C_R   0.426545 0.064235 0.592070 -0.191721
C47   C     C_R   0.398619 0.067472 0.493323 0.020167
C48   C     C_R   0.338429 0.966512 0.393513 0.133401
C49   C     C_3   0.342374 0.932739 0.288468 -0.179631
C50   C     C_3   0.338620 0.830266 0.289780 -0.597515
C51   C     C_R   0.026334 0.127014 0.954955 0.161840
C52   C     C_R   0.184242 0.439383 0.404909 -0.130581
C53   C     C_R   0.120185 0.122092 0.010206 0.030155
C54   C     C_R   0.126078 0.028896 0.953419 -0.202318
C55   C     C_R   0.029966 0.933244 0.861615 -0.202375
C56   C     C_R   0.797203 0.490505 0.592331 -0.150071
C57   C     C_R   0.928166 0.930740 0.827906 0.030583
C58   C     C_R   0.931034 0.032304 0.865438 0.182218
C59   C     C_3   0.859762 0.068705 0.899609 -0.554450
C60   C     C_3   0.963890 0.172187 0.996477 -0.511718
C61   C     C_R   0.502522 0.593338 0.803885 -0.131237
C62   C     C_R   0.290922 0.200111 0.194088 -0.131602
C63   C     C_R   0.198472 0.199348 0.128805 0.082621
C64   C     C_R   0.567592 0.474715 0.254114 -0.148356
C65   C     C_R   0.721894 0.814288 0.745851 -0.147082
C66   C     C_R   0.815326 0.723509 0.750039 -0.124141
H1    H     H_    0.155452 0.330412 0.165324 0.109264
H2    H     H_    0.006246 0.568924 0.210081 0.108131
H3    H     H_    0.049869 0.556581 0.379522 0.116926
H4    H     H_    0.660630 0.484839 0.832956 0.103130
H5    H     H_    0.834302 0.203436 0.178103 0.115172
H6    H     H_    0.786199 0.218811 0.010412 0.123033
H7    H     H_    0.789055 0.296766 0.320375 0.120538
H8    H     H_    0.138870 0.458845 0.660400 0.127008
H9    H     H_    0.126745 0.596146 0.798256 0.106066
H10   H     H_    0.137683 0.633143 0.976707 0.100433
H11   H     H_    0.994467 0.499239 0.984766 0.093037
H12   H     H_    0.849794 0.519079 0.678086 0.117333
H13   H     H_    0.838228 0.325743 0.812728 0.102692
H14   H     H_    0.825938 0.286279 0.632785 0.114404
H15   H     H_    0.540544 0.712336 0.014195 0.123436
H16   H     H_    0.373765 0.124760 0.320700 0.122581
H17   H     H_    0.536244 0.707081 0.173540 0.125273
H18   H     H_    0.718166 0.439566 0.140777 0.207577
H19   H     H_    0.563758 0.371610 0.060028 0.197834
H20   H     H_    0.724664 0.447983 0.986684 0.188296
H21   H     H_    0.570272 0.379384 0.907366 0.198966
H22   H     H_    0.459039 0.973841 0.671734 0.123464
H23   H     H_    0.626174 0.447892 0.252444 0.113025
H24   H     H_    0.464581 0.138012 0.670660 0.124921
H25   H     H_    0.420443 0.987745 0.297504 0.149534
H26   H     H_    0.261665 0.751989 0.221145 0.186239
H27   H     H_    0.294910 0.573957 0.675404 0.091730
H28   H     H_    0.416235 0.829263 0.302718 0.194967
H29   H     H_    0.199741 0.023658 0.987081 0.123912
H30   H     H_    0.034112 0.858854 0.828414 0.127035
H31   H     H_    0.808075 0.084364 0.839407 0.193902
H32   H     H_    0.815740 0.017951 0.927095 0.199895
H33   H     H_    0.973233 0.247449 0.991572 0.200567
H34   H     H_    0.697598 0.875140 0.747705 0.111800
H35   H     H_    0.976790 0.178294 0.076795 0.206897
H36   H     H_    0.559572 0.297248 0.676681 0.090987
H37   H     H_    0.123767 0.381330 0.318783 0.118700
H38   H     H_    0.478055 0.653197 0.832043 0.082518
H39   H     H_    0.337401 0.669370 0.323082 0.106142
H40   H     H_    0.243164 0.869584 0.123026 0.112361
H41   H     H_    0.172369 0.855123 0.189108 0.128748
H42   H     H_    0.324178 0.149300 0.165927 0.083987
H43   H     H_    0.878979 0.701740 0.760144 0.095519
H44   H     H_    0.440411 0.617346 0.237550 0.093040
H45   H     H_    0.517708 0.852033 0.674543 0.084539
H46   H     H_    0.664639 0.332129 0.324875 0.084279
H47   H     H_    0.872396 0.400136 0.025541 0.090982
N1    N     N_R   0.291070 0.347930 0.293870 -0.038449
N2    N     N_R   0.497240 0.291100 0.443210 -0.040460
N3    N     N_R   0.347890 0.554050 0.556810 -0.039011
N4    N     N_R   0.554050 0.347900 0.556830 -0.038648
N5    N     N_R   0.291070 0.497250 0.443190 -0.040697
N6    N     N_R   0.497240 0.554030 0.706140 -0.037893
N7    N     N_R   0.347890 0.291110 0.293870 -0.038466
N8    N     N_R   0.445950 0.652100 0.443170 -0.037990
N9    N     N_3   0.243402 0.909398 0.195866 -0.213385
N10   N     N_R   0.708930 0.502750 0.556810 -0.039888
N11   N     N_R   0.502760 0.445970 0.293860 -0.040461
N12   N     N_R   0.652110 0.708890 0.706130 -0.040931
N13   N     N_R   0.708930 0.652070 0.706130 -0.040517
N14   N     N_R   0.445950 0.502780 0.293850 -0.039854
N15   N     N_R   0.502760 0.708900 0.556790 -0.037718
N16   N     N_R   0.652110 0.445950 0.443190 -0.039501
N17   N     N_R   0.554050 0.497220 0.706150 -0.037646
Ni1   Ni    Ni4+2 0.369690 0.500010 0.369700 0.211191
Ni2   Ni    Ni4+2 0.630310 0.499990 0.630300 0.213345
Ni3   Ni    Ni4+2 0.500000 0.369720 0.369720 0.205640
Ni4   Ni    Ni4+2 0.500000 0.630280 0.630280 0.207775

loop_
_geom_bond_atom_site_label_1
_geom_bond_atom_site_label_2
_ccdc_geom_bond_type
N12   Ni4   S    
C25   C31   A    
C52   H37   S    
C6    C45   A    
N10   Ni2   S    
C61   N6    A    
C53   C63   S    
N1    Ni1   S    
C35   C36   A    
C60   H33   S    
C4    H4    S    
C35   H15   S    
C17   H47   S    
C39   C41   S    
C53   C54   A    
C41   H20   S    
C26   C27   A    
C37   C38   A    
N11   Ni3   S    
C18   C24   A    
C7    C56   A    
C36   C37   A    
N8    Ni1   S    
C39   H18   S    
C18   C19   A    
C30   C31   A    
N3    Ni4   S    
C10   C17   A    
C23   C40   A    
N6    N17   A    
C56   H12   S    
C27   C29   A    
N7    Ni3   S    
C14   H5    S    
N4    Ni2   S    
C9    C66   A    
N5    Ni1   S    
C28   N3    A    
C13   C14   A    
C1    H1    S    
C46   C47   A    
C19   C20   A    
C44   C46   A    
N2    N4    A    
C26   H10   S    
C32   C41   S    
C32   C38   A    
C4    C12   A    
C29   C30   A    
C62   N7    A    
C30   H14   S    
C2    N14   A    
C3    C6    A    
C5    N16   A    
C40   N4    A    
C28   C34   A    
C59   C60   S    
C21   C22   A    
N10   N16   A    
C64   H23   S    
C49   H25   S    
C22   C34   S    
C1    C63   A    
C45   H39   S    
C9    C65   A    
C41   H21   S    
N6    Ni4   S    
C23   C47   S    
C8    C37   S    
C56   N10   A    
C61   H38   S    
N8    N15   A    
C3    H45   S    
C5    C7    A    
C3    N15   A    
C50   H28   S    
C4    N17   A    
N2    Ni3   S    
C45   N8    A    
C25   C26   A    
C64   N11   A    
C21   H8    S    
C66   N13   A    
C13   C24   S    
C28   H27   S    
C25   H9    S    
C65   N12   A    
N17   Ni2   S    
C43   C44   A    
C62   C63   A    
C15   H6    S    
N15   Ni4   S    
C47   C48   A    
C29   H13   S    
N13   Ni2   S    
H40   N9    S    
C16   H16   S    
C51   C58   A    
C42   C48   A    
C54   H29   S    
C42   C50   S    
N11   N14   A    
N16   Ni3   S    
C50   H26   S    
C48   C49   S    
C8    C64   A    
C18   H7    S    
C7    C19   S    
C6    C43   S    
C55   C57   A    
N12   N13   A    
C59   H31   S    
C22   C24   A    
C42   C43   A    
C39   H19   S    
C60   H35   S    
C16   N2    A    
C15   C17   A    
C54   C55   A    
C2    H44   S    
C2    C8    A    
C65   H34   S    
C55   H30   S    
C27   H11   S    
C11   H3    S    
C46   H24   S    
C5    H46   S    
C10   H2    S    
C16   C23   A    
C34   C52   A    
C32   C33   A    
C58   C59   S    
C12   C61   A    
C11   C13   A    
C57   C58   A    
C38   C39   S    
C49   N9    S    
C33   C35   A    
N3    N5    A    
C9    C57   S    
C66   H43   S    
N14   Ni1   S    
C10   C11   A    
C40   H36   S    
C62   H42   S    
C20   C21   A    
C49   C50   S    
C1    N1    A    
C59   H32   S    
C14   C15   A    
C51   C60   S    
C36   H17   S    
H41   N9    S    
C51   C53   A    
C12   C33   S    
C44   H22   S    
N1    N7    A    
C20   C31   S    
C52   N5    A    
