data_str_m12_o9_o22_f0_bcu.sym.40
_audit_creation_date              2012-12-11T17:45:27-0500
_audit_creation_method            fapswitch 2.2
_symmetry_space_group_name_H-M    P1
_symmetry_Int_Tables_number       1
_space_group_crystal_system       triclinic
_cell_length_a                    15.02101
_cell_length_b                    14.924065
_cell_length_c                    15.12722
_cell_angle_alpha                 110.275906
_cell_angle_beta                  109.015608
_cell_angle_gamma                 109.0891
_cell_volume                      2611.2633911

loop_
_atom_site_label
_atom_site_type_symbol
_atom_type_description
_atom_site_fract_x
_atom_site_fract_y
_atom_site_fract_z
_atom_type_partial_charge
C1    C     C_R   0.971940 0.247273 0.060707 -0.117667
C2    C     C_R   0.705157 0.194867 0.794565 -0.144368
C3    C     C_R   0.777787 0.592746 0.024640 -0.092347
C4    C     C_R   0.314533 0.759626 0.224957 -0.131372
C5    C     C_R   0.940533 0.409498 0.686211 -0.141511
C6    C     C_R   0.675974 0.501018 0.949743 -0.039181
C7    C     C_R   0.956685 0.503938 0.679771 0.046127
C8    C     C_R   0.702956 0.129824 0.701882 0.071037
C9    C     C_R   0.063740 0.870107 0.074573 0.076147
C10   C     C_R   0.624423 0.198717 0.096359 0.699980
C11   C     C_R   0.691945 0.298834 0.195296 -0.303647
C12   C     C_R   0.322924 0.788995 0.327045 0.053445
C13   C     C_R   0.763067 0.306093 0.287990 0.042690
C14   C     C_R   0.759831 0.209588 0.284109 -0.161604
C15   C     C_R   0.688997 0.108378 0.188382 -0.170756
C16   C     C_R   0.208332 0.408387 0.903031 -0.149033
C17   C     C_R   0.622424 0.102323 0.094678 -0.300829
C18   C     C_R   0.850621 0.423832 0.485076 -0.246790
C19   C     C_R   0.939027 0.512595 0.584173 0.069844
C20   C     C_R   0.018054 0.600448 0.588549 0.018001
C21   C     C_R   0.005483 0.596881 0.493489 -0.244776
C22   C     C_R   0.924257 0.502873 0.393396 0.087593
C23   C     C_R   0.300390 0.499559 0.932452 0.005544
C24   C     C_R   0.844704 0.414104 0.388295 0.077594
C25   C     C_R   0.144035 0.792413 0.747849 -0.190687
C26   C     C_R   0.240261 0.868214 0.846762 -0.131046
C27   C     C_R   0.318646 0.839461 0.883163 -0.130621
C28   C     C_R   0.994974 0.590353 0.298265 -0.122493
C29   C     C_R   0.302359 0.735778 0.819887 -0.106685
C30   C     C_R   0.205708 0.658810 0.721853 -0.126784
C31   C     C_R   0.124882 0.685970 0.686463 0.111478
C32   C     C_R   0.245347 0.041802 0.528150 -0.132376
C33   C     C_R   0.321681 0.014058 0.513616 -0.127836
C34   C     C_R   0.940415 0.498655 0.302761 0.083201
C35   C     C_R   0.334399 0.932866 0.533991 0.110956
C36   C     C_R   0.271289 0.881180 0.570882 -0.200680
C37   C     C_R   0.190943 0.905039 0.579348 -0.114427
C38   C     C_R   0.178566 0.985816 0.558894 -0.108956
C39   C     C_R   0.520710 0.982164 0.624108 -0.234196
C40   C     C_R   0.299483 0.591089 0.995440 -0.139339
C41   C     C_R   0.617185 0.015093 0.620795 0.040663
C42   C     C_R   0.618408 0.948573 0.528609 0.012575
C43   C     C_R   0.519864 0.865905 0.435333 -0.232927
C44   C     C_R   0.422179 0.854531 0.432040 0.066398
C45   C     C_R   0.687199 0.408435 0.932102 -0.112778
C46   C     C_R   0.423265 0.913184 0.529136 0.022302
C47   C     C_R   0.739812 0.004473 0.456682 -0.168764
C48   C     C_R   0.844256 0.051163 0.471504 -0.121877
C49   C     C_R   0.928882 0.057816 0.552505 -0.168133
C50   C     C_R   0.908798 0.014873 0.616907 -0.103968
C51   C     C_R   0.804585 0.969248 0.604623 -0.012020
C52   C     C_R   0.912623 0.407749 0.210917 -0.150169
C53   C     C_R   0.720320 0.968249 0.526284 0.013252
C54   C     C_3   0.555213 0.579555 0.898116 -0.392029
C55   C     C_3   0.455914 0.586881 0.903231 -0.417648
C56   C     C_R   0.020670 0.592859 0.782907 -0.098581
C57   C     C_3   0.474615 0.384828 0.856948 -0.418410
C58   C     C_3   0.584959 0.546318 0.054538 -0.170052
C59   C     C_3   0.574996 0.502139 0.939273 0.296480
C60   C     C_3   0.397611 0.500224 0.929195 0.398093
C61   C     C_3   0.370021 0.386958 0.842789 -0.418799
C62   C     C_3   0.474708 0.526821 0.043354 -0.471929
C63   C     C_R   0.179785 0.063494 0.814519 -0.168680
C64   C     C_R   0.219352 0.750687 0.312606 -0.125844
C65   C     C_R   0.137066 0.061211 0.883167 -0.173308
C66   C     C_R   0.200464 0.139233 0.994403 0.098920
C67   C     C_R   0.792244 0.195838 0.700899 -0.138187
C68   C     C_R   0.307589 0.218168 0.036814 -0.182703
C69   C     C_R   0.350489 0.218367 0.967867 -0.084224
C70   C     C_R   0.287013 0.140916 0.856882 -0.099712
C71   C     C_R   0.169621 0.043271 0.088758 -0.233286
C72   C     C_R   0.098273 0.987850 0.115781 0.062865
C73   C     C_R   0.047793 0.040672 0.161017 0.028864
C74   C     C_R   0.056627 0.135346 0.159043 -0.239946
C75   C     C_R   0.095196 0.165141 0.094985 0.071348
C76   C     C_R   0.067198 0.251497 0.973415 -0.103275
C77   C     C_R   0.160187 0.123553 0.066746 0.040309
C78   C     C_R   0.001257 0.802297 0.098000 -0.147436
C79   C     C_R   0.859274 0.939785 0.124880 -0.131566
C80   C     C_R   0.786771 0.886849 0.152695 -0.190916
C81   C     C_R   0.826012 0.885530 0.249304 -0.082966
C82   C     C_R   0.937715 0.941266 0.320447 -0.101951
C83   C     C_R   0.010443 0.998342 0.295177 -0.201691
C84   C     C_R   0.971656 0.993387 0.194920 0.113566
C85   C     C_R   0.049923 0.221829 0.046775 0.069518
C86   C     C_3   0.511457 0.103946 0.906967 -0.342712
C87   C     C_2   0.784560 0.925452 0.674827 0.475844
C88   C     C_2   0.631523 0.500084 0.119669 0.487647
C89   C     C_R   0.094160 0.807247 0.010352 -0.140517
H1    H     H_    0.935645 0.232994 0.108477 0.093035
H2    H     H_    0.694868 0.373149 0.198854 0.171881
H3    H     H_    0.379376 0.776298 0.205938 0.091837
H4    H     H_    0.813890 0.212994 0.354733 0.116646
H5    H     H_    0.687376 0.034570 0.186191 0.140182
H6    H     H_    0.790908 0.357112 0.483252 0.132600
H7    H     H_    0.070078 0.662442 0.499217 0.122812
H8    H     H_    0.081976 0.814070 0.722226 0.123700
H9    H     H_    0.253556 0.948427 0.896956 0.143192
H10   H     H_    0.391726 0.897352 0.960811 0.102898
H11   H     H_    0.364062 0.714877 0.848031 0.097025
H12   H     H_    0.041864 0.677060 0.808545 0.123426
H13   H     H_    0.192425 0.577280 0.675112 0.105110
H14   H     H_    0.118344 0.006166 0.568459 0.091373
H15   H     H_    0.176720 0.323369 0.845214 0.098860
H16   H     H_    0.238719 0.107340 0.516555 0.101563
H17   H     H_    0.373020 0.057797 0.489477 0.112819
H18   H     H_    0.282341 0.820657 0.589907 0.127258
H19   H     H_    0.138804 0.861745 0.602626 0.117026
H20   H     H_    0.517701 0.026450 0.695508 0.118434
H21   H     H_    0.520173 0.816801 0.363416 0.127604
H22   H     H_    0.676241 0.004885 0.396941 0.120002
H23   H     H_    0.823135 0.173260 0.647299 0.130306
H24   H     H_    0.860110 0.084640 0.421792 0.125426
H25   H     H_    0.010226 0.096293 0.565301 0.107715
H26   H     H_    0.975117 0.019576 0.678016 0.140865
H27   H     H_    0.015653 0.673995 0.349066 0.112700
H28   H     H_    0.539755 0.547209 0.813240 0.170969
H29   H     H_    0.627538 0.663165 0.947943 0.147365
H30   H     H_    0.484064 0.671244 0.966793 0.143825
H31   H     H_    0.398762 0.571230 0.823893 0.152752
H32   H     H_    0.470962 0.352261 0.776820 0.164888
H33   H     H_    0.321658 0.370572 0.759838 0.159642
H34   H     H_    0.978505 0.823139 0.158766 0.132003
H35   H     H_    0.640677 0.637148 0.102298 0.145759
H36   H     H_    0.487076 0.602015 0.108422 0.159256
H37   H     H_    0.355408 0.676083 0.026384 0.087032
H38   H     H_    0.437204 0.457820 0.055983 0.157944
H39   H     H_    0.480092 0.327278 0.886296 0.156638
H40   H     H_    0.321300 0.319732 0.850408 0.162308
H41   H     H_    0.320607 0.141089 0.803628 0.123371
H42   H     H_    0.130692 0.002564 0.729425 0.115434
H43   H     H_    0.056228 0.996302 0.850737 0.187587
H44   H     H_    0.358542 0.276586 0.123083 0.122495
H45   H     H_    0.153930 0.836579 0.987660 0.102636
H46   H     H_    0.433191 0.277896 0.000866 0.140723
H47   H     H_    0.218662 0.011780 0.065360 0.123306
H48   H     H_    0.018212 0.174398 0.194512 0.125647
H49   H     H_    0.864722 0.322385 0.183636 0.113401
H50   H     H_    0.828164 0.937058 0.047995 0.126011
H51   H     H_    0.700286 0.845330 0.098624 0.108751
H52   H     H_    0.769911 0.841962 0.269430 0.130462
H53   H     H_    0.967794 0.938996 0.394441 0.125427
H54   H     H_    0.096625 0.040001 0.349553 0.119051
H55   H     H_    0.193453 0.749702 0.370456 0.117701
H56   H     H_    0.659354 0.168648 0.831163 0.102321
H57   H     H_    0.122726 0.247185 0.944358 0.120884
H58   H     H_    0.625030 0.322928 0.881472 0.117034
H59   H     H_    0.441338 0.041402 0.901121 0.179810
H60   H     H_    0.566908 0.072986 0.894611 0.142898
H61   H     H_    0.479347 0.119743 0.840259 0.171469
H62   H     H_    0.702693 0.881015 0.659192 0.027390
H63   H     H_    0.599732 0.412534 0.083313 0.044679
H64   H     H_    0.797466 0.677769 0.061535 0.108277
H65   H     H_    0.895265 0.325154 0.620389 0.101362
H66   H     H_    0.571422 0.022301 0.021986 0.119047
N1    N     N_R   0.947080 0.293830 0.002870 -0.043777
N2    N     N_R   0.153670 0.443180 0.946090 -0.039644
N3    N     N_R   0.002360 0.556820 0.208890 -0.047511
N4    N     N_R   0.210070 0.556820 0.002870 -0.034454
N5    N     N_R   0.945960 0.443180 0.152110 -0.042192
N6    N     N_R   0.151710 0.706170 0.208890 -0.044892
N7    N     N_R   0.004320 0.293830 0.946090 -0.045602
N8    N     N_R   0.789930 0.443180 0.997130 -0.033697
N9    N     N_R   0.054040 0.556820 0.847890 -0.042735
N10   N     N_R   0.848290 0.293830 0.791110 -0.043096
N11   N     N_R   0.995680 0.706170 0.053910 -0.045007
N12   N     N_R   0.052920 0.706170 0.997130 -0.044017
N13   N     N_R   0.791050 0.293830 0.847890 -0.040674
N14   N     N_R   0.846330 0.556820 0.053910 -0.034222
N15   N     N_R   0.997640 0.443180 0.791110 -0.041074
N16   N     N_R   0.208950 0.706170 0.152110 -0.041147
Ni1   Ni    Ni4+2 0.869690 0.369690 0.000000 0.230136
Ni2   Ni    Ni4+2 0.130310 0.630310 0.000000 0.214747
Ni3   Ni    Ni4+2 0.000970 0.369690 0.869780 0.216066
Ni4   Ni    Ni4+2 0.999030 0.630310 0.130220 0.227383
O1    O     O_3   0.565965 0.203121 0.006426 -0.657964
O2    O     O_2   0.859095 0.938106 0.751020 -0.617990
O3    O     O_2   0.707009 0.561325 0.212644 -0.597754

loop_
_geom_bond_atom_site_label_1
_geom_bond_atom_site_label_2
_ccdc_geom_bond_type
C25   C31   A    
C66   C68   A    
C63   C65   A    
N3    N5    A    
C58   C62   S    
C1    H1    S    
C4    N16   A    
C27   C29   A    
C41   C42   A    
C40   N4    A    
N9    N15   A    
C35   C36   A    
C9    C72   S    
C3    H64   S    
C82   H53   S    
C3    C6    A    
C57   H39   S    
C81   C82   A    
C39   C41   A    
C55   H30   S    
C2    H56   S    
N16   Ni2   S    
C27   H10   S    
C26   C27   A    
C37   C38   A    
C18   C24   A    
C68   H44   S    
C6    C45   A    
C56   H12   S    
C18   C19   A    
C86   H61   S    
C42   C53   S    
C62   H38   S    
N6    Ni4   S    
C47   H22   S    
C57   C59   S    
C10   C17   A    
C5    H65   S    
C70   H41   S    
C3    N14   A    
C60   C62   S    
C50   H26   S    
C73   C74   A    
C55   H31   S    
C89   N12   A    
C34   C52   A    
C28   H27   S    
C13   C14   A    
C76   N7    A    
C75   C85   S    
C83   C84   A    
C44   C46   A    
C68   C69   A    
C52   H49   S    
C5    N15   A    
C43   H21   S    
C32   C38   A    
C4    C12   A    
C29   C30   A    
C14   H4    S    
C61   H40   S    
N2    Ni3   S    
C47   C53   A    
C16   C23   A    
C67   N10   A    
C81   H52   S    
C49   H25   S    
N1    N7    A    
C69   H46   S    
C87   H62   S    
C55   C60   S    
C36   H18   S    
C1    C85   A    
C18   H6    S    
C88   H63   S    
C7    C56   A    
C15   H5    S    
C16   H15   S    
C54   C59   S    
C10   O1    S    
C23   C60   S    
C22   C34   S    
C74   H48   S    
C78   N11   A    
C74   C75   A    
C8    C41   S    
C37   H19   S    
C79   H50   S    
C86   H60   S    
C9    C89   A    
C71   H47   S    
C5    C7    A    
C72   C73   A    
C64   H55   S    
N10   Ni3   S    
C80   H51   S    
C57   H32   S    
N1    Ni1   S    
C13   C24   S    
C58   C88   S    
C61   H33   S    
C51   C53   A    
C1    N1    A    
C43   C44   A    
N11   Ni4   S    
C38   H14   S    
C78   H34   S    
C87   O2    D    
N3    Ni4   S    
C47   C48   A    
C63   C70   A    
C39   H20   S    
C30   C31   A    
C40   H37   S    
C30   H13   S    
C28   N3    A    
C50   C51   A    
N5    Ni1   S    
N9    Ni2   S    
C57   C61   S    
N8    Ni1   S    
C75   C77   A    
C26   H9    S    
C39   C46   A    
C25   H8    S    
C48   C49   A    
C49   C50   A    
N10   N13   A    
C63   H42   S    
C32   H16   S    
C54   H29   S    
N11   N12   A    
C22   C24   A    
C58   C59   S    
C42   C43   A    
C51   C87   S    
C17   H66   S    
C2    N13   A    
C71   C77   A    
C65   H43   S    
N15   Ni3   S    
C15   C17   A    
C66   C77   S    
C54   C55   S    
C36   C37   A    
C89   H45   S    
C73   C84   S    
C29   H11   S    
C16   N2    A    
C45   H58   S    
C58   H35   S    
C6    C59   S    
C2    C8    A    
C33   H17   S    
C80   C81   A    
C86   H59   S    
C62   H36   S    
C88   O3    D    
N7    Ni3   S    
C21   H7    S    
N14   Ni4   S    
C56   N9    A    
C7    C19   S    
N12   Ni2   S    
C32   C33   A    
C19   C20   A    
C25   C26   A    
C71   C72   A    
C12   C44   S    
C83   H54   S    
C11   C13   A    
C64   N6    A    
C79   C84   A    
C12   C64   A    
C76   C85   A    
C33   C35   A    
C86   O1    S    
C9    C78   A    
C45   N8    A    
C69   C70   A    
N8    N14   A    
C10   C11   A    
C28   C34   A    
C79   C80   A    
N6    N16   A    
C11   H2    S    
C67   H23   S    
N13   Ni1   S    
C20   C21   A    
C8    C67   A    
N2    N4    A    
C65   C66   A    
N4    Ni2   S    
C54   H28   S    
C76   H57   S    
C14   C15   A    
C60   C61   S    
C82   C83   A    
C21   C22   A    
C35   C46   S    
C52   N5    A    
C23   C40   A    
C48   H24   S    
C4    H3    S    
C20   C31   S    
