data_str_m2_o10_o14_f0_pcu.sym.138
_audit_creation_date              2012-12-10T16:43:23-0500
_audit_creation_method            fapswitch 2.2
_symmetry_space_group_name_H-M    P1
_symmetry_Int_Tables_number       1
_space_group_crystal_system       triclinic
_cell_length_a                    10.744518
_cell_length_b                    8.683253
_cell_length_c                    7.458287
_cell_angle_alpha                 102.941933
_cell_angle_beta                  94.296402
_cell_angle_gamma                 92.424664
_cell_volume                      675.005901571

loop_
_atom_site_label
_atom_site_type_symbol
_atom_type_description
_atom_site_fract_x
_atom_site_fract_y
_atom_site_fract_z
_atom_type_partial_charge
C1    C     C_R   0.496184 0.199763 0.453291 0.884265
C2    C     C_R   0.076551 0.643931 0.619361 0.093262
C3    C     C_R   0.129602 0.514107 0.507008 -0.091350
C4    C     C_R   0.054486 0.393596 0.386898 -0.197818
C5    C     C_R   0.926170 0.395769 0.382025 -0.197248
C6    C     C_R   0.871335 0.518483 0.497302 -0.092928
C7    C     C_2   0.494285 0.031823 0.427075 -0.368801
C8    C     C_2   0.505472 0.968138 0.572991 -0.376070
C9    C     C_R   0.262892 0.504313 0.502744 0.783220
C10   C     C_R   0.503766 0.800232 0.546722 0.857930
C11   C     C_R   0.737375 0.506369 0.498824 0.783282
C12   C     C_R   0.150674 0.773626 0.731255 -0.173045
C13   C     C_R   0.095258 0.901184 0.837691 -0.135105
C14   C     C_R   0.965698 0.903415 0.832647 -0.133745
C15   C     C_R   0.890778 0.778079 0.721146 -0.175406
C16   C     C_R   0.944931 0.646209 0.614189 0.095379
Cu1   Cu    Cu3+1 0.513920 0.517380 0.684380 0.944161
Cu2   Cu    Cu3+1 0.486080 0.482620 0.315620 0.949471
H1    H     H_    0.095650 0.295785 0.298529 0.144866
H2    H     H_    0.251510 0.779593 0.735741 0.151474
H3    H     H_    0.153107 0.999617 0.922731 0.133164
H4    H     H_    0.923030 0.003605 0.913713 0.134264
H5    H     H_    0.790642 0.787447 0.717118 0.141535
H6    H     H_    0.869311 0.298858 0.291754 0.148121
H7    H     H_    0.483729 0.960242 0.286463 0.178206
H8    H     H_    0.515981 0.039690 0.713612 0.177877
H9    H     H_    0.402242 0.377864 0.948649 0.225541
N1    N     N_2   0.465100 0.456430 0.038520 -0.215638
N2    N     N_2   0.534900 0.543570 0.961480 -0.215738
O1    O     O_R   0.509050 0.286130 0.619770 -0.579244
O2    O     O_R   0.485540 0.256780 0.308360 -0.589771
O3    O     O_R   0.331410 0.514680 0.655740 -0.592201
O4    O     O_R   0.307900 0.485330 0.344330 -0.574607
O5    O     O_R   0.514460 0.743220 0.691640 -0.601267
O6    O     O_R   0.490950 0.713870 0.380230 -0.579025
O7    O     O_R   0.692100 0.514670 0.655670 -0.579143
O8    O     O_R   0.668590 0.485320 0.344260 -0.584508
H10   H     H_    0.597750 0.622158 0.051338 0.226642

loop_
_geom_bond_atom_site_label_1
_geom_bond_atom_site_label_2
_ccdc_geom_bond_type
N2    H10   S    
Cu2   N1    S    
C10   O6    A    
C3    C9    S    
Cu1   O7    S    
C2    C16   A    
Cu2   O6    S    
C7    H7    S    
C2    C12   A    
C12   H2    S    
C15   H5    S    
C2    C3    A    
C13   H3    S    
C7    C8    D    
C10   O5    A    
C13   C14   A    
C9    O4    A    
Cu1   O1    S    
C14   H4    S    
C5    H6    S    
N1    N2    D    
Cu2   O8    S    
Cu1   Cu2   S    
C5    C6    A    
Cu2   O4    S    
Cu1   O5    S    
C6    C16   A    
C3    C4    A    
Cu1   N2    S    
C1    O2    A    
C8    H8    S    
C12   C13   A    
C8    C10   S    
C6    C11   S    
C11   O8    A    
Cu1   O3    S    
C14   C15   A    
C1    O1    A    
Cu2   O2    S    
C9    O3    A    
C1    C7    S    
C4    H1    S    
C15   C16   A    
C4    C5    A    
H9    N1    S    
C11   O7    A    
