data_str_m3_o40_o40_f0_fof.sym.74
_audit_creation_date              2012-12-10T16:37:26-0500
_audit_creation_method            fapswitch 2.2
_symmetry_space_group_name_H-M    P1
_symmetry_Int_Tables_number       1
_space_group_crystal_system       triclinic
_cell_length_a                    16.859191
_cell_length_b                    16.821171
_cell_length_c                    16.805253
_cell_angle_alpha                 65.860827
_cell_angle_beta                  65.790898
_cell_angle_gamma                 65.477994
_cell_volume                      3787.39019571

loop_
_atom_site_label
_atom_site_type_symbol
_atom_type_description
_atom_site_fract_x
_atom_site_fract_y
_atom_site_fract_z
_atom_type_partial_charge
C1    C     C_R   0.394073 0.067878 0.663344 0.130069
C2    C     C_R   0.412615 0.684147 0.010267 0.131290
C3    C     C_R   0.960708 0.593555 0.339012 0.122630
C4    C     C_R   0.067118 0.395771 0.656717 0.118173
C5    C     C_R   0.982213 0.175392 0.429795 0.921813
C6    C     C_R   0.037615 0.820501 0.562190 0.908836
C7    C     C_R   0.179345 0.437805 0.961876 0.913962
C8    C     C_R   0.823718 0.569465 0.020288 0.916341
C9    C     C_R   0.429743 0.982599 0.175248 0.917879
C10   C     C_R   0.562099 0.037543 0.820743 0.912430
C11   C     C_R   0.561668 0.820525 0.038460 0.930931
C12   C     C_R   0.523724 0.098089 0.298279 0.126940
C13   C     C_R   0.437922 0.179654 0.961949 0.884514
C14   C     C_R   0.037013 0.562242 0.820431 0.889552
C15   C     C_R   0.962526 0.438168 0.179437 0.927478
C16   C     C_R   0.820308 0.036921 0.562482 0.930800
C17   C     C_R   0.179529 0.963118 0.437727 0.882309
C18   C     C_R   0.441478 0.081117 0.706214 -0.247781
C19   C     C_R   0.482982 0.074732 0.256594 -0.253248
C20   C     C_R   0.080034 0.705539 0.441429 -0.249489
C21   C     C_R   0.074141 0.256122 0.483452 -0.250018
C22   C     C_R   0.740165 0.512733 0.933588 -0.250726
C23   C     C_R   0.066841 0.662327 0.394116 0.129240
C24   C     C_R   0.288234 0.554484 0.935186 -0.259024
C25   C     C_R   0.297353 0.942076 0.549312 -0.255881
C26   C     C_R   0.703856 0.073321 0.443427 -0.257854
C27   C     C_R   0.556380 0.296166 0.924554 -0.268241
C28   C     C_R   0.450262 0.710381 0.051888 -0.253132
C29   C     C_R   0.939472 0.549813 0.298136 -0.246399
C30   C     C_R   0.074905 0.442755 0.704005 -0.272627
C31   C     C_R   0.527710 0.057849 0.532946 -0.084453
C32   C     C_R   0.436579 0.024949 0.446366 -0.088657
C33   C     C_R   0.057582 0.532370 0.528058 -0.086833
C34   C     C_R   0.097781 0.297536 0.524247 0.123799
C35   C     C_R   0.023527 0.446132 0.437418 -0.086605
C36   C     C_R   0.550504 0.559466 0.984824 -0.083533
C37   C     C_R   0.464828 0.471764 0.945829 -0.081734
C38   C     C_R   0.565076 0.063369 0.439113 0.063748
C39   C     C_R   0.403112 0.012248 0.541543 0.054547
C40   C     C_R   0.063479 0.438488 0.565549 0.063684
C41   C     C_R   0.010596 0.541334 0.403847 0.061105
C42   C     C_R   0.456669 0.599120 0.990030 0.053230
C43   C     C_R   0.558601 0.433623 0.940379 0.062613
C44   C     C_R   0.510774 0.061472 0.393562 0.062033
C45   C     C_R   0.698488 0.472301 0.910095 0.127143
C46   C     C_R   0.440826 0.043919 0.580967 0.063037
C47   C     C_R   0.413698 0.555609 0.968858 0.052729
C48   C     C_R   0.603337 0.485160 0.947433 0.062486
C49   C     C_R   0.060943 0.393005 0.511424 0.063304
C50   C     C_R   0.042878 0.580406 0.441252 0.062698
C51   C     C_R   0.536204 0.067877 0.670887 0.059726
C52   C     C_R   0.425167 0.019037 0.308203 0.047973
C53   C     C_R   0.067432 0.670431 0.536270 0.060289
C54   C     C_R   0.017841 0.308152 0.425752 0.048008
C55   C     C_R   0.689000 0.570249 0.990463 0.050787
C56   C     C_R   0.320032 0.588448 0.974685 0.122494
C57   C     C_R   0.328258 0.463403 0.933314 0.059693
C58   C     C_R   0.321864 0.965324 0.453842 0.065288
C59   C     C_R   0.668589 0.066609 0.537203 0.063660
C60   C     C_R   0.462944 0.331786 0.931035 0.060163
C61   C     C_R   0.543879 0.676176 0.042444 0.067424
C62   C     C_R   0.963085 0.454255 0.322655 0.069016
C63   C     C_R   0.067369 0.536649 0.668690 0.062302
C64   C     C_R   0.590414 0.061160 0.721586 -0.118723
C65   C     C_R   0.391168 0.984250 0.268313 -0.102048
C66   C     C_R   0.061029 0.721166 0.590569 -0.120637
C67   C     C_R   0.338263 0.962936 0.593317 0.118073
C68   C     C_R   0.983143 0.268556 0.391420 -0.103140
C69   C     C_R   0.729463 0.606195 0.022836 -0.100939
C70   C     C_R   0.278766 0.410127 0.936268 -0.118580
C71   C     C_R   0.276697 0.951965 0.406218 -0.114509
C72   C     C_R   0.720701 0.059934 0.590837 -0.120881
C73   C     C_R   0.410102 0.279749 0.936507 -0.109620
C74   C     C_R   0.591628 0.721935 0.054637 -0.125912
C75   C     C_R   0.950174 0.406896 0.276959 -0.128559
C76   C     C_R   0.060403 0.590357 0.720872 -0.110344
C77   C     C_R   0.679070 0.062563 0.679505 -0.307472
C78   C     C_R   0.656339 0.065982 0.396446 0.122532
C79   C     C_R   0.318426 0.950376 0.317943 -0.312981
C80   C     C_R   0.062747 0.679001 0.679351 -0.312871
C81   C     C_R   0.948817 0.318598 0.318528 -0.307380
C82   C     C_R   0.679522 0.679182 0.057474 -0.312745
C83   C     C_R   0.322142 0.322100 0.931537 -0.313112
C84   C     C_R   0.577478 0.064656 0.580026 0.072087
C85   C     C_R   0.395214 0.002208 0.403156 0.066097
C86   C     C_R   0.064714 0.579501 0.577625 0.070860
C87   C     C_R   0.000452 0.403206 0.396069 0.070337
C88   C     C_R   0.594050 0.600329 0.008119 0.070037
C89   C     C_R   0.602077 0.342546 0.935132 0.121446
C90   C     C_R   0.419244 0.422454 0.935637 0.071315
H1    H     H_    0.718917 0.057594 0.719136 0.195130
H2    H     H_    0.104741 0.183364 0.493731 0.176389
H3    H     H_    0.812267 0.503437 0.900964 0.175527
H4    H     H_    0.226439 0.598026 0.917162 0.179793
H5    H     H_    0.249901 0.902650 0.591080 0.164996
H6    H     H_    0.768774 0.084861 0.402904 0.180806
H7    H     H_    0.597208 0.231428 0.911386 0.181759
H8    H     H_    0.406205 0.764557 0.083017 0.171956
H9    H     H_    0.899921 0.591782 0.250370 0.162322
H10   H     H_    0.087413 0.402238 0.768812 0.180438
H11   H     H_    0.271392 0.159716 0.694918 0.179982
H12   H     H_    0.288630 0.930521 0.285328 0.187033
H13   H     H_    0.279759 0.053529 0.766541 0.180984
H14   H     H_    0.517368 0.228751 0.223766 0.184427
H15   H     H_    0.615245 0.151498 0.187150 0.182661
H16   H     H_    0.159115 0.690361 0.271438 0.177231
H17   H     H_    0.053802 0.764871 0.278603 0.181307
H18   H     H_    0.228529 0.222222 0.517823 0.190810
H19   H     H_    0.151919 0.185845 0.615428 0.200726
H20   H     H_    0.810004 0.382479 0.852649 0.181923
H21   H     H_    0.771002 0.481625 0.778294 0.185122
H22   H     H_    0.215574 0.597406 0.089744 0.198910
H23   H     H_    0.057785 0.718623 0.719335 0.194513
H24   H     H_    0.207907 0.693986 0.002416 0.177282
H25   H     H_    0.344459 0.852579 0.703688 0.184026
H26   H     H_    0.251439 0.942474 0.720587 0.178793
H27   H     H_    0.759208 0.987958 0.318917 0.180612
H28   H     H_    0.736084 0.101283 0.267103 0.181565
H29   H     H_    0.731682 0.261636 0.900929 0.183415
H30   H     H_    0.677686 0.237783 0.013687 0.169582
H31   H     H_    0.371069 0.804977 0.920180 0.192560
H32   H     H_    0.291012 0.782956 0.020522 0.175347
H33   H     H_    0.850730 0.704994 0.344638 0.181306
H34   H     H_    0.929222 0.286145 0.288312 0.189080
H35   H     H_    0.940224 0.720794 0.251816 0.180864
H36   H     H_    0.989944 0.318833 0.759720 0.171712
H37   H     H_    0.103138 0.266318 0.736710 0.174844
H38   H     H_    0.712390 0.709828 0.075975 0.187148
H39   H     H_    0.283392 0.282686 0.934369 0.191629
H40   H     H_    0.401777 0.105102 0.765685 0.168398
H41   H     H_    0.493455 0.105038 0.183969 0.174539
H42   H     H_    0.103483 0.764937 0.401641 0.167810
N1    N     N_3   0.296783 0.090662 0.697789 -0.465097
N2    N     N_3   0.343069 0.753720 0.970409 -0.449896
N3    N     N_3   0.921617 0.690412 0.322240 -0.450927
N4    N     N_3   0.050530 0.309084 0.706951 -0.451891
N5    N     N_3   0.566752 0.168874 0.245510 -0.446530
N6    N     N_3   0.089763 0.695547 0.296655 -0.453829
N7    N     N_3   0.168946 0.244182 0.567239 -0.449188
N8    N     N_3   0.750772 0.431135 0.837220 -0.446038
N9    N     N_3   0.253103 0.639630 0.036477 -0.445329
N10   N     N_3   0.321822 0.923578 0.689895 -0.450578
N11   N     N_3   0.706408 0.048922 0.309618 -0.453010
N12   N     N_3   0.688027 0.290975 0.953763 -0.452298
O1    O     O_R   0.982940 0.138950 0.510160 -0.634243
O2    O     O_R   0.982940 0.510160 0.138950 -0.629014
O3    O     O_R   0.861050 0.017060 0.489840 -0.637146
O4    O     O_R   0.138950 0.982940 0.510160 -0.648088
O5    O     O_R   0.867700 0.025880 0.612340 -0.617146
O6    O     O_R   0.132300 0.974120 0.387660 -0.631433
O7    O     O_R   0.025880 0.612340 0.867700 -0.632920
O8    O     O_R   0.974120 0.387660 0.132300 -0.613909
O9    O     O_R   0.612340 0.867700 0.025880 -0.612074
O10   O     O_R   0.387660 0.132300 0.974120 -0.633551
O11   O     O_R   0.387660 0.974120 0.132300 -0.636882
O12   O     O_R   0.017060 0.861050 0.489840 -0.632523
O13   O     O_R   0.612340 0.025880 0.867700 -0.627656
O14   O     O_R   0.132300 0.387660 0.974120 -0.628073
O15   O     O_R   0.867700 0.612340 0.025880 -0.633075
O16   O     O_R   0.974120 0.132300 0.387660 -0.634910
O17   O     O_R   0.025880 0.867700 0.612340 -0.628860
O18   O     O_R   0.138950 0.510160 0.982940 -0.640927
O19   O     O_R   0.861050 0.489840 0.017060 -0.637204
O20   O     O_R   0.510160 0.982940 0.138950 -0.635864
O21   O     O_R   0.489840 0.017060 0.861050 -0.633301
O22   O     O_R   0.489840 0.861050 0.017060 -0.635877
O23   O     O_R   0.510160 0.138950 0.982940 -0.655855
O24   O     O_R   0.017060 0.489840 0.861050 -0.655865
Zn1   Zn    Zn3+2 0.004880 0.004880 0.583590 0.931995
Zn2   Zn    Zn3+2 0.995120 0.995120 0.416410 0.922780
Zn3   Zn    Zn3+2 0.004880 0.583590 0.004880 0.921316
Zn4   Zn    Zn3+2 0.995120 0.416410 0.995120 0.923709
Zn5   Zn    Zn3+2 0.583590 0.004880 0.004880 0.926029
Zn6   Zn    Zn3+2 0.416410 0.995120 0.995120 0.915662

loop_
_geom_bond_atom_site_label_1
_geom_bond_atom_site_label_2
_ccdc_geom_bond_type
C15   C75   S    
C65   C79   A    
C9    O11   A    
C30   H10   S    
C64   C77   A    
C60   C73   A    
C23   N6    S    
C36   C42   A    
C17   O6    A    
H30   N12   S    
C7    C70   S    
C71   C79   A    
C7    O14   A    
O6    Zn2   S    
C36   C88   A    
C8    C69   S    
C26   C78   A    
O15   Zn3   S    
C37   C90   A    
C16   O3    A    
O5    Zn1   S    
C68   C81   A    
C52   C85   A    
H27   N11   S    
C13   O23   A    
C20   H42   S    
C83   H39   S    
C27   C60   A    
C54   C87   A    
O8    Zn4   S    
C1    C46   A    
H16   N6    S    
C54   C68   A    
C63   C76   A    
C40   C49   A    
O9    Zn5   S    
C34   N7    S    
O7    Zn3   S    
H14   N5    S    
C32   C39   A    
C55   C88   A    
C3    C29   A    
H32   N2    S    
C69   C82   A    
C35   C87   A    
C19   C52   A    
C27   H7    S    
O18   Zn3   S    
C4    C40   A    
C24   C57   A    
C31   C46   A    
C16   C72   S    
C14   O7    A    
C35   C49   A    
C11   O22   A    
C6    O17   A    
C79   H12   S    
C36   C48   A    
C53   C86   A    
C57   C70   A    
C37   C47   A    
C43   C48   A    
O3    Zn2   S    
C59   C72   A    
O23   Zn5   S    
O17   Zn1   S    
C28   C61   A    
H35   N3    S    
H25   N10   S    
H36   N4    S    
O2    Zn3   S    
C26   H6    S    
H29   N12   S    
C74   C82   A    
C5    C68   S    
C1    N1    S    
C15   O8    A    
H21   N8    S    
C19   H41   S    
C7    O18   A    
O1    Zn1   S    
O22   Zn6   S    
C33   C40   A    
C5    O1    A    
C57   C90   A    
C29   H9    S    
C81   H34   S    
H24   N9    S    
C17   O4    A    
H37   N4    S    
H28   N11   S    
O10   Zn6   S    
C75   C81   A    
C23   C50   A    
C21   C34   A    
C38   C78   A    
O21   Zn6   S    
C8    O19   A    
C45   N8    S    
C4    C30   A    
C31   C84   A    
H33   N3    S    
C25   C67   A    
C14   C76   S    
H22   N9    S    
C37   C43   A    
C9    O20   A    
C33   C86   A    
C38   C44   A    
C72   C77   A    
C70   C83   A    
C61   C88   A    
C24   H4    S    
C15   O2    A    
C20   C23   A    
O24   Zn4   S    
C5    O16   A    
O4    Zn1   S    
C1    C18   A    
O20   Zn5   S    
C2    N2    S    
C59   C84   A    
O19   Zn4   S    
C10   O13   A    
C82   H38   S    
C16   O5    A    
C35   C41   A    
C39   C46   A    
H26   N10   S    
C56   N9    S    
O11   Zn6   S    
C13   C73   S    
C25   H5    S    
H11   N1    S    
C63   C86   A    
H31   N2    S    
C22   H3    S    
C62   C75   A    
C18   H40   S    
C25   C58   A    
C14   O24   A    
C58   C85   A    
C41   C50   A    
C26   C59   A    
C45   C48   A    
C28   H8    S    
C29   C62   A    
C77   H1    S    
C34   C49   A    
C39   C67   A    
C10   C64   S    
C51   C64   A    
C76   C80   A    
C20   C53   A    
C11   C74   S    
H18   N7    S    
C17   C71   S    
C22   C55   A    
C60   C90   A    
C18   C51   A    
C24   C56   A    
C89   N12   S    
C66   C80   A    
C62   C87   A    
C31   C38   A    
C4    N4    S    
H19   N7    S    
C55   C69   A    
H17   N6    S    
H20   N8    S    
C33   C50   A    
C12   C44   A    
C53   C66   A    
C78   N11   S    
C8    O15   A    
O14   Zn4   S    
C21   C54   A    
C2    C42   A    
C10   O21   A    
C32   C85   A    
C12   C19   A    
O12   Zn2   S    
C27   C89   A    
C3    N3    S    
C42   C47   A    
C43   C89   A    
H13   N1    S    
C58   C71   A    
C9    C65   S    
C13   O10   A    
C3    C41   A    
C11   O9    A    
H15   N5    S    
C6    C66   S    
C22   C45   A    
C80   H23   S    
C32   C44   A    
O16   Zn2   S    
C12   N5    S    
C2    C28   A    
C30   C63   A    
C67   N10   S    
C51   C84   A    
C73   C83   A    
C6    O12   A    
C52   C65   A    
C61   C74   A    
O13   Zn5   S    
C47   C56   A    
C21   H2    S    
