data_str_m2_o14_o14_f0_pcu.sym.83
_audit_creation_date              2012-12-10T17:17:55-0500
_audit_creation_method            fapswitch 2.2
_symmetry_space_group_name_H-M    P1
_symmetry_Int_Tables_number       1
_space_group_crystal_system       triclinic
_cell_length_a                    15.052168
_cell_length_b                    15.580594
_cell_length_c                    9.574408
_cell_angle_alpha                 88.875041
_cell_angle_beta                  90.968321
_cell_angle_gamma                 90.04087
_cell_volume                      2244.65306102

loop_
_atom_site_label
_atom_site_type_symbol
_atom_type_description
_atom_site_fract_x
_atom_site_fract_y
_atom_site_fract_z
_atom_type_partial_charge
C1    C     C_R   0.387091 0.875852 0.501035 0.900001
C2    C     C_R   0.377005 0.114426 0.498004 0.851783
C3    C     C_R   0.887092 0.375852 0.501034 0.900011
C4    C     C_R   0.877006 0.614427 0.498004 0.851775
C5    C     C_R   0.297046 0.234078 0.384101 -0.210025
C6    C     C_R   0.288013 0.776216 0.377474 -0.180519
C7    C     C_R   0.797052 0.734083 0.384108 -0.210025
C8    C     C_R   0.788004 0.276225 0.377473 -0.180504
C9    C     C_R   0.737222 0.801031 0.389543 -0.203680
C10   C     C_R   0.717935 0.218890 0.377123 -0.204466
C11   C     C_R   0.237217 0.301027 0.389536 -0.203690
C12   C     C_R   0.217944 0.718881 0.377122 -0.204462
C13   C     C_R   0.687856 0.813748 0.510185 -0.081099
C14   C     C_R   0.678635 0.193623 0.502953 -0.090847
C15   C     C_R   0.187858 0.313750 0.510185 -0.081094
C16   C     C_R   0.178633 0.693623 0.502949 -0.090844
C17   C     C_R   0.663678 0.005168 0.147626 -0.166004
C18   C     C_R   0.163678 0.505168 0.147627 -0.166007
C19   C     C_R   0.743390 0.010438 0.077327 -0.331749
C20   C     C_R   0.243391 0.510441 0.077327 -0.331745
C21   C     C_R   0.744040 0.010364 0.932943 0.011273
C22   C     C_R   0.244040 0.510368 0.932943 0.011268
C23   C     C_R   0.663404 0.004252 0.859556 -0.163077
C24   C     C_R   0.163404 0.504254 0.859556 -0.163077
C25   C     C_R   0.580414 0.002352 0.927108 0.141028
C26   C     C_R   0.080414 0.502352 0.927108 0.141033
C27   C     C_R   0.580426 0.002599 0.076653 0.217480
C28   C     C_R   0.080426 0.502599 0.076653 0.217480
C29   C     C_R   0.423613 0.997357 0.072089 -0.072459
C30   C     C_R   0.923613 0.497359 0.072089 -0.072453
C31   C     C_R   0.614417 0.123047 0.500321 0.796966
C32   C     C_R   0.620322 0.881777 0.502987 0.827504
C33   C     C_R   0.114416 0.623047 0.500321 0.796961
C34   C     C_R   0.120323 0.381778 0.502987 0.827518
C35   C     C_R   0.423721 0.997303 0.924160 -0.068739
C36   C     C_R   0.923721 0.497305 0.924159 -0.068732
C37   C     C_R   0.226542 0.106580 0.698621 0.023459
C38   C     C_R   0.342457 0.769218 0.762272 0.021291
C39   C     C_R   0.726536 0.606573 0.698604 0.023449
C40   C     C_R   0.842479 0.269200 0.762260 0.021289
C41   C     C_R   0.192494 0.122438 0.830581 -0.210724
C42   C     C_R   0.295873 0.760636 0.887183 -0.255119
C43   C     C_R   0.692478 0.622422 0.830557 -0.210723
C44   C     C_R   0.795906 0.260606 0.887179 -0.255109
C45   C     C_R   0.667332 0.705020 0.864805 -0.141323
C46   C     C_R   0.705548 0.242096 0.883879 -0.146215
C47   C     C_R   0.167353 0.205038 0.864824 -0.141357
C48   C     C_R   0.205515 0.742125 0.883869 -0.146210
C49   C     C_R   0.667457 0.770460 0.763337 -0.105490
C50   C     C_R   0.663535 0.223418 0.757262 -0.146105
C51   C     C_R   0.167474 0.270473 0.763347 -0.105514
C52   C     C_R   0.163513 0.723436 0.757247 -0.146098
C53   C     C_R   0.698278 0.755460 0.626813 0.107753
C54   C     C_R   0.710909 0.227535 0.630814 0.097084
C55   C     C_R   0.198285 0.255467 0.626819 0.107778
C56   C     C_R   0.210897 0.727545 0.630808 0.097077
C57   C     C_R   0.242257 0.177044 0.605126 0.087380
C58   C     C_R   0.295090 0.766605 0.632248 0.099980
C59   C     C_R   0.742253 0.677040 0.605119 0.087378
C60   C     C_R   0.795102 0.266595 0.632245 0.099957
C61   C     C_R   0.301827 0.173249 0.493028 -0.073632
C62   C     C_R   0.326312 0.802214 0.504120 -0.063070
C63   C     C_R   0.801828 0.673250 0.493028 -0.073627
C64   C     C_R   0.826313 0.302213 0.504117 -0.063084
Cu1   Cu    Cu3+1 0.499990 0.000000 0.640660 0.939483
Cu2   Cu    Cu3+1 0.999990 0.500000 0.640660 0.939480
Cu3   Cu    Cu3+1 0.500010 0.000000 0.359340 0.949353
Cu4   Cu    Cu3+1 0.000010 0.500000 0.359340 0.949355
H1    H     H_    0.340522 0.230612 0.295324 0.163131
H2    H     H_    0.312245 0.799991 0.278071 0.153467
H3    H     H_    0.840533 0.730621 0.295337 0.163128
H4    H     H_    0.812228 0.300009 0.278069 0.153472
H5    H     H_    0.669358 0.999759 0.750113 0.231652
H6    H     H_    0.169358 0.499759 0.750113 0.231648
H7    H     H_    0.361300 0.994980 0.867607 0.120473
H8    H     H_    0.861299 0.494986 0.867605 0.120475
H9    H     H_    0.183076 0.070470 0.905758 0.124993
H10   H     H_    0.330025 0.765355 0.987286 0.127323
H11   H     H_    0.683057 0.570451 0.905727 0.124994
H12   H     H_    0.830065 0.265318 0.987276 0.127326
H13   H     H_    0.642759 0.717463 0.968106 0.138594
H14   H     H_    0.669197 0.237086 0.980318 0.145431
H15   H     H_    0.142788 0.217486 0.968129 0.138597
H16   H     H_    0.169156 0.737123 0.980302 0.145432
H17   H     H_    0.645422 0.831900 0.797364 0.157354
H18   H     H_    0.593551 0.208133 0.759719 0.164002
H19   H     H_    0.145444 0.331915 0.797370 0.157348
H20   H     H_    0.093529 0.708149 0.759692 0.163997
H21   H     H_    0.732270 0.845073 0.300807 0.160729
H22   H     H_    0.693662 0.195535 0.277686 0.163774
H23   H     H_    0.232261 0.345064 0.300794 0.160731
H24   H     H_    0.193680 0.695518 0.277685 0.163779
H25   H     H_    0.360994 0.995254 0.125864 0.145839
H26   H     H_    0.860992 0.495258 0.125864 0.145840
H27   H     H_    0.672112 0.002793 0.257697 0.211089
H28   H     H_    0.172112 0.502793 0.257697 0.211087
H29   H     H_    0.805198 0.013656 0.136791 0.155625
H30   H     H_    0.305198 0.513660 0.136790 0.155625
N1    N     N_R   0.501200 0.000000 0.147910 -0.199699
N2    N     N_R   0.001200 0.500000 0.147910 -0.199701
N3    N     N_R   0.501270 0.000000 0.852040 -0.205128
N4    N     N_R   0.001270 0.500000 0.852040 -0.205129
O1    O     O_R   0.409820 0.909830 0.618810 -0.595290
O2    O     O_R   0.409820 0.090170 0.618810 -0.593683
O3    O     O_R   0.909820 0.409830 0.618810 -0.595298
O4    O     O_R   0.909820 0.590170 0.618810 -0.593689
O5    O     O_R   0.409840 0.909830 0.381240 -0.582431
O6    O     O_R   0.409840 0.090170 0.381240 -0.576570
O7    O     O_R   0.909840 0.409830 0.381240 -0.582426
O8    O     O_R   0.909840 0.590170 0.381240 -0.576566
O9    O     O_R   0.590170 0.090170 0.618760 -0.607238
O10   O     O_R   0.590170 0.909830 0.618760 -0.611853
O11   O     O_R   0.090170 0.590170 0.618760 -0.607234
O12   O     O_R   0.090170 0.409830 0.618760 -0.611850
O13   O     O_R   0.590190 0.090180 0.381190 -0.606792
O14   O     O_R   0.590190 0.909820 0.381190 -0.603952
O15   O     O_R   0.090190 0.590180 0.381190 -0.606795
O16   O     O_R   0.090190 0.409820 0.381190 -0.603954
C65   C     C_2   0.829873 0.016221 0.859948 0.376032
H31   H     H_    0.891590 0.019595 0.919925 0.070064
O17   O     O_2   0.832885 0.017966 0.732521 -0.545929
C66   C     C_2   0.329873 0.516229 0.859947 0.376031
H32   H     H_    0.391590 0.519603 0.919925 0.070067
O18   O     O_2   0.332884 0.517977 0.732521 -0.545924
C67   C     C_2   0.230897 0.015886 0.654905 0.363780
H33   H     H_    0.232202 0.964315 0.732799 0.054883
O19   O     O_2   0.227124 0.997478 0.531588 -0.564211
C68   C     C_2   0.440444 0.764274 0.771486 0.416649
H34   H     H_    0.475168 0.780800 0.867564 0.038676
O20   O     O_2   0.482862 0.738011 0.673547 -0.548257
C69   C     C_2   0.730897 0.515881 0.654880 0.363782
H35   H     H_    0.732206 0.464306 0.732770 0.054880
O21   O     O_2   0.727123 0.497478 0.531562 -0.564209
C70   C     C_2   0.940467 0.264264 0.771455 0.416662
H36   H     H_    0.975194 0.280786 0.867530 0.038688
O22   O     O_2   0.982882 0.238014 0.673505 -0.548269

loop_
_geom_bond_atom_site_label_1
_geom_bond_atom_site_label_2
_ccdc_geom_bond_type
C34   O16   A    
Cu2   Cu4   S    
C58   C62   A    
C40   C60   A    
Cu2   O11   S    
C18   H28   S    
Cu2   N4    S    
C13   C32   S    
Cu1   N3    S    
C14   C31   S    
Cu3   O5    S    
C1    C62   S    
C16   C56   A    
C53   C59   A    
C54   C60   A    
C3    C64   S    
C3    O3    A    
C33   O15   A    
C4    C63   S    
C27   N1    A    
C50   C54   A    
C19   C21   A    
C24   C26   A    
C5    C11   A    
C6    C12   A    
C16   C33   S    
C41   H9    S    
Cu3   O6    S    
C43   H11   S    
C30   N2    A    
C18   C20   A    
C36   N4    A    
C9    C13   A    
Cu1   O9    S    
C5    H1    S    
C36   H8    S    
Cu4   O16   S    
C46   H14   S    
C11   C15   A    
C47   C51   A    
C12   C16   A    
Cu1   Cu3   S    
C40   C44   A    
C17   H27   S    
C45   C49   A    
Cu2   O12   S    
C1    O1    A    
C15   C34   S    
C13   C53   A    
C2    C61   S    
Cu3   N1    S    
C28   N2    A    
C38   C58   A    
C68   H34   S    
C6    H2    S    
C23   H5    S    
C31   O13   A    
C26   C28   A    
C29   H25   S    
C44   C46   A    
C46   C50   A    
C22   C66   S    
C37   C67   S    
C65   O17   D    
C19   H29   S    
C8    H4    S    
C29   N1    A    
C17   C27   A    
C49   H17   S    
C44   H12   S    
C18   C28   A    
C10   C14   A    
C9    H21   S    
C39   C43   A    
C35   N3    A    
C4    O4    A    
C48   H16   S    
C15   C55   A    
C42   C48   A    
Cu3   O14   S    
Cu4   N2    S    
Cu1   O10   S    
Cu4   O15   S    
C38   C68   S    
C2    O2    A    
C39   C59   A    
C41   C47   A    
C5    C61   A    
Cu4   O8    S    
C32   O14   A    
C43   C45   A    
C7    C63   A    
C8    C64   A    
C8    C10   A    
C14   C54   A    
C1    O5    A    
C42   H10   S    
C47   H15   S    
C21   C23   A    
C67   H33   S    
C22   C24   A    
C34   O12   A    
Cu1   O1    S    
Cu2   O3    S    
C66   O18   D    
C69   H35   S    
C7    C9    A    
C4    O8    A    
C32   O10   A    
C59   C63   A    
C12   H24   S    
C45   H13   S    
C35   H7    S    
C20   C22   A    
C69   O21   D    
C68   O20   D    
C70   O22   D    
C65   H31   S    
C24   H6    S    
C57   C61   A    
C70   H36   S    
C25   C27   A    
C29   C35   A    
C51   H19   S    
C33   O11   A    
C30   C36   A    
C60   C64   A    
C6    C62   A    
C55   C57   A    
C30   H26   S    
C40   C70   S    
C26   N4    A    
C7    H3    S    
C25   N3    A    
Cu2   O4    S    
C39   C69   S    
C3    O7    A    
C49   C53   A    
C2    O6    A    
C17   C19   A    
C56   C58   A    
C51   C55   A    
Cu4   O7    S    
C23   C25   A    
C37   C41   A    
C52   H20   S    
Cu3   O13   S    
C50   H18   S    
C38   C42   A    
C11   H23   S    
C48   C52   A    
C20   H30   S    
C10   H22   S    
C21   C65   S    
C67   O19   D    
C31   O9    A    
Cu1   O2    S    
C66   H32   S    
C37   C57   A    
C52   C56   A    
