data_str_m3_o10_o18_f0_pcu.sym.34
_audit_creation_date              2012-12-10T16:52:39-0500
_audit_creation_method            fapswitch 2.2
_symmetry_space_group_name_H-M    P1
_symmetry_Int_Tables_number       1
_space_group_crystal_system       triclinic
_cell_length_a                    7.853774
_cell_length_b                    8.567841
_cell_length_c                    13.767096
_cell_angle_alpha                 93.435523
_cell_angle_beta                  93.137123
_cell_angle_gamma                 94.22252
_cell_volume                      920.582738627

loop_
_atom_site_label
_atom_site_type_symbol
_atom_type_description
_atom_site_fract_x
_atom_site_fract_y
_atom_site_fract_z
_atom_type_partial_charge
C1    C     C_R   0.045121 0.794612 0.497584 0.949497
C2    C     C_R   0.936943 0.487539 0.318056 0.873753
C3    C     C_R   0.095253 0.535096 0.786528 -0.072327
C4    C     C_R   0.904747 0.464903 0.213472 -0.072328
C5    C     C_R   0.061752 0.676127 0.940174 -0.178394
C6    C     C_R   0.938247 0.323871 0.059826 -0.178394
C7    C     C_R   0.006632 0.639537 0.843054 -0.166517
C8    C     C_R   0.993367 0.360461 0.156946 -0.166517
C9    C     C_R   0.234311 0.466975 0.827158 -0.191183
C10   C     C_R   0.765689 0.533024 0.172842 -0.191184
C11   C     C_R   0.310252 0.524616 0.916960 0.105312
C12   C     C_R   0.954879 0.205388 0.502416 0.949497
C13   C     C_R   0.689748 0.475382 0.083040 0.105313
C14   C     C_R   0.213730 0.619322 0.977414 0.096296
C15   C     C_R   0.786269 0.380675 0.022587 0.096296
C16   C     C_R   0.474681 0.484581 0.949717 -0.074378
C17   C     C_R   0.525319 0.515417 0.050283 -0.074378
C18   C     C_R   0.407889 0.582457 0.113812 0.352633
C19   C     C_R   0.592110 0.417540 0.886189 0.352633
C20   C     C_R   0.263097 0.645993 0.075485 -0.252561
C21   C     C_R   0.736902 0.354004 0.924515 -0.252562
C22   C     C_2   0.068508 0.958400 0.496164 -0.367210
C23   C     C_2   0.931492 0.041599 0.503836 -0.367210
C24   C     C_R   0.063057 0.512461 0.681944 0.873754
Cl1   Cl    Cl    0.411528 0.565407 0.241148 -0.670023
Cl2   Cl    Cl    0.588472 0.434590 0.758852 -0.670023
H1    H     H_    0.180175 0.704172 0.124144 0.178784
H2    H     H_    0.802432 0.990080 0.511175 0.188136
H3    H     H_    0.486859 0.373196 0.428213 0.212434
H4    H     H_    0.513141 0.626803 0.571787 0.212433
H5    H     H_    0.819823 0.295824 0.875856 0.178784
H6    H     H_    0.717936 0.630601 0.213223 0.196661
H7    H     H_    0.282064 0.369398 0.786777 0.196662
H8    H     H_    0.103363 0.307421 0.187687 0.183726
H9    H     H_    0.896637 0.692578 0.812313 0.183726
H10   H     H_    0.988137 0.750580 0.985380 0.142358
H11   H     H_    0.011862 0.249417 0.014620 0.142358
H12   H     H_    0.197568 0.009920 0.488825 0.188136
N1    N     N_2   0.440860 0.456490 0.474790 -0.119930
N2    N     N_2   0.559140 0.543510 0.525210 -0.119930
O1    O     O_R   0.891570 0.738930 0.506190 -0.616802
O2    O     O_R   0.108430 0.261070 0.493810 -0.616801
O3    O     O_R   0.174650 0.711050 0.490030 -0.610570
O4    O     O_R   0.825350 0.288950 0.509970 -0.610569
O5    O     O_R   0.909850 0.521900 0.644940 -0.569657
O6    O     O_R   0.090150 0.478100 0.355060 -0.569656
O7    O     O_R   0.192930 0.494020 0.628780 -0.599246
O8    O     O_R   0.807070 0.505980 0.371220 -0.599245
Zn1   Zn    Zn3+2 0.810990 0.518620 0.510790 1.009206
Zn2   Zn    Zn3+2 0.189010 0.481380 0.489210 1.009206

loop_
_geom_bond_atom_site_label_1
_geom_bond_atom_site_label_2
_ccdc_geom_bond_type
O4    Zn1   S    
C2    C4    S    
O3    Zn2   S    
C3    C9    A    
C20   H1    S    
O5    Zn1   S    
C9    C11   A    
C11   C16   A    
O6    Zn2   S    
C18   C20   A    
C13   C17   A    
C4    C8    A    
H3    N1    S    
C17   C18   A    
C5    C14   A    
C6    H11   S    
H4    N2    S    
C1    C22   S    
C12   O4    A    
C8    H8    S    
C23   H2    S    
C2    O6    A    
C9    H7    S    
C21   H5    S    
C12   C23   S    
C3    C24   S    
C18   Cl1   S    
O2    Zn2   S    
C16   C19   A    
C6    C8    A    
C24   O5    A    
O1    Zn1   S    
O8    Zn1   S    
C19   C21   A    
O7    Zn2   S    
C3    C7    A    
C13   C15   A    
C11   C14   A    
C4    C10   A    
N2    Zn1   S    
C22   H12   S    
C5    H10   S    
C10   H6    S    
C15   C21   A    
N1    Zn2   S    
C14   C20   A    
C1    O1    A    
N1    N2    D    
C5    C7    A    
C19   Cl2   S    
C22   C23   D    
C12   O2    A    
C2    O8    A    
C6    C15   A    
C24   O7    A    
C7    H9    S    
C1    O3    A    
C16   C17   A    
C10   C13   A    
