data_str_m2_o10_o29_f0_pcu.sym.92
_audit_creation_date              2012-12-10T16:51:19-0500
_audit_creation_method            fapswitch 2.2
_symmetry_space_group_name_H-M    P1
_symmetry_Int_Tables_number       1
_space_group_crystal_system       triclinic
_cell_length_a                    27.749327
_cell_length_b                    8.672884
_cell_length_c                    7.599064
_cell_angle_alpha                 104.169439
_cell_angle_beta                  95.067287
_cell_angle_gamma                 95.238609
_cell_volume                      1754.15540182

loop_
_atom_site_label
_atom_site_type_symbol
_atom_type_description
_atom_site_fract_x
_atom_site_fract_y
_atom_site_fract_z
_atom_type_partial_charge
C1    C     C_R   0.498476 0.199594 0.452224 0.855496
C2    C     C_R   0.867485 0.326143 0.427501 -0.067675
C3    C     C_R   0.355055 0.507233 0.496127 -0.095955
C4    C     C_R   0.644461 0.481122 0.496022 -0.110610
C5    C     C_R   0.969888 0.343174 0.409904 0.004564
C6    C     C_R   0.029134 0.641116 0.546255 0.000498
C7    C     C_R   0.977512 0.634926 0.534697 0.060699
C8    C     C_R   0.020791 0.353535 0.395675 0.059847
C9    C     C_R   0.948236 0.484525 0.473354 0.074433
C10   C     C_R   0.050499 0.501830 0.471001 0.074076
C11   C     C_R   0.939984 0.195266 0.360787 -0.210033
C12   C     C_R   0.501433 0.800381 0.547782 0.862286
C13   C     C_R   0.059889 0.782954 0.632253 -0.200217
C14   C     C_R   0.889131 0.184061 0.358711 0.085113
C15   C     C_R   0.110784 0.795215 0.634188 0.097291
C16   C     C_R   0.407761 0.500463 0.499830 0.819383
C17   C     C_R   0.592107 0.495275 0.498855 0.825830
C18   C     C_R   0.043001 0.220773 0.305126 -0.236801
C19   C     C_R   0.953968 0.774863 0.580167 -0.237266
C20   C     C_2   0.497650 0.030254 0.426981 -0.298955
C21   C     C_2   0.502182 0.969705 0.573033 -0.296117
C22   C     C_R   0.173065 0.378997 0.385032 0.548298
C23   C     C_R   0.101885 0.510147 0.471046 -0.060230
C24   C     C_R   0.824445 0.610711 0.521963 0.536336
C25   C     C_R   0.183716 0.650634 0.561096 0.640603
C26   C     C_R   0.817293 0.325886 0.450822 0.635049
C27   C     C_R   0.281346 0.592784 0.369288 0.429102
C28   C     C_R   0.712114 0.397246 0.326054 0.434451
C29   C     C_R   0.331846 0.589522 0.381455 -0.275138
C30   C     C_R   0.662146 0.402332 0.334878 -0.226659
C31   C     C_R   0.327204 0.425106 0.596383 -0.115655
C32   C     C_R   0.676975 0.543272 0.654801 -0.123342
C33   C     C_R   0.277263 0.431842 0.590127 -0.106335
C34   C     C_R   0.896957 0.475980 0.475993 -0.055836
C35   C     C_R   0.726556 0.531782 0.650590 -0.072573
C36   C     C_R   0.254049 0.515613 0.477997 0.239170
C37   C     C_R   0.744777 0.462363 0.486700 0.216734
C38   C     C_3   0.858059 0.023605 0.271708 -0.302171
C39   C     C_3   0.883332 0.893452 0.149216 -0.457965
C40   C     C_3   0.846755 0.750297 0.047705 -0.697461
C41   C     C_3   0.141307 0.958221 0.714295 -0.304489
C42   C     C_3   0.113374 0.105578 0.766056 -0.470644
C43   C     C_3   0.148171 0.260486 0.825515 -0.683281
C44   C     C_R   0.122655 0.372414 0.385281 -0.007826
C45   C     C_R   0.875063 0.618479 0.526573 -0.014209
C46   C     C_R   0.092882 0.230325 0.300559 -0.168064
C47   C     C_R   0.903840 0.766335 0.576973 -0.175819
C48   C     C_R   0.132480 0.654747 0.556206 -0.074330
Cu1   Cu    Cu3+1 0.505380 0.517380 0.684380 1.151590
Cu2   Cu    Cu3+1 0.494620 0.482620 0.315620 1.144997
H1    H     H_    0.343411 0.350750 0.674060 0.222579
H2    H     H_    0.044395 0.884801 0.705314 0.136665
H3    H     H_    0.022741 0.108149 0.231237 0.139521
H4    H     H_    0.973039 0.894054 0.612973 0.138343
H5    H     H_    0.493306 0.955397 0.287786 0.202075
H6    H     H_    0.506514 0.044565 0.712228 0.201196
H7    H     H_    0.374592 0.210635 0.032499 0.359989
H8    H     H_    0.620537 0.820623 0.986019 0.358981
H9    H     H_    0.667607 0.229352 0.914365 0.361378
H10   H     H_    0.311481 0.804545 0.100924 0.361243
H11   H     H_    0.827902 0.698461 0.146604 0.288453
H12   H     H_    0.664220 0.602049 0.781925 0.216063
H13   H     H_    0.819380 0.787584 0.955622 0.269586
H14   H     H_    0.866037 0.656963 0.963963 0.238690
H15   H     H_    0.911030 0.849425 0.233444 0.231679
H16   H     H_    0.901415 0.943267 0.046888 0.237636
H17   H     H_    0.843510 0.974939 0.381054 0.252450
H18   H     H_    0.827074 0.047018 0.182643 0.273158
H19   H     H_    0.173441 0.259608 0.946798 0.297603
H20   H     H_    0.169724 0.274753 0.713212 0.240746
H21   H     H_    0.127037 0.364309 0.861340 0.251157
H22   H     H_    0.088079 0.111898 0.646779 0.238487
H23   H     H_    0.256240 0.368918 0.669939 0.174015
H24   H     H_    0.092242 0.097412 0.881674 0.226639
H25   H     H_    0.164413 0.952389 0.839135 0.260094
H26   H     H_    0.164909 0.980640 0.610143 0.255728
H27   H     H_    0.751198 0.580590 0.774523 0.187637
H28   H     H_    0.108084 0.124434 0.230778 0.192036
H29   H     H_    0.887738 0.877219 0.614850 0.187326
H30   H     H_    0.636895 0.344115 0.215572 0.203171
H31   H     H_    0.353235 0.650515 0.300842 0.195055
H32   H     H_    0.956113 0.085663 0.327744 0.135914
N1    N     N_R   0.202278 0.516161 0.472031 -0.441639
N2    N     N_R   0.796638 0.465941 0.484784 -0.437836
N3    N     N_2   0.486510 0.456430 0.038510 0.085914
N4    N     N_2   0.513490 0.543570 0.961490 0.084416
O1    O     O_R   0.503500 0.286120 0.619780 -0.558833
O2    O     O_2   0.803035 0.747052 0.554948 -0.532293
O3    O     O_2   0.789402 0.188852 0.445417 -0.496783
O4    O     O_2   0.215186 0.776938 0.656822 -0.503673
O5    O     O_2   0.394641 0.487203 0.954934 -0.311630
O6    O     O_2   0.426741 0.259285 0.753910 -0.320469
O7    O     O_3   0.410102 0.237220 0.069775 -0.499908
O8    O     O_2   0.572640 0.744640 0.249200 -0.292524
O9    O     O_2   0.606992 0.527345 0.044922 -0.301706
O10   O     O_3   0.586948 0.773498 0.933022 -0.514583
O11   O     O_2   0.779877 0.399910 0.092372 -0.302074
O12   O     O_R   0.496500 0.713880 0.380220 -0.560075
O13   O     O_2   0.737452 0.140224 0.093011 -0.276946
O14   O     O_3   0.690611 0.328667 0.941527 -0.504507
O15   O     O_2   0.205245 0.599037 0.126524 -0.289836
O16   O     O_2   0.245118 0.855701 0.317311 -0.258849
O17   O     O_3   0.289293 0.704136 0.050586 -0.487729
O18   O     O_R   0.494410 0.256780 0.308360 -0.559610
O19   O     O_R   0.505590 0.743220 0.691640 -0.551377
O20   O     O_R   0.434810 0.514700 0.655690 -0.523715
O21   O     O_R   0.565190 0.485300 0.344310 -0.536565
O22   O     O_R   0.425720 0.485350 0.344280 -0.538027
O23   O     O_R   0.574280 0.514650 0.655720 -0.539772
O24   O     O_2   0.193046 0.248428 0.300445 -0.526058
S1    S     S_3+6 0.428970 0.361699 0.944785 0.120703
S2    S     S_3+6 0.570417 0.645401 0.056962 0.134999
S3    S     S_3+6 0.731833 0.313963 0.111047 0.023783
S4    S     S_3+6 0.253467 0.690421 0.214989 0.031723

loop_
_geom_bond_atom_site_label_1
_geom_bond_atom_site_label_2
_ccdc_geom_bond_type
C1    O1    A    
Cu2   O18   S    
H9    O14   S    
C27   C29   A    
C41   C42   S    
Cu1   O1    S    
C47   H29   S    
N3    N4    D    
C26   O3    S    
C29   H31   S    
O10   S2    S    
C25   O4    S    
C40   H13   S    
C24   C45   A    
C35   C37   A    
C5    C11   A    
O9    S2    D    
C17   O21   A    
C38   C39   S    
C11   C14   A    
C19   C47   A    
C14   C38   S    
C36   N1    S    
C33   C36   A    
O5    S1    D    
C3    C29   A    
H8    O10   S    
Cu2   N3    S    
C22   C44   A    
C22   O24   S    
C43   H21   S    
C31   C33   A    
C37   N2    S    
H10   O17   S    
C12   O12   A    
C18   H3    S    
C16   O20   A    
C30   H30   S    
C2    C34   A    
C43   H19   S    
H7    O7    S    
Cu2   O22   S    
O15   S4    D    
C39   H15   S    
C21   H6    S    
C15   C48   A    
C20   H5    S    
C18   C46   A    
C44   C46   A    
C6    C7    A    
C45   C47   A    
C11   H32   S    
Cu2   O12   S    
C42   H24   S    
C32   C35   A    
O17   S4    S    
C15   C41   S    
C28   S3    S    
C39   C40   S    
C46   H28   S    
C16   O22   A    
Cu1   O19   S    
C12   C21   S    
C35   H27   S    
C8    C18   A    
C40   H11   S    
N4    S2    S    
C5    C9    A    
O16   S4    D    
C41   H25   S    
C13   H2    S    
C25   C48   A    
C42   H22   S    
C2    C26   A    
C34   C45   A    
C38   H17   S    
C3    C31   A    
C24   O2    S    
C1    O18   A    
C4    C32   A    
O7    S1    S    
C4    C17   S    
C19   H4    S    
C33   H23   S    
C38   H18   S    
C43   H20   S    
C7    C19   A    
C13   C15   A    
Cu2   O21   S    
C10   C23   A    
C39   H16   S    
C42   C43   S    
O11   S3    D    
Cu1   O23   S    
C7    C9    A    
C1    C20   S    
C26   N2    A    
C23   C48   A    
Cu1   N4    S    
O14   S3    S    
C31   H1    S    
N3    S1    S    
C17   O23   A    
O13   S3    D    
C5    C8    A    
O6    S1    D    
Cu1   O20   S    
C27   C36   A    
C40   H14   S    
C22   N1    A    
C28   C30   A    
C24   N2    A    
C32   H12   S    
C41   H26   S    
C12   O19   A    
C28   C37   A    
O8    S2    D    
C9    C34   A    
C2    C14   A    
C6    C10   A    
C23   C44   A    
C27   S4    S    
C20   C21   D    
C8    C10   A    
Cu1   Cu2   S    
C25   N1    A    
C4    C30   A    
C3    C16   S    
C6    C13   A    
