data_str_m2_o1_o14_f0_pcu.sym.46
_audit_creation_date              2013-03-05T16:04:07-0500
_audit_creation_method            fapswitch 2.2
_symmetry_space_group_name_H-M    P1
_symmetry_Int_Tables_number       1
_space_group_crystal_system       triclinic
_cell_length_a                    10.835052
_cell_length_b                    9.501665
_cell_length_c                    10.799847
_cell_angle_alpha                 90.36217
_cell_angle_beta                  89.253851
_cell_angle_gamma                 90.11384
_cell_volume                      1111.73691259

loop_
_atom_site_label
_atom_site_type_symbol
_atom_site_description
_atom_site_fract_x
_atom_site_fract_y
_atom_site_fract_z
_atom_type_partial_charge
O1    O     O_R   0.319640 0.618740 0.499990 -0.562098
O2    O     O_R   0.680360 0.618740 0.500010 -0.563187
O3    O     O_R   0.319620 0.381170 0.499990 -0.599429
O4    O     O_R   0.680380 0.381170 0.500010 -0.603212
C1    C     C_R   0.262004 0.499871 0.499971 0.817060
C2    C     C_R   0.737992 0.500029 0.499994 0.817205
O5    O     O_R   0.500000 0.618810 0.319650 -0.563725
O6    O     O_R   0.500000 0.618810 0.680350 -0.560887
O7    O     O_R   0.499970 0.381240 0.319640 -0.599712
O8    O     O_R   0.500030 0.381240 0.680360 -0.607768
C3    C     C_R   0.489857 0.500147 0.262322 0.824837
C4    C     C_R   0.509281 0.501005 0.737806 0.832048
Cu1   Cu    Cu3+1 0.500000 0.640660 0.500000 1.035000
Cu2   Cu    Cu3+1 0.500000 0.359340 0.500000 0.948809
H1    H     H_    0.499827 0.275602 0.110094 0.205906
H2    H     H_    0.502972 0.276403 0.886299 0.203426
C5    C     C_R   0.422060 0.756788 0.111075 0.210954
C6    C     C_R   0.573168 0.760448 0.896720 0.197510
C7    C     C_R   0.457999 0.886088 0.058205 0.233531
C8    C     C_R   0.544072 0.887421 0.959757 0.235052
C9    C     C_R   0.521956 0.631941 0.941094 -0.119665
C10   C     C_R   0.472053 0.630200 0.061548 -0.112787
C11   C     C_R   0.478497 0.501776 0.127622 -0.009071
C12   C     C_R   0.517999 0.503674 0.872640 -0.003514
C13   C     C_R   0.494639 0.375336 0.062735 -0.235040
C14   C     C_R   0.503207 0.376148 0.935271 -0.213875
C15   C     C_R   0.063610 0.371963 0.498569 -0.188877
C16   C     C_R   0.935919 0.372055 0.498816 -0.203470
H3    H     H_    0.111463 0.271954 0.497501 0.153886
H4    H     H_    0.887699 0.272067 0.498015 0.154407
C17   C     C_R   0.871801 0.500023 0.500069 -0.010753
C18   C     C_R   0.128188 0.499833 0.499741 -0.007425
C19   C     C_R   0.936375 0.627882 0.501163 -0.137043
C20   C     C_R   0.064068 0.627791 0.500905 -0.134090
H5    H     H_    0.888504 0.727883 0.502246 0.164326
H6    H     H_    0.112295 0.727771 0.501718 0.165522
C21   C     C_R   0.426365 0.074884 0.580842 -0.008400
C22   C     C_R   0.573599 0.074075 0.419119 0.010597
H7    H     H_    0.367488 0.131443 0.645622 0.109804
H8    H     H_    0.632424 0.129985 0.354294 0.109213
C23   C     C_R   0.426206 0.925938 0.580704 0.081244
C24   C     C_R   0.573753 0.925132 0.419251 0.080504
H9    H     H_    0.367314 0.870001 0.645439 0.091682
H10   H     H_    0.632639 0.868569 0.354482 0.089949
N1    N     N_R   0.500000 0.852070 0.500000 -0.136742
N2    N     N_R   0.500000 0.147940 0.500000 -0.170065
N3    N     N_R   0.324840 0.752905 0.203474 0.150903
O9    O     O_R   0.314067 0.852110 0.286424 -0.357653
O10   O     O_R   0.244892 0.650471 0.203597 -0.399686
N4    N     N_R   0.667526 0.760172 0.801493 0.149162
O11   O     O_R   0.676837 0.863616 0.723590 -0.359309
O12   O     O_R   0.748355 0.659093 0.795900 -0.405004
O13   O     O_3   0.416758 0.011643 0.109018 -0.574058
C25   C     C_3   0.305091 0.049870 0.051866 0.108689
H11   H     H_    0.244891 0.957068 0.031673 0.143098
H12   H     H_    0.326314 0.104741 0.963376 0.137714
C26   C     C_3   0.232739 0.149028 0.138279 -0.277171
H13   H     H_    0.215594 0.096753 0.228622 0.252887
H14   H     H_    0.286630 0.246175 0.156061 0.225438
C27   C     C_3   0.109120 0.189308 0.083082 -0.943253
H15   H     H_    0.123301 0.242486 0.992634 0.263847
H16   H     H_    0.059523 0.262280 0.147132 0.270263
H17   H     H_    0.051666 0.093573 0.069808 0.248882
O14   O     O_3   0.594776 0.014160 0.922230 -0.553158
C28   C     C_3   0.710605 0.030876 0.979660 0.136322
H18   H     H_    0.773497 0.941302 0.957476 0.155632
H19   H     H_    0.698417 0.037666 0.082169 0.091909
C29   C     C_3   0.773592 0.166603 0.936033 -0.388749
H20   H     H_    0.721684 0.259101 0.970977 0.224708
H21   H     H_    0.866863 0.172610 0.976613 0.175409
C30   C     C_3   0.786382 0.174350 0.795160 -0.651295
H22   H     H_    0.841793 0.084352 0.759347 0.247750
H23   H     H_    0.834048 0.273656 0.769193 0.218636
H24   H     H_    0.694228 0.173380 0.751315 0.286452

loop_
_geom_bond_atom_site_label_1
_geom_bond_atom_site_label_2
_geom_bond_distance
_ccdc_geom_bond_type
C8    O14   1.383477 S    
C30   H24   1.110639 S    
N4    O12   1.301642 A    
O7    Cu2   1.960255 S    
C17   C19   1.400798 A    
C22   C24   1.415222 A    
O6    Cu1   1.960090 S    
Cu1   Cu2   2.673008 S    
C15   H3    1.083332 S    
C6    C9    1.423465 A    
C23   H9    1.081745 S    
C4    C12   1.460529 S    
C6    C8    1.415599 A    
C5    C10   1.418854 A    
C28   H19   1.114704 S    
O6    C4    1.287998 A    
C28   C29   1.531901 S    
O14   C28   1.415344 S    
C7    O13   1.382570 S    
C7    C8    1.405223 A    
C16   H4    1.083360 S    
C19   C20   1.383535 A    
C15   C18   1.400925 A    
C30   H22   1.110461 S    
N3    O10   1.301654 A    
O4    Cu2   1.964993 S    
O13   C25   1.414511 S    
C13   C14   1.378584 A    
C22   N2    1.366692 A    
O5    C3    1.288064 A    
O7    C3    1.297221 A    
C6    N4    1.440668 S    
C26   H13   1.110961 S    
O2    C2    1.290350 A    
O3    Cu2   1.965814 S    
C24   H10   1.081756 S    
C27   H15   1.111356 S    
C29   C30   1.528133 S    
O1    C1    1.289517 A    
O8    C4    1.296980 A    
C27   H16   1.110742 S    
C22   H8    1.081815 S    
C12   C14   1.399364 A    
N4    O11   1.300757 A    
C20   H6    1.083339 S    
C11   C13   1.397141 A    
H2    C14   1.082419 S    
C21   H7    1.081766 S    
C25   H12   1.112712 S    
C26   H14   1.108332 S    
O4    C2    1.289307 A    
O1    Cu1   1.964867 S    
C25   H11   1.117822 S    
C27   H17   1.110841 S    
C5    N3    1.442129 S    
C1    C18   1.449934 S    
O5    Cu1   1.957482 S    
O2    Cu1   1.965691 S    
Cu1   N1    2.008747 S    
H1    C13   1.081609 S    
Cu2   N2    2.008652 S    
C28   H18   1.114279 S    
O8    Cu2   1.957638 S    
C9    C12   1.422316 A    
C3    C11   1.461710 S    
C15   C16   1.383514 A    
C30   H23   1.110564 S    
C29   H21   1.107981 S    
C23   N1    1.366727 A    
C10   C11   1.419758 A    
C5    C7    1.410029 A    
C26   C27   1.523683 S    
C2    C17   1.449837 S    
C19   H5    1.083358 S    
C21   N2    1.366740 A    
C9    C10   1.402448 A    
C21   C23   1.415223 A    
C24   N1    1.366874 A    
C16   C17   1.401486 A    
N3    O9    1.300667 A    
C29   H20   1.106087 S    
O3    C1    1.290189 A    
C25   C26   1.531650 S    
C18   C20   1.401414 A    
