data_str_m3_o14_o28_f0_pcu.sym.21
_audit_creation_date              2013-03-05T15:55:01-0500
_audit_creation_method            fapswitch 2.2
_symmetry_space_group_name_H-M    P1
_symmetry_Int_Tables_number       1
_space_group_crystal_system       triclinic
_cell_length_a                    23.426142
_cell_length_b                    10.737474
_cell_length_c                    9.895167
_cell_angle_alpha                 91.483691
_cell_angle_beta                  90.421464
_cell_angle_gamma                 93.053726
_cell_volume                      2484.54370856

loop_
_atom_site_label
_atom_site_type_symbol
_atom_site_description
_atom_site_fract_x
_atom_site_fract_y
_atom_site_fract_z
_atom_type_partial_charge
O1    O     O_R   0.500000 0.316780 0.614690 -0.628220
O2    O     O_R   0.500000 0.316750 0.385360 -0.649671
C1    C     C_R   0.497348 0.258388 0.496836 0.830162
O3    O     O_R   0.416160 0.499970 0.614690 -0.636324
O4    O     O_R   0.416150 0.499950 0.385360 -0.634630
C2    C     C_R   0.389482 0.498978 0.499504 0.870201
Zn1   Zn    Zn3+2 0.500000 0.500020 0.653130 0.977623
Zn2   Zn    Zn3+2 0.500000 0.499980 0.346870 0.958230
O5    O     O_R   0.500000 0.683250 0.614640 -0.603082
O6    O     O_R   0.500000 0.683220 0.385310 -0.612729
O7    O     O_R   0.583850 0.500050 0.614640 -0.602227
O8    O     O_R   0.583840 0.500030 0.385310 -0.606232
C3    C     C_R   0.507846 0.739496 0.502504 0.956230
C4    C     C_R   0.610328 0.502374 0.500422 0.967260
C5    C     C_R   0.880037 0.528348 0.387007 0.599871
N1    N     N_R   0.851852 0.486925 0.498558 -0.328936
C6    C     C_R   0.879740 0.436695 0.603977 0.558589
C7    C     C_R   0.938860 0.419439 0.596594 -0.024348
C8    C     C_R   0.969415 0.476934 0.488683 -0.075798
C9    C     C_R   0.939996 0.536337 0.385439 -0.155770
C10   C     C_R   0.968933 0.350346 0.692954 0.099518
C11   C     C_R   0.028219 0.347214 0.683930 -0.184674
C12   C     C_R   0.058505 0.410883 0.583775 -0.023134
C13   C     C_R   0.029468 0.476845 0.485514 -0.036185
C14   C     C_R   0.060692 0.543478 0.385760 -0.076469
C15   C     C_R   0.030887 0.599828 0.279202 -0.023457
C16   C     C_R   0.970713 0.599905 0.282958 0.293911
C17   C     C_R   0.117879 0.409125 0.579553 0.497652
N2    N     N_R   0.147513 0.480518 0.489592 -0.356031
C18   C     C_R   0.120810 0.553362 0.400430 0.515915
O9    O     O_2   0.849605 0.560219 0.278079 -0.464218
O10   O     O_2   0.850008 0.407203 0.715739 -0.562095
H1    H     H_    0.051010 0.295665 0.758078 0.186819
O11   O     O_2   0.146085 0.337897 0.665498 -0.546871
O12   O     O_2   0.152751 0.637577 0.331290 -0.588682
C19   C     C_R   0.238059 0.537740 0.602224 -0.101274
H2    H     H_    0.214883 0.577780 0.685592 0.139833
C20   C     C_R   0.297312 0.542636 0.606078 -0.164142
H3    H     H_    0.319595 0.586289 0.692726 0.161624
C21   C     C_R   0.327391 0.493390 0.497439 -0.035836
C22   C     C_R   0.297974 0.436617 0.386582 -0.226169
H4    H     H_    0.321396 0.395531 0.304676 0.152258
C23   C     C_R   0.238396 0.429203 0.382020 0.156015
C24   C     C_R   0.208439 0.481828 0.491038 0.297840
C25   C     C_R   0.757351 0.383710 0.514264 -0.158113
H5    H     H_    0.777872 0.295908 0.520808 0.177704
C26   C     C_R   0.698077 0.385087 0.517879 0.024417
C27   C     C_R   0.672137 0.499438 0.500834 -0.214495
C28   C     C_R   0.705628 0.611960 0.488337 0.171980
C29   C     C_R   0.765551 0.609510 0.494169 0.278379
C30   C     C_R   0.791027 0.494071 0.503960 0.122708
C31   C     C_R   0.443959 0.096388 0.702277 -0.116550
H6    H     H_    0.414601 0.165136 0.675306 0.165095
C32   C     C_R   0.439784 0.040394 0.827749 -0.179985
H7    H     H_    0.409537 0.070531 0.901875 0.184260
C33   C     C_R   0.477211 0.949383 0.860285 -0.235809
H8    H     H_    0.477853 0.915651 0.962364 0.173376
C34   C     C_R   0.513645 0.902677 0.761325 0.348277
C35   C     C_R   0.507781 0.943205 0.626258 -0.039483
C36   C     C_R   0.483184 0.056250 0.606353 0.001646
C37   C     C_R   0.496889 0.122390 0.488690 -0.133305
C38   C     C_R   0.518969 0.057677 0.374202 0.064862
H9    H     H_    0.540346 0.878236 0.297435 0.198281
C39   C     C_R   0.528362 0.932074 0.386078 -0.175634
C40   C     C_R   0.519764 0.873218 0.508625 -0.074631
H10   H     H_    0.576299 0.611067 0.129699 0.203272
C41   C     C_R   0.417493 0.353333 0.136563 -0.242505
H11   H     H_    0.420583 0.334818 0.241624 0.214195
C42   C     C_R   0.372254 0.292144 0.066431 -0.326217
H12   H     H_    0.340830 0.236571 0.121617 0.193598
C43   C     C_R   0.368486 0.299751 0.926552 0.299597
C44   C     C_R   0.412951 0.363198 0.858400 -0.247114
H13   H     H_    0.414097 0.349179 0.752977 0.216807
C45   C     C_R   0.457094 0.433139 0.926548 0.112565
C46   C     C_R   0.458139 0.430627 0.070601 0.172308
N3    N     N_R   0.499460 0.498800 0.142780 -0.131565
C47   C     C_R   0.542032 0.560981 0.073960 -0.086175
H14   H     H_    0.578533 0.601600 0.878699 0.219783
C48   C     C_R   0.542797 0.557850 0.930717 -0.058236
N4    N     N_R   0.499440 0.498720 0.857170 -0.129583
C49   C     C_3   0.941034 0.273423 0.803656 -0.381314
C50   C     C_3   0.938371 0.350523 0.936011 -0.284424
C51   C     C_3   0.909812 0.275166 0.047858 -0.757778
H15   H     H_    0.865187 0.245617 0.018391 0.282358
H16   H     H_    0.934045 0.191378 0.068113 0.256062
H17   H     H_    0.908931 0.333533 0.142067 0.254414
H18   H     H_    0.982391 0.381642 0.969487 0.201234
H19   H     H_    0.914046 0.434736 0.919905 0.310574
H20   H     H_    0.898500 0.232138 0.772022 0.250965
H21   H     H_    0.966501 0.190875 0.822397 0.193305
C52   C     C_3   0.664455 0.263154 0.541567 -0.414392
C53   C     C_3   0.675010 0.218772 0.685324 -0.326856
C54   C     C_3   0.635859 0.105653 0.716644 -0.731070
H22   H     H_    0.591242 0.134255 0.726774 0.242921
H23   H     H_    0.637853 0.033132 0.635034 0.312910
H24   H     H_    0.649339 0.065434 0.813262 0.275987
H25   H     H_    0.720134 0.193221 0.696356 0.249409
H26   H     H_    0.667095 0.294887 0.760171 0.239375
H27   H     H_    0.617964 0.271534 0.526588 0.192617
H28   H     H_    0.677757 0.191491 0.466753 0.214817
N5    N     N_R   0.678974 0.728710 0.474901 0.238215
O13   O     O_R   0.640908 0.741625 0.380643 -0.403346
O14   O     O_R   0.695904 0.825332 0.549666 -0.311088
N6    N     N_R   0.800652 0.723053 0.487014 0.252685
O15   O     O_R   0.842601 0.745978 0.572521 -0.345995
O16   O     O_R   0.792984 0.800321 0.390163 -0.262935
C55   C     C_3   0.527191 0.110492 0.234007 -0.376045
C56   C     C_3   0.586805 0.174054 0.217309 -0.301902
C57   C     C_3   0.595171 0.218503 0.073199 -0.822777
H29   H     H_    0.590151 0.138279 0.000310 0.273193
H30   H     H_    0.563321 0.287477 0.048492 0.256974
H31   H     H_    0.638713 0.263165 0.062910 0.256529
H32   H     H_    0.593117 0.255314 0.288090 0.238707
H33   H     H_    0.619856 0.106844 0.240064 0.240317
H34   H     H_    0.522185 0.033692 0.156554 0.198385
H35   H     H_    0.492778 0.172264 0.207366 0.218306
N7    N     N_R   0.561811 0.834619 0.803318 0.187989
O17   O     O_R   0.575534 0.833617 0.931034 -0.444933
O18   O     O_R   0.599028 0.798587 0.715755 -0.370273
N8    N     N_R   0.321716 0.236673 0.852891 0.204905
O19   O     O_R   0.286409 0.158974 0.913041 -0.404400
O20   O     O_R   0.312985 0.259169 0.726002 -0.405452
C58   C     C_3   0.061086 0.651593 0.154984 -0.352644
C59   C     C_3   0.073524 0.793332 0.168481 -0.264084
C60   C     C_3   0.110175 0.841174 0.051989 -0.817061
H36   H     H_    0.151910 0.796624 0.051530 0.273736
H37   H     H_    0.087834 0.820496 0.953905 0.265084
H38   H     H_    0.118234 0.943742 0.063973 0.255094
H39   H     H_    0.032777 0.841581 0.168222 0.244890
H40   H     H_    0.095968 0.818334 0.265421 0.262721
H41   H     H_    0.100372 0.601942 0.132772 0.226252
H42   H     H_    0.034631 0.630446 0.062963 0.209616
N9    N     N_R   0.941511 0.676066 0.190556 0.234229
O21   O     O_R   0.929151 0.635070 0.068483 -0.381783
O22   O     O_R   0.921990 0.781066 0.233373 -0.309141
C61   C     C_3   0.208389 0.360970 0.263261 -0.417526
C62   C     C_3   0.218545 0.430372 0.130973 -0.372056
C63   C     C_3   0.181331 0.372586 0.016089 -0.742958
H43   H     H_    0.189783 0.272479 0.000651 0.302699
H44   H     H_    0.135352 0.381254 0.039225 0.229678
H45   H     H_    0.191195 0.422063 0.921210 0.275085
H46   H     H_    0.208675 0.529846 0.144540 0.262563
H47   H     H_    0.264137 0.426961 0.101693 0.235840
H48   H     H_    0.224912 0.266046 0.252740 0.211876
H49   H     H_    0.161767 0.347465 0.280799 0.203662

loop_
_geom_bond_atom_site_label_1
_geom_bond_atom_site_label_2
_geom_bond_distance
_ccdc_geom_bond_type
C62   H46   1.109797 S    
C29   N6    1.437368 S    
C54   H22   1.109481 S    
C58   H42   1.109391 S    
C7    C10   1.427685 A    
C22   H4    1.079981 S    
C8    C9    1.412698 A    
N1    C30   1.432342 S    
C23   C24   1.413268 A    
N6    O16   1.301370 A    
C49   C50   1.534623 S    
C53   H26   1.112510 S    
C58   C59   1.536429 S    
C3    C40   1.447674 S    
C25   H5    1.084015 S    
C33   H8    1.082126 S    
Zn1   O7    2.003599 S    
C15   C16   1.410456 A    
N5    O13   1.300763 A    
C18   O12   1.346517 S    
C17   N2    1.360048 A    
C42   H12   1.082661 S    
N7    O18   1.300094 A    
C28   N5    1.438711 S    
O4    C2    1.294755 A    
O7    C4    1.293380 A    
C25   C30   1.394561 A    
C1    C37   1.459875 S    
C50   H18   1.112360 S    
Zn2   N3    2.019159 S    
C56   C57   1.526112 S    
C7    C8    1.425458 A    
C56   H33   1.111904 S    
C42   C43   1.391076 A    
O5    C3    1.286709 A    
C38   C39   1.385837 A    
C31   C36   1.401751 A    
C51   H15   1.110816 S    
C31   C32   1.395244 A    
N1    C6    1.364729 A    
C60   H38   1.110565 S    
C12   C13   1.409594 A    
C52   H28   1.112059 S    
C61   H49   1.109580 S    
C49   H20   1.108389 S    
C25   C26   1.390151 A    
C60   H36   1.111082 S    
C62   H47   1.110942 S    
C17   O11   1.350567 S    
C35   C36   1.389025 A    
C54   H23   1.110193 S    
C45   N4    1.382694 A    
C10   C11   1.394517 A    
C22   C23   1.394043 A    
C37   C38   1.428267 A    
O3    Zn1   1.997762 S    
N6    O15   1.301313 A    
N8    O20   1.301484 A    
C53   H25   1.111462 S    
C29   C30   1.409325 A    
C47   C48   1.417211 A    
C5    C9    1.402900 A    
C32   C33   1.389532 A    
C45   C46   1.426443 A    
C41   H11   1.066136 S    
C16   N9    1.435903 S    
N3    C47   1.366279 A    
C44   C45   1.403151 A    
C57   H31   1.110287 S    
C52   C53   1.534341 S    
H14   C48   1.078616 S    
C44   H13   1.050866 S    
C4    C27   1.449948 S    
C38   C55   1.521913 S    
C14   C15   1.425701 A    
O6    C3    1.300950 A    
C34   N7    1.441008 S    
C48   N4    1.364133 A    
C36   C37   1.409622 A    
O1    C1    1.309144 A    
C56   H32   1.107613 S    
C46   N3    1.367544 A    
N2    C18   1.364266 A    
C26   C27   1.412101 A    
Zn2   O8    1.997759 S    
C6    C7    1.409230 A    
N8    O19   1.301471 A    
C59   H40   1.110342 S    
C12   C17   1.392956 A    
C13   C14   1.418698 A    
C55   H34   1.112120 S    
C63   H44   1.111059 S    
C49   H21   1.113167 S    
C43   N8    1.440171 S    
O3    C2    1.295371 A    
C27   C28   1.413774 A    
C51   H16   1.110820 S    
C10   C49   1.519581 S    
C28   C29   1.406200 A    
C54   H24   1.109837 S    
N2    C24   1.426549 S    
N9    O21   1.300175 A    
C2    C21   1.452564 S    
C19   C24   1.400901 A    
C41   C46   1.405162 A    
C15   C58   1.525298 S    
C55   C56   1.533328 S    
C31   H6    1.072710 S    
N9    O22   1.301069 A    
C14   C18   1.412798 A    
Zn1   O5    2.013613 S    
C11   H1    1.084664 S    
C32   H7    1.079160 S    
C21   C22   1.399746 A    
C58   H41   1.108458 S    
O1    Zn1   1.994271 S    
C26   C52   1.515980 S    
Zn2   O6    1.994272 S    
O2    Zn2   2.013612 S    
O8    C4    1.292115 A    
C61   C62   1.536765 S    
C63   H45   1.110412 S    
O4    Zn2   2.003601 S    
C5    O9    1.349409 S    
C9    C16   1.416418 A    
C62   C63   1.525965 S    
C52   H27   1.106789 S    
C39   C40   1.392879 A    
C57   H30   1.109297 S    
O2    C1    1.282963 A    
C34   C35   1.424184 A    
C43   C44   1.400869 A    
C61   H48   1.112056 S    
C57   H29   1.109878 S    
C35   C40   1.407272 A    
C20   C21   1.397560 A    
C20   H3    1.083444 S    
C19   H2    1.083157 S    
C50   H19   1.108502 S    
C19   C20   1.386460 A    
C53   C54   1.522341 S    
C33   C34   1.404040 A    
C59   H39   1.110091 S    
C8    C13   1.407455 A    
H10   C47   1.081640 S    
C23   C61   1.516656 S    
C55   H35   1.105541 S    
C63   H43   1.110197 S    
H9    C39   1.084910 S    
C51   H17   1.110687 S    
N5    O14   1.301182 A    
C50   C51   1.525377 S    
C60   H37   1.110932 S    
C6    O10   1.346998 S    
C11   C12   1.395230 A    
Zn1   N4    2.019554 S    
C41   C42   1.388443 A    
N7    O17   1.302179 A    
C5    N1    1.362732 A    
C59   C60   1.525782 S    
