data_str_m3_o5_o29_f0_pcu.sym.37
_audit_creation_date              2013-03-05T16:48:42-0500
_audit_creation_method            fapswitch 2.2
_symmetry_space_group_name_H-M    P1
_symmetry_Int_Tables_number       1
_space_group_crystal_system       triclinic
_cell_length_a                    27.770792
_cell_length_b                    8.916262
_cell_length_c                    8.097919
_cell_angle_alpha                 90.023996
_cell_angle_beta                  90.000312
_cell_angle_gamma                 89.999648
_cell_volume                      2005.13896932

loop_
_atom_site_label
_atom_site_type_symbol
_atom_site_description
_atom_site_fract_x
_atom_site_fract_y
_atom_site_fract_z
_atom_type_partial_charge
O1    O     O_R   0.500000 0.285350 0.636850 -0.613921
O2    O     O_R   0.500000 0.714650 0.363150 -0.613921
O3    O     O_R   0.500000 0.714650 0.636850 -0.613695
O4    O     O_R   0.500000 0.285350 0.363150 -0.613695
C1    C     C_R   0.500000 0.217994 0.499978 0.946757
C2    C     C_R   0.500000 0.782006 0.500022 0.946757
O5    O     O_R   0.428760 0.500000 0.636860 -0.623823
O6    O     O_R   0.571240 0.500000 0.363140 -0.623820
O7    O     O_R   0.571240 0.500000 0.636860 -0.623820
O8    O     O_R   0.428760 0.500000 0.363140 -0.623823
C3    C     C_R   0.405756 0.500000 0.500000 0.871972
C4    C     C_R   0.594244 0.500000 0.500000 0.871979
Zn1   Zn    Zn3+2 0.500000 0.500000 0.682780 0.996733
Zn2   Zn    Zn3+2 0.500000 0.500000 0.317220 0.996733
C5    C     C_R   0.177793 0.368906 0.529333 0.506499
C6    C     C_R   0.822220 0.631139 0.470813 0.506429
C7    C     C_R   0.177794 0.631086 0.470659 0.506500
C8    C     C_R   0.822219 0.368906 0.529201 0.506430
O9    O     O_2   0.202827 0.241565 0.557032 -0.533986
O10   O     O_2   0.797192 0.758527 0.443317 -0.534085
O11   O     O_2   0.202829 0.758423 0.442958 -0.533985
O12   O     O_2   0.797190 0.241520 0.556698 -0.534084
N1    N     N_R   0.201650 0.499994 0.499996 -0.361048
N2    N     N_R   0.798358 0.500024 0.500007 -0.360957
C9    C     C_R   0.277809 0.495464 0.649838 -0.096700
C10   C     C_R   0.722187 0.506463 0.350262 -0.096459
C11   C     C_R   0.277809 0.504521 0.350156 -0.096696
C12   C     C_R   0.722187 0.493581 0.649748 -0.096457
C13   C     C_R   0.327829 0.495647 0.650080 -0.205249
C14   C     C_R   0.672167 0.506262 0.350018 -0.205456
C15   C     C_R   0.327829 0.504345 0.349917 -0.205247
C16   C     C_R   0.672167 0.493763 0.649988 -0.205451
C17   C     C_R   0.252891 0.499991 0.499997 0.320696
C18   C     C_R   0.747111 0.500026 0.500006 0.320119
C19   C     C_R   0.101809 0.500002 0.499999 -0.050147
C20   C     C_R   0.898205 0.500017 0.500006 -0.050170
C21   C     C_R   0.127435 0.366401 0.529873 -0.021347
C22   C     C_R   0.872578 0.633636 0.470246 -0.021285
C23   C     C_R   0.127436 0.633598 0.470122 -0.021347
C24   C     C_R   0.872577 0.366402 0.529767 -0.021285
C25   C     C_R   0.102489 0.233544 0.559398 -0.137842
C26   C     C_R   0.897525 0.766513 0.440829 -0.137817
C27   C     C_R   0.102492 0.766459 0.440599 -0.137840
C28   C     C_R   0.897522 0.233522 0.559183 -0.137815
C29   C     C_R   0.353161 0.499998 0.499999 -0.040892
C30   C     C_R   0.646836 0.500007 0.500002 -0.040869
H1    H     H_    0.346579 0.507733 0.232659 0.164249
H2    H     H_    0.653415 0.488831 0.767165 0.164277
H3    H     H_    0.346579 0.492260 0.767337 0.164249
H4    H     H_    0.653415 0.511186 0.232840 0.164278
H5    H     H_    0.258338 0.507809 0.234296 0.137673
H6    H     H_    0.741654 0.488802 0.765543 0.137983
H7    H     H_    0.258338 0.492174 0.765697 0.137674
H8    H     H_    0.741654 0.511246 0.234468 0.137983
C31   C     C_R   0.974467 0.363897 0.530226 0.048451
C32   C     C_R   0.025547 0.636115 0.469735 0.048444
C33   C     C_R   0.974468 0.636126 0.469782 0.048452
C34   C     C_R   0.025546 0.363900 0.530269 0.048445
C35   C     C_R   0.949284 0.500013 0.500005 0.070411
C36   C     C_R   0.050730 0.500006 0.500001 0.070428
C37   C     C_R   0.947386 0.231899 0.559529 -0.220272
C38   C     C_R   0.052628 0.768087 0.440287 -0.220289
C39   C     C_R   0.947388 0.768128 0.440481 -0.220272
C40   C     C_R   0.052626 0.231924 0.559714 -0.220288
H9    H     H_    0.963280 0.124216 0.583653 0.136553
H10   H     H_    0.036734 0.875748 0.416033 0.136616
H11   H     H_    0.963284 0.875809 0.416356 0.136552
H12   H     H_    0.036730 0.124266 0.583970 0.136614
C41   C     C_1   0.500000 0.065221 0.499969 -0.182722
C42   C     C_1   0.500000 0.934779 0.500031 -0.182722
N3    N     N_1   0.500000 0.500000 0.073640 -0.035339
N4    N     N_1   0.500000 0.500000 0.926360 -0.035339
H13   H     H_    0.121449 0.129461 0.582751 0.191343
H14   H     H_    0.878565 0.870615 0.417580 0.191325
H15   H     H_    0.121453 0.870540 0.417244 0.191346
H16   H     H_    0.878562 0.129422 0.582434 0.191327

loop_
_geom_bond_atom_site_label_1
_geom_bond_atom_site_label_2
_geom_bond_distance
_ccdc_geom_bond_type
C31   C35   1.422036 A    
Zn2   N3    1.972491 S    
C20   C35   1.418504 A    
C13   H3    1.083371 S    
C11   C17   1.397441 A    
O5    C3    1.279224 A    
C7    N1    1.364465 A    
O1    C1    1.260403 A    
C40   H12   1.074722 S    
C19   C21   1.408619 A    
C9    H7    1.083290 S    
C22   C26   1.393059 A    
C33   C35   1.422034 A    
C34   C36   1.422038 A    
C32   C33   1.418507 A    
C9    C13   1.389108 A    
C7    C23   1.398665 A    
C28   H16   1.083688 S    
C8    C24   1.398670 A    
C5    C21   1.398664 A    
C20   C24   1.408593 A    
O7    Zn1   2.013034 S    
C5    O9    1.350181 S    
C10   C18   1.397443 A    
N1    C17   1.423009 S    
C1    C41   1.362168 S    
C8    N2    1.364535 A    
O3    Zn1   1.949834 S    
C6    O10   1.350184 S    
O3    C2    1.260533 A    
C5    N1    1.364464 A    
C14   H4    1.083305 S    
C12   C18   1.397436 A    
C6    N2    1.364536 A    
C15   H1    1.083374 S    
C21   C25   1.393053 A    
C16   H2    1.083303 S    
O2    C2    1.260403 A    
C10   H8    1.083222 S    
C11   H5    1.083291 S    
C33   C39   1.416795 A    
C27   H15   1.083693 S    
C39   H11   1.074713 S    
C26   H14   1.083688 S    
C38   H10   1.074722 S    
C11   C15   1.389108 A    
C12   C16   1.389103 A    
C4    C30   1.460544 S    
O8    Zn2   2.013037 S    
C23   C27   1.393053 A    
C34   C40   1.416804 A    
N2    C18   1.423178 S    
C32   C36   1.422039 A    
C13   C29   1.404820 A    
C19   C36   1.418496 A    
C19   C23   1.408616 A    
O5    Zn1   2.013033 S    
O6    C4    1.279214 A    
C10   C14   1.389103 A    
C32   C38   1.416804 A    
C3    C29   1.460583 S    
O1    Zn1   1.949529 S    
C2    C42   1.362167 S    
O6    Zn2   2.013030 S    
C8    O12   1.350184 S    
C16   C30   1.404707 A    
C14   C30   1.404699 A    
O4    C1    1.260533 A    
Zn1   N4    1.972491 S    
C28   C37   1.384819 A    
C20   C22   1.408595 A    
N3    N4    1.192661 T    
C12   H6    1.083224 S    
C31   C37   1.416794 A    
O4    Zn2   1.949834 S    
C41   C42   1.163055 T    
O2    Zn2   1.949528 S    
O7    C4    1.279214 A    
C7    O11   1.350179 S    
O8    C3    1.279223 A    
C25   H13   1.083694 S    
C37   H9    1.074712 S    
C24   C28   1.393060 A    
C15   C29   1.404822 A    
C31   C34   1.418507 A    
C9    C17   1.397442 A    
C25   C40   1.384827 A    
C26   C39   1.384821 A    
C27   C38   1.384824 A    
C6    C22   1.398669 A    
