data_str_m12_o9_o10_f0_bcu.sym.87
_audit_creation_date              2012-12-11T17:37:54-0500
_audit_creation_method            fapswitch 2.2
_symmetry_space_group_name_H-M    P1
_symmetry_Int_Tables_number       1
_space_group_crystal_system       triclinic
_cell_length_a                    13.04825
_cell_length_b                    13.087977
_cell_length_c                    15.501463
_cell_angle_alpha                 117.540361
_cell_angle_beta                  63.381003
_cell_angle_gamma                 97.885253
_cell_volume                      2090.29891317

loop_
_atom_site_label
_atom_site_type_symbol
_atom_type_description
_atom_site_fract_x
_atom_site_fract_y
_atom_site_fract_z
_atom_type_partial_charge
C1    C     C_R   0.998925 0.832848 0.057779 -0.131024
C2    C     C_R   0.673037 0.556196 0.321029 0.034743
C3    C     C_R   0.662650 0.456505 0.926488 0.146137
C4    C     C_R   0.086246 0.795297 0.295673 0.076668
C5    C     C_R   0.338913 0.518253 0.954256 0.611970
C6    C     C_R   0.974989 0.178705 0.780754 -0.104576
C7    C     C_R   0.205630 0.495103 0.690975 -0.133075
C8    C     C_R   0.055255 0.254274 0.083279 -0.135732
C9    C     C_R   0.952060 0.171134 0.992173 -0.100143
C10   C     C_R   0.298897 0.593545 0.790251 -0.090876
C11   C     C_R   0.258884 0.417513 0.048065 -0.254813
C12   C     C_R   0.679082 0.477209 0.220202 -0.054335
C13   C     C_R   0.051812 0.277129 0.684580 -0.124357
C14   C     C_R   0.362433 0.435694 0.976618 -0.006505
C15   C     C_R   0.043711 0.166194 0.676521 0.092150
C16   C     C_R   0.299616 0.556898 0.691020 0.029330
C17   C     C_R   0.011704 0.150346 0.038398 0.042332
C18   C     C_R   0.325244 0.011846 0.121287 0.732543
C19   C     C_R   0.303655 0.986736 0.206366 -0.404844
C20   C     C_R   0.195827 0.019303 0.296947 -0.133486
C21   C     C_R   0.110500 0.084288 0.305874 0.657518
C22   C     C_R   0.133476 0.112925 0.222959 -0.376988
C23   C     C_R   0.753734 0.519747 0.895807 -0.170768
C24   C     C_R   0.239338 0.077517 0.131555 -0.378412
C25   C     C_R   0.163382 0.069317 0.479289 -0.191409
C26   C     C_R   0.095361 0.058714 0.574549 0.058962
C27   C     C_R   0.068369 0.946879 0.565451 0.094510
C28   C     C_R   0.100358 0.853963 0.463728 -0.244420
C29   C     C_R   0.129095 0.874466 0.375155 0.035331
C30   C     C_R   0.170257 0.982679 0.380858 0.116766
C31   C     C_R   0.028297 0.891111 0.708955 -0.245010
C32   C     C_R   0.951676 0.867482 0.793787 -0.137295
C33   C     C_R   0.833333 0.875647 0.825460 -0.172069
C34   C     C_R   0.023210 0.700905 0.298783 -0.151461
C35   C     C_R   0.791290 0.909099 0.772977 -0.278052
C36   C     C_R   0.867744 0.931884 0.686386 0.639760
C37   C     C_R   0.986914 0.923651 0.655524 -0.057614
C38   C     C_R   0.862994 0.372620 0.354103 -0.194669
C39   C     C_R   0.744991 0.403230 0.402153 0.636920
C40   C     C_R   0.701095 0.517608 0.482800 -0.054261
C41   C     C_R   0.770807 0.591768 0.527939 -0.288890
C42   C     C_R   0.888712 0.561062 0.478073 -0.122415
C43   C     C_R   0.935457 0.453838 0.387478 -0.073692
C44   C     C_R   0.497972 0.578191 0.596975 -0.287630
C45   C     C_R   0.677468 0.419651 0.989903 -0.126814
C46   C     C_R   0.387648 0.580031 0.604604 0.067323
C47   C     C_R   0.370564 0.586386 0.522768 0.054255
C48   C     C_R   0.465956 0.593627 0.436692 -0.272707
C49   C     C_R   0.576184 0.578525 0.424258 0.100192
C50   C     C_R   0.591788 0.565829 0.503694 0.098020
C51   C     C_R   0.268109 0.446366 0.424522 -0.259426
C52   C     C_R   0.167590 0.393227 0.428239 -0.267670
C53   C     C_R   0.061317 0.445702 0.515800 0.687987
C54   C     C_R   0.055636 0.561812 0.593145 -0.356130
C55   C     C_R   0.157182 0.615718 0.589124 -0.194818
C56   C     C_R   0.101405 0.797536 0.203031 -0.189018
C57   C     C_R   0.264112 0.554425 0.508926 0.131440
C58   C     C_2   0.473805 0.396783 0.954267 -0.176566
C59   C     C_2   0.570222 0.428668 0.894480 -0.176684
C60   C     C_2   0.828453 0.956923 0.101016 -0.227319
C61   C     C_2   0.830038 0.050118 0.186992 -0.090037
C62   C     C_R   0.783546 0.575142 0.309578 -0.143112
C63   C     C_R   0.896328 0.747303 0.963940 -0.165559
C64   C     C_R   0.908620 0.852085 0.040718 0.127017
H1    H     H_    0.028572 0.894609 0.115665 0.102759
H2    H     H_    0.949113 0.113919 0.807686 0.111876
H3    H     H_    0.094873 0.273149 0.136289 0.086337
H4    H     H_    0.894910 0.113394 0.962851 0.116860
H5    H     H_    0.350562 0.657757 0.822144 0.139507
H6    H     H_    0.248058 0.365232 0.088128 0.136393
H7    H     H_    0.254325 0.103289 0.070166 0.160835
H8    H     H_    0.369314 0.937381 0.199766 0.169522
H9    H     H_    0.608381 0.441693 0.200234 0.089503
H10   H     H_    0.069360 0.165081 0.230952 0.169919
H11   H     H_    0.195706 0.150716 0.481794 0.126475
H12   H     H_    0.079686 0.769404 0.459345 0.123639
H13   H     H_    0.119676 0.886590 0.686164 0.141307
H14   H     H_    0.985094 0.844323 0.835148 0.140938
H15   H     H_    0.773665 0.858626 0.892110 0.136915
H16   H     H_    0.699434 0.920132 0.801345 0.147792
H17   H     H_    0.027516 0.432109 0.345309 0.117393
H18   H     H_    0.771877 0.553933 0.839583 0.083669
H19   H     H_    0.898534 0.287505 0.288141 0.128841
H20   H     H_    0.736330 0.677351 0.593722 0.142863
H21   H     H_    0.944246 0.622549 0.506765 0.123260
H22   H     H_    0.512560 0.566702 0.655734 0.151614
H23   H     H_    0.454897 0.596508 0.372488 0.131814
H24   H     H_    0.349855 0.398139 0.360980 0.159718
H25   H     H_    0.173556 0.307311 0.365726 0.170429
H26   H     H_    0.974758 0.608559 0.659528 0.149186
H27   H     H_    0.007848 0.662555 0.351069 0.097096
H28   H     H_    0.153497 0.698083 0.655382 0.139736
H29   H     H_    0.472426 0.363920 0.007354 0.132546
H30   H     H_    0.574491 0.454678 0.836170 0.184907
H31   H     H_    0.762417 0.957330 0.076810 0.149423
H32   H     H_    0.892425 0.056348 0.216923 0.112135
H33   H     H_    0.633234 0.354778 0.014518 0.095575
H34   H     H_    0.158893 0.844831 0.163125 0.107377
H35   H     H_    0.809614 0.636028 0.370321 0.118520
H36   H     H_    0.830399 0.730409 0.936379 0.105760
N1    N     N_R   0.037320 0.720000 0.995830 -0.046772
N2    N     N_R   0.946240 0.290870 0.848020 -0.046954
N3    N     N_R   0.146160 0.501170 0.788610 -0.047085
N4    N     N_R   0.025750 0.332680 0.063570 -0.032549
N5    N     N_R   0.962680 0.280000 0.004170 -0.046837
N6    N     N_R   0.209230 0.553860 0.848010 -0.047602
N7    N     N_R   0.175100 0.482030 0.063570 -0.063011
N8    N     N_R   0.996810 0.351820 0.788610 -0.049942
N9    N     N_R   0.790770 0.446140 0.151990 -0.042258
N10   N     N_R   0.824900 0.517970 0.936430 -0.038421
N11   N     N_R   0.003190 0.648180 0.211390 -0.036303
N12   N     N_R   0.774330 0.457010 0.995830 -0.046066
N13   N     N_R   0.053760 0.709130 0.151980 -0.040570
N14   N     N_R   0.853840 0.498830 0.211390 -0.037136
N15   N     N_R   0.974250 0.667320 0.936430 -0.038403
N16   N     N_R   0.225670 0.542990 0.004170 -0.103477
Ni1   Ni    Ni4+2 0.130310 0.630310 0.000000 0.200769
Ni2   Ni    Ni4+2 0.869690 0.369690 0.000000 0.228299
Ni3   Ni    Ni4+2 0.985660 0.509480 0.863750 0.200319
Ni4   Ni    Ni4+2 0.014340 0.490520 0.136250 0.209302
H37   H     H_    0.179076 0.453392 0.627900 0.121652
H38   H     H_    0.091970 0.301173 0.620073 0.109397
O1    O     O_3   0.432934 0.975111 0.032857 -0.625781
C65   C     C_3   0.425684 0.937296 0.934473 -0.327205
H39   H     H_    0.426010 0.011817 0.918516 0.166531
H40   H     H_    0.349328 0.888033 0.932364 0.129844
H41   H     H_    0.502717 0.877577 0.867609 0.168689
O2    O     O_3   0.009978 0.132153 0.400376 -0.586880
C66   C     C_3   0.925980 0.051935 0.399457 -0.199097
H42   H     H_    0.930347 0.001033 0.438465 0.182484
H43   H     H_    0.932526 0.992492 0.317324 0.093421
H44   H     H_    0.839815 0.100585 0.448429 0.162289
O3    O     O_3   0.827255 0.977794 0.641721 -0.616720
C67   C     C_3   0.773786 0.893034 0.582358 -0.310778
H45   H     H_    0.692421 0.872542 0.636473 0.140545
H46   H     H_    0.833241 0.813694 0.519778 0.137947
H47   H     H_    0.750909 0.927700 0.539512 0.174429
O4    O     O_3   0.677030 0.327242 0.358532 -0.620879
C68   C     C_3   0.618756 0.270326 0.423033 -0.248638
H48   H     H_    0.559138 0.332085 0.506616 0.141048
H49   H     H_    0.680300 0.221475 0.425265 0.132376
H50   H     H_    0.566182 0.206979 0.386906 0.180320
O5    O     O_3   0.967572 0.380023 0.517665 -0.592071
C69   C     C_3   0.879457 0.411766 0.622709 -0.187052
H51   H     H_    0.827524 0.491137 0.651286 0.128551
H52   H     H_    0.914490 0.422177 0.679422 0.122817
H53   H     H_    0.821070 0.341432 0.620259 0.180957
O6    O     O_3   0.417687 0.580242 0.906904 -0.668438
C70   C     C_3   0.408198 0.694079 0.987258 -0.296443
H54   H     H_    0.410083 0.696385 0.059337 0.147796
H55   H     H_    0.329054 0.742994 0.011350 0.148905
H56   H     H_    0.483114 0.737820 0.952915 0.205051

loop_
_geom_bond_atom_site_label_1
_geom_bond_atom_site_label_2
_ccdc_geom_bond_type
C40   C41   A    
C23   H18   S    
C38   H19   S    
C41   C42   A    
C3    C23   A    
C35   C36   A    
C56   H34   S    
C2    C12   A    
C36   O3    S    
C67   H47   S    
C52   H25   S    
C45   N12   A    
O1    C65   S    
C20   C30   S    
C53   C54   A    
C66   H43   S    
C26   C27   A    
C29   C30   A    
C18   C24   A    
C28   C29   A    
C58   H29   S    
C62   N14   A    
C70   H55   S    
C38   C39   A    
C33   C35   A    
C68   H50   S    
C9    N5    A    
O5    C69   S    
C35   H16   S    
N16   Ni1   S    
C18   C19   A    
C34   H27   S    
C12   N9    A    
C13   N8    A    
C6    C15   A    
C54   C55   A    
C47   C48   A    
C1    H1    S    
C56   N13   A    
N2    N8    A    
C51   C57   A    
C59   H30   S    
C4    C29   S    
N2    Ni2   S    
C18   O1    S    
C66   H44   S    
C63   N15   A    
C39   O4    S    
C5    O6    S    
C7    N3    A    
C21   C22   A    
C4    C56   A    
C34   N11   A    
N8    Ni3   S    
C19   H8    S    
C7    H37   S    
C69   H53   S    
C44   H22   S    
N4    N5    A    
C44   C46   A    
N9    Ni2   S    
C31   H13   S    
C14   C58   S    
C4    C34   A    
C11   H6    S    
C51   C52   A    
O6    C70   S    
O2    C66   S    
C69   H52   S    
C70   H56   S    
C16   C46   S    
C39   C40   A    
C33   H15   S    
C15   C26   S    
C67   H46   S    
C58   C59   D    
C41   H20   S    
C3    C45   A    
C31   C37   A    
C60   C61   D    
C53   O5    S    
N10   Ni3   S    
C62   H35   S    
C10   H5    S    
C63   H36   S    
C2    C49   S    
C47   C57   S    
C31   C32   A    
C48   C49   A    
C48   H23   S    
N11   N13   A    
C42   H21   S    
C21   O2    S    
C8    N4    A    
C5    C14   A    
N9    N14   A    
C65   H41   S    
N13   Ni1   S    
C9    C17   A    
C7    C16   A    
C55   H28   S    
N15   Ni3   S    
C13   C15   A    
N6    Ni1   S    
C11   N7    A    
O3    C67   S    
N1    N15   A    
C22   C24   A    
N5    Ni2   S    
C10   N6    A    
C42   C43   A    
C22   H10   S    
C28   H12   S    
C1    C64   A    
C1    N1    A    
N7    Ni4   S    
C52   C53   A    
C65   H40   S    
C66   H42   S    
C44   C50   A    
C25   C30   A    
C23   N10   A    
C46   C47   A    
C36   C37   A    
C43   H17   S    
N3    Ni3   S    
C69   H51   S    
C51   H24   S    
C68   H48   S    
C54   H26   S    
C67   H45   S    
C61   H32   S    
C8    C17   A    
C60   C64   S    
N1    Ni1   S    
C32   C33   A    
C19   C20   A    
C55   C57   A    
C25   C26   A    
C9    H4    S    
C38   C43   A    
C5    N16   A    
C10   C16   A    
C70   H54   S    
N12   Ni2   S    
C13   H38   S    
C68   H49   S    
C27   C37   S    
C40   C50   S    
C11   C14   A    
N3    N6    A    
C6    N2    A    
N10   N12   A    
N7    N16   A    
O4    C68   S    
C32   H14   S    
C63   C64   A    
C60   H31   S    
C6    H2    S    
C20   C21   A    
C8    H3    S    
C49   C50   A    
C27   C28   A    
N11   Ni4   S    
C45   H33   S    
C25   H11   S    
C12   H9    S    
N14   Ni4   S    
C2    C62   A    
C24   H7    S    
C65   H39   S    
N4    Ni4   S    
C3    C59   S    
