data_str_m12_o4_o22_f0_bcu.sym.55
_audit_creation_date              2012-12-11T17:01:30-0500
_audit_creation_method            fapswitch 2.2
_symmetry_space_group_name_H-M    P1
_symmetry_Int_Tables_number       1
_space_group_crystal_system       triclinic
_cell_length_a                    15.059076
_cell_length_b                    14.850654
_cell_length_c                    14.858964
_cell_angle_alpha                 109.709615
_cell_angle_beta                  109.381856
_cell_angle_gamma                 109.410841
_cell_volume                      2555.2371943

loop_
_atom_site_label
_atom_site_type_symbol
_atom_type_description
_atom_site_fract_x
_atom_site_fract_y
_atom_site_fract_z
_atom_type_partial_charge
C1    C     C_R   0.927221 0.740415 0.019925 -0.159160
C2    C     C_R   0.212063 0.804037 0.302990 -0.156173
C3    C     C_R   0.974530 0.407415 0.222187 -0.117384
C4    C     C_R   0.779050 0.258290 0.686608 -0.140044
C5    C     C_R   0.314612 0.591126 0.061516 -0.166173
C6    C     C_R   0.052235 0.499743 0.325303 0.069442
C7    C     C_R   0.325176 0.497256 0.037638 -0.011054
C8    C     C_R   0.305528 0.867034 0.305137 0.089448
C9    C     C_R   0.931225 0.129922 0.931915 0.108997
C10   C     C_3   0.545518 0.498408 0.970023 -0.389218
C11   C     C_3   0.435758 0.484815 0.952484 -0.390276
C12   C     C_R   0.676132 0.229850 0.674396 0.068891
C13   C     C_3   0.530258 0.393977 0.074589 0.564353
C14   C     C_3   0.631998 0.605446 0.177341 -0.160009
C15   C     C_3   0.606425 0.499145 0.077573 0.196789
C16   C     C_R   0.093899 0.591256 0.790519 -0.142704
C17   C     C_3   0.427806 0.498146 0.057354 0.344814
C18   C     C_3   0.434340 0.405860 0.081901 -0.511573
C19   C     C_3   0.526378 0.608336 0.158177 -0.527345
C20   C     C_R   0.567739 0.135970 0.468084 0.041341
C21   C     C_R   0.573439 0.175160 0.570943 0.111158
C22   C     C_R   0.474083 0.138009 0.570706 -0.203057
C23   C     C_R   0.065078 0.499381 0.697374 0.065993
C24   C     C_R   0.380679 0.042271 0.477917 -0.162388
C25   C     C_R   0.385803 0.984333 0.384414 0.045093
C26   C     C_R   0.475958 0.040880 0.376792 -0.103253
C27   C     C_3   0.542124 0.007757 0.329241 1.148791
C28   C     C_R   0.705174 0.409191 0.011721 -0.225775
C29   C     C_3   0.642317 0.113096 0.430171 -0.734191
C30   C     C_R   0.147230 0.600480 0.526491 0.130682
C31   C     C_R   0.097899 0.500931 0.428936 0.044332
C32   C     C_R   0.062674 0.401441 0.430339 -0.185185
C33   C     C_R   0.062813 0.400986 0.523734 -0.192356
C34   C     C_R   0.705415 0.500280 0.078815 -0.142810
C35   C     C_R   0.099517 0.500243 0.617004 0.041296
C36   C     C_R   0.147885 0.600141 0.620020 0.139680
C37   C     C_3   0.265208 0.687157 0.692452 -0.497281
C38   C     C_3   0.264597 0.687217 0.590874 -0.475333
C39   C     C_R   0.848856 0.879034 0.957551 0.059690
C40   C     C_R   0.004310 0.408003 0.699480 -0.145209
C41   C     C_R   0.894251 0.827636 0.904342 -0.021655
C42   C     C_R   0.909352 0.850708 0.824518 -0.330647
C43   C     C_R   0.904053 0.941233 0.817910 0.611945
C44   C     C_R   0.892407 0.013415 0.898808 -0.144535
C45   C     C_R   0.066753 0.592174 0.314765 -0.157756
C46   C     C_R   0.854393 0.973994 0.959370 0.020399
C47   C     C_3   0.878731 0.028392 0.076836 -0.198561
C48   C     C_3   0.868707 0.922399 0.074069 -0.213109
C49   C     C_R   0.795047 0.590943 0.102822 0.579161
C50   C     C_R   0.686638 0.252705 0.777306 -0.138731
C51   C     C_R   0.023225 0.748740 0.933312 -0.125244
C52   C     C_R   0.943802 0.770791 0.946693 0.094864
C53   C     C_1   0.196610 0.299441 0.880274 -0.028483
C54   C     C_3   0.468670 0.204922 0.990568 -0.321023
C55   C     C_1   0.687808 0.613046 0.284476 0.049649
C56   C     C_R   0.222423 0.405764 0.960328 0.068480
C57   C     C_3   0.614659 0.891813 0.299631 -0.246069
C58   C     C_3   0.480039 0.067525 0.202359 -0.386132
C59   C     C_3   0.829141 0.940266 0.657814 -0.273967
C60   C     C_1   0.990812 0.121870 0.155071 0.085668
C61   C     C_1   0.771511 0.860828 0.077427 0.120243
C62   C     C_3   0.924959 0.735854 0.275263 -0.293853
C63   C     C_R   0.300083 0.803279 0.209130 -0.088512
C64   C     C_R   0.902760 0.195126 0.993045 -0.130045
C65   C     C_R   0.993759 0.193195 0.902974 -0.123693
H1    H     H_    0.865718 0.737991 0.041493 0.162368
H2    H     H_    0.424331 0.547120 0.931860 0.156878
H3    H     H_    0.803219 0.260074 0.626647 0.120732
H4    H     H_    0.371848 0.402088 0.879923 0.192655
H5    H     H_    0.358720 0.325156 0.026179 0.192224
H6    H     H_    0.684114 0.681738 0.182708 0.207692
H7    H     H_    0.530291 0.675447 0.139774 0.163727
H8    H     H_    0.516841 0.626440 0.232479 0.188917
H9    H     H_    0.578918 0.391591 0.148345 -0.001679
H10   H     H_    0.446760 0.427543 0.166186 0.133037
H11   H     H_    0.470607 0.172449 0.645348 0.128817
H12   H     H_    0.347410 0.831393 0.173585 0.135530
H13   H     H_    0.153483 0.675665 0.822549 0.098673
H14   H     H_    0.309798 0.008267 0.485523 0.119258
H15   H     H_    0.696384 0.094866 0.483766 0.195196
H16   H     H_    0.684056 0.175542 0.411464 0.196294
H17   H     H_    0.025370 0.322894 0.356822 0.131747
H18   H     H_    0.026243 0.322119 0.518870 0.125512
H19   H     H_    0.277179 0.765530 0.752440 0.187280
H20   H     H_    0.317462 0.656760 0.729163 0.200348
H21   H     H_    0.276424 0.765674 0.592040 0.186590
H22   H     H_    0.654330 0.323908 0.984379 0.182553
H23   H     H_    0.839132 0.167247 0.012178 0.093737
H24   H     H_    0.316300 0.656618 0.567790 0.202056
H25   H     H_    0.935046 0.805833 0.774603 0.160924
H26   H     H_    0.815512 0.047250 0.085747 0.125202
H27   H     H_    0.944193 0.932340 0.134279 0.149025
H28   H     H_    0.981094 0.323399 0.648108 0.091455
H29   H     H_    0.624300 0.243053 0.799737 0.109709
H30   H     H_    0.054928 0.761313 0.880523 0.100648
H31   H     H_    0.120537 0.677620 0.379157 0.106110
H32   H     H_    0.428197 0.129340 0.909406 0.184981
H33   H     H_    0.414347 0.193080 0.026273 0.146638
H34   H     H_    0.011650 0.161909 0.839039 0.173867
H35   H     H_    0.546733 0.213942 0.044233 0.134028
H36   H     H_    0.696000 0.966599 0.343668 0.138017
H37   H     H_    0.580888 0.856981 0.209280 0.177837
H38   H     H_    0.627748 0.831462 0.321927 0.160767
H39   H     H_    0.529469 0.155040 0.270193 0.159400
H40   H     H_    0.394270 0.031737 0.183810 0.157227
H41   H     H_    0.479904 0.066735 0.127403 0.188619
H42   H     H_    0.795972 0.992739 0.688898 0.142237
H43   H     H_    0.767246 0.851168 0.614216 0.150961
H44   H     H_    0.846487 0.957388 0.596569 0.176415
H45   H     H_    0.182916 0.833558 0.357412 0.078012
H46   H     H_    0.997380 0.752804 0.265616 0.156599
H47   H     H_    0.910215 0.676113 0.305483 0.149543
H48   H     H_    0.942015 0.814724 0.339344 0.175883
H49   H     H_    0.942318 0.321667 0.199715 0.096077
H50   H     H_    0.377587 0.676802 0.112428 0.138251
H51   H     H_    0.533178 0.430326 0.896685 0.198376
H52   H     H_    0.593990 0.577090 0.975128 0.164635
N1    N     N_R   0.995640 0.706130 0.053910 -0.043526
N2    N     N_R   0.054010 0.556790 0.847890 -0.038634
N3    N     N_R   0.789940 0.443190 0.997130 -0.070164
N4    N     N_R   0.997630 0.443170 0.791110 -0.040200
N5    N     N_R   0.846320 0.556810 0.053910 -0.093503
N6    N     N_R   0.791080 0.293860 0.847890 -0.038164
N7    N     N_R   0.052880 0.706130 0.997130 -0.045330
N8    N     N_R   0.002370 0.556830 0.208890 -0.051301
N9    N     N_1   0.177429 0.214958 0.815741 -0.065252
N10   N     N_1   0.731590 0.619070 0.368452 -0.095778
N11   N     N_1   0.078776 0.195024 0.216227 -0.092820
N12   N     N_R   0.153680 0.443190 0.946090 -0.056213
N13   N     N_1   0.695092 0.812689 0.080059 -0.108264
N14   N     N_R   0.208920 0.706140 0.152110 -0.046728
N15   N     N_R   0.947120 0.293870 0.002870 -0.042319
N16   N     N_R   0.004360 0.293870 0.946090 -0.052115
N17   N     N_R   0.151690 0.706140 0.208890 -0.041104
N18   N     N_R   0.945990 0.443210 0.152110 -0.041512
N19   N     N_R   0.210060 0.556810 0.002870 -0.046940
N20   N     N_R   0.848310 0.293860 0.791110 -0.043902
Ni1   Ni    Ni4+2 0.999010 0.630300 0.130220 0.212197
Ni2   Ni    Ni4+2 0.000990 0.369700 0.869780 0.215384
Ni3   Ni    Ni4+2 0.130280 0.630280 0.000000 0.211594
Ni4   Ni    Ni4+2 0.869720 0.369720 0.000000 0.199753
O1    O     O_3   0.487288 0.296414 0.974259 -0.614337
O2    O     O_3   0.540895 0.912225 0.330226 -0.659884
O3    O     O_3   0.524266 0.002597 0.226205 -0.646386
O4    O     O_3   0.926634 0.965570 0.743548 -0.628776
O5    O     O_3   0.834516 0.700125 0.175844 -0.668593

loop_
_geom_bond_atom_site_label_1
_geom_bond_atom_site_label_2
_ccdc_geom_bond_type
C18   H5    S    
C5    N19   A    
C18   H10   S    
C8    C25   S    
C6    C45   A    
C27   C29   S    
C9    C64   A    
C41   C42   A    
C35   C36   A    
C22   H11   S    
C40   H28   S    
N19   Ni3   S    
N14   N17   A    
C39   C41   A    
C40   N4    A    
N20   Ni2   S    
C38   H24   S    
C26   C27   S    
C2    N17   A    
C13   C18   S    
C38   H21   S    
N2    Ni3   S    
C37   H20   S    
C36   C37   S    
C10   C15   S    
C30   C31   A    
C23   C40   A    
C30   C38   S    
C14   H6    S    
C9    C44   S    
N14   Ni3   S    
C17   C19   S    
C4    N20   A    
C11   C17   S    
C62   H46   S    
C64   N15   A    
C44   C46   A    
N15   N16   A    
C7    C17   S    
C27   O2    S    
C37   H19   S    
C63   N14   A    
C4    C12   A    
C41   C52   S    
C16   H13   S    
C56   N12   A    
N8    N18   A    
C14   C55   S    
C47   C60   S    
C28   C34   A    
C57   H36   S    
C21   C22   A    
C5    H50   S    
C51   N7    A    
C54   H35   S    
C19   H7    S    
C7    C56   A    
C11   H2    S    
C1    H1    S    
C20   C29   S    
N2    N4    A    
C57   H38   S    
C57   O2    S    
C51   C52   A    
C19   H8    S    
C24   C25   A    
N5    Ni1   S    
C62   H48   S    
C28   N3    A    
C16   N2    A    
C45   N8    A    
C5    C7    A    
C50   H29   S    
C25   C26   A    
C12   C21   S    
C59   H42   S    
C59   H44   S    
C42   H25   S    
C43   C44   A    
C29   H16   S    
C37   C38   S    
C43   O4    S    
N12   N19   A    
C24   H14   S    
C47   C48   S    
N12   Ni2   S    
C60   N11   T    
N6    Ni4   S    
C28   H22   S    
C17   C18   S    
C53   N9    T    
C54   H32   S    
N1    N7    A    
C13   O1    S    
C20   C21   A    
C57   H37   S    
C33   H18   S    
C65   H34   S    
C61   N13   T    
C39   C46   A    
C59   O4    S    
C54   O1    S    
C55   N10   T    
N16   Ni2   S    
C16   C23   A    
C23   C35   S    
C13   C15   S    
C62   O5    S    
C22   C24   A    
C58   H39   S    
C42   C43   A    
C10   H51   S    
N3    N5    A    
C4    H3    S    
C63   H12   S    
C53   C56   S    
N15   Ni4   S    
C46   C47   S    
C2    H45   S    
C34   C49   A    
C15   C34   S    
C47   H26   S    
C14   C19   S    
N7    Ni3   S    
C31   C32   A    
C2    C8    A    
C50   N6    A    
C3    H49   S    
N17   Ni1   S    
C12   C50   A    
C11   H4    S    
N8    Ni1   S    
C32   H17   S    
N6    N20   A    
C59   H43   S    
C30   C36   A    
C58   H40   S    
C32   C33   A    
N4    Ni2   S    
C10   H52   S    
C27   O3    S    
C48   C61   S    
N3    Ni4   S    
C29   H15   S    
C20   C26   A    
C49   N5    A    
C33   C35   A    
C49   O5    S    
C6    C31   S    
C3    N18   A    
C1    N1    A    
C1    C52   A    
C9    C65   A    
C10   C11   S    
C8    C63   A    
C58   O3    S    
N18   Ni4   S    
C62   H47   S    
C13   H9    S    
C48   H27   S    
C3    C6    A    
C14   C15   S    
C54   H33   S    
C58   H41   S    
N1    Ni1   S    
C45   H31   S    
C64   H23   S    
C65   N16   A    
C51   H30   S    
C39   C48   S    
