data_str_m3_o1_o9_f0_pcu.sym.223
_audit_creation_date              2012-12-10T18:59:58-0500
_audit_creation_method            fapswitch 2.2
_symmetry_space_group_name_H-M    P1
_symmetry_Int_Tables_number       1
_space_group_crystal_system       triclinic
_cell_length_a                    10.698001
_cell_length_b                    10.677331
_cell_length_c                    9.878263
_cell_angle_alpha                 90.791351
_cell_angle_beta                  90.464433
_cell_angle_gamma                 91.22026
_cell_volume                      1127.95212235

loop_
_atom_site_label
_atom_site_type_symbol
_atom_type_description
_atom_site_fract_x
_atom_site_fract_y
_atom_site_fract_z
_atom_type_partial_charge
C1    C     C_R   0.499233 0.260047 0.499345 0.918663
C2    C     C_R   0.500767 0.739953 0.500655 0.918666
C3    C     C_R   0.872269 0.494714 0.501255 -0.032409
C4    C     C_R   0.127731 0.505286 0.498745 -0.032408
C5    C     C_R   0.938376 0.441874 0.609576 0.077635
C6    C     C_R   0.061624 0.558126 0.390424 0.077635
C7    C     C_R   0.542635 0.063553 0.385531 -0.117964
C8    C     C_R   0.457367 0.936447 0.614470 -0.117967
C9    C     C_R   0.543917 0.935319 0.386548 -0.193863
C10   C     C_R   0.456084 0.064681 0.613452 -0.193863
C11   C     C_R   0.501301 0.872444 0.501061 0.009477
C12   C     C_R   0.498700 0.127556 0.498939 0.009477
C13   C     C_R   0.555202 0.595790 0.075356 -0.144449
C14   C     C_R   0.444798 0.404210 0.924644 -0.144449
C15   C     C_R   0.556525 0.596216 0.932138 0.038700
C16   C     C_R   0.443475 0.403784 0.067862 0.038699
C17   C     C_R   0.260268 0.502829 0.499450 0.931031
C18   C     C_R   0.739732 0.497171 0.500550 0.931030
C19   C     C_R   0.255651 0.790032 0.188533 -0.181123
C20   C     C_R   0.744349 0.209968 0.811467 -0.181123
C21   C     C_R   0.192136 0.734670 0.296376 0.646409
C22   C     C_R   0.807864 0.265330 0.703624 0.646408
C23   C     C_R   0.122920 0.622412 0.275485 0.009676
C24   C     C_R   0.877080 0.377589 0.724515 0.009675
C25   C     C_R   0.116279 0.568207 0.145117 -0.199100
C26   C     C_R   0.883719 0.431794 0.854883 -0.199101
C27   C     C_R   0.179997 0.623978 0.037765 -0.147708
C28   C     C_R   0.820001 0.376023 0.962235 -0.147708
C29   C     C_R   0.249940 0.734559 0.059552 -0.179233
C30   C     C_R   0.750059 0.265441 0.940448 -0.179232
C31   C     C_R   0.933361 0.551119 0.392660 -0.254286
C32   C     C_R   0.066639 0.448881 0.607340 -0.254286
H1    H     H_    0.299918 0.777133 0.976540 0.180081
H2    H     H_    0.700081 0.222868 0.023460 0.180082
H3    H     H_    0.309925 0.875642 0.205065 0.160395
H4    H     H_    0.690076 0.124358 0.794935 0.160395
H5    H     H_    0.064076 0.481421 0.127448 0.167456
H6    H     H_    0.935922 0.518580 0.872552 0.167455
H7    H     H_    0.176052 0.580886 0.937920 0.153812
H8    H     H_    0.823946 0.419116 0.062079 0.153812
H9    H     H_    0.881101 0.593244 0.311033 0.157517
H10   H     H_    0.118899 0.406756 0.688967 0.157517
H11   H     H_    0.577384 0.112374 0.297573 0.176568
H12   H     H_    0.422618 0.887626 0.702428 0.176566
H13   H     H_    0.578856 0.885651 0.298705 0.163615
H14   H     H_    0.421146 0.114349 0.701295 0.163614
H15   H     H_    0.600110 0.671388 0.132940 0.157403
H16   H     H_    0.399890 0.328612 0.867060 0.157400
N1    N     N_R   0.499970 0.499970 0.857200 -0.123712
N2    N     N_R   0.500030 0.500030 0.142800 -0.123713
O1    O     O_R   0.499990 0.316750 0.614620 -0.641030
O2    O     O_R   0.500010 0.683250 0.385380 -0.641030
O3    O     O_R   0.499990 0.316780 0.385290 -0.616368
O4    O     O_R   0.500010 0.683220 0.614710 -0.616367
O5    O     O_R   0.316760 0.500000 0.614660 -0.642640
O6    O     O_R   0.683240 0.500000 0.385340 -0.642640
O7    O     O_R   0.316760 0.500020 0.385330 -0.577591
O8    O     O_R   0.683240 0.499980 0.614670 -0.577590
Zn1   Zn    Zn3+2 0.500000 0.499980 0.653120 0.988003
Zn2   Zn    Zn3+2 0.500000 0.500020 0.346880 0.988003
C33   C     C_2   0.621236 0.703060 0.868748 0.907810
O9    O     O_2   0.703890 0.685733 0.786661 -0.597505
O10   O     O_R   0.593420 0.824886 0.910531 -0.845957
H17   H     H_    0.645352 0.890751 0.862231 0.342705
C34   C     C_2   0.378764 0.296940 0.131252 0.907814
O11   O     O_2   0.296107 0.314267 0.213336 -0.597507
O12   O     O_R   0.406583 0.175114 0.089473 -0.845958
H18   H     H_    0.354649 0.109249 0.137770 0.342706
F1    F     F_    0.199102 0.789429 0.421104 -0.692014
F2    F     F_    0.800899 0.210571 0.578896 -0.692014

loop_
_geom_bond_atom_site_label_1
_geom_bond_atom_site_label_2
_ccdc_geom_bond_type
C17   O7    A    
C10   H14   S    
C14   H16   S    
O12   H18   S    
C9    H13   S    
C14   C16   A    
C7    H11   S    
C27   C29   A    
C9    C11   A    
C17   O5    A    
C26   C28   A    
N1    Zn1   S    
C18   O6    A    
C5    C32   A    
N2    Zn2   S    
C7    C9    A    
C28   C30   A    
C6    C31   A    
C15   C33   S    
C19   C29   A    
C20   C30   A    
C34   O12   S    
C15   N1    A    
C3    C31   A    
C1    O1    A    
C24   C26   A    
C4    C32   A    
C1    C12   S    
C2    O2    A    
O2    Zn2   S    
C8    C11   A    
C2    C11   S    
C10   C12   A    
C8    C10   A    
C19   C21   A    
O3    Zn2   S    
C20   C22   A    
O5    Zn1   S    
O4    Zn1   S    
C13   C15   A    
C21   C23   A    
C32   H10   S    
C33   O9    D    
C22   C24   A    
C7    C12   A    
C14   N1    A    
O1    Zn1   S    
C28   H8    S    
O10   H17   S    
C27   H7    S    
C13   N2    A    
C20   H4    S    
C29   H1    S    
C23   C25   A    
O6    Zn2   S    
C3    C18   S    
C4    C6    A    
C34   O11   D    
C2    O4    A    
C21   F1    S    
C19   H3    S    
C30   H2    S    
C5    C24   S    
O7    Zn2   S    
C1    O3    A    
C16   C34   S    
C31   H9    S    
C25   H5    S    
O8    Zn1   S    
C6    C23   S    
C13   H15   S    
C22   F2    S    
C33   O10   S    
C26   H6    S    
C8    H12   S    
C16   N2    A    
C18   O8    A    
C3    C5    A    
C25   C27   A    
C4    C17   S    
