data_str_m9_o1_o16_f0_sra.sym.200
_audit_creation_date              2013-03-05T15:55:31-0500
_audit_creation_method            fapswitch 2.2
_symmetry_space_group_name_H-M    P1
_symmetry_Int_Tables_number       1
_space_group_crystal_system       triclinic
_cell_length_a                    20.219318
_cell_length_b                    7.255568
_cell_length_c                    13.571119
_cell_angle_alpha                 89.997838
_cell_angle_beta                  103.160756
_cell_angle_gamma                 90.001508
_cell_volume                      1938.62761228

loop_
_atom_site_label
_atom_site_type_symbol
_atom_site_description
_atom_site_fract_x
_atom_site_fract_y
_atom_site_fract_z
_atom_type_partial_charge
O1    O     O_R   0.449560 0.506810 0.599700 -0.582607
O2    O     O_R   0.550440 0.006810 0.400300 -0.582566
O3    O     O_R   0.587960 0.180060 0.595760 -0.545842
O4    O     O_R   0.412040 0.680060 0.404240 -0.545869
C1    C     C_R   0.614296 0.343728 0.619583 0.968286
C2    C     C_R   0.385704 0.843728 0.380416 0.968143
O5    O     O_R   0.452380 0.177430 0.611700 -0.582705
O6    O     O_R   0.547620 0.677430 0.388300 -0.582648
O7    O     O_R   0.413900 0.001890 0.416350 -0.585704
O8    O     O_R   0.586100 0.501890 0.583650 -0.585714
C3    C     C_R   0.436351 0.345693 0.637370 1.009059
C4    C     C_R   0.563646 0.845702 0.362629 1.009009
O9    O     O_3   0.487530 0.337490 0.435890 -0.266240
O10   O     O_3   0.512470 0.837490 0.564110 -0.266277
V1    V     V_3+5 0.502310 0.064660 0.511890 1.286291
V2    V     V_3+5 0.497690 0.564660 0.488110 1.286293
C5    C     C_R   0.611978 0.872526 0.113269 -0.141437
C6    C     C_R   0.388038 0.372474 0.886751 -0.141443
H1    H     H_    0.519093 0.889865 0.163077 0.136117
H2    H     H_    0.480912 0.389894 0.836921 0.136109
H3    H     H_    0.693478 0.849208 0.986977 0.175684
H4    H     H_    0.306539 0.349035 0.013060 0.175685
H5    H     H_    0.585959 0.881833 0.034208 0.141107
H6    H     H_    0.414063 0.381778 0.965813 0.141100
C7    C     C_R   0.605503 0.854255 0.288122 -0.232287
C8    C     C_R   0.394499 0.354221 0.711884 -0.232436
C9    C     C_R   0.933207 0.889916 0.316705 -0.167647
C10   C     C_R   0.066823 0.390209 0.683315 -0.167685
C11   C     C_R   0.898095 0.914041 0.392475 -0.105758
C12   C     C_R   0.101949 0.414478 0.607571 -0.105684
C13   C     C_R   0.827428 0.907128 0.369798 -0.083042
C14   C     C_R   0.172615 0.407457 0.630261 -0.082657
C15   C     C_R   0.789755 0.865822 0.270852 0.108470
C16   C     C_R   0.210264 0.365907 0.729188 0.108571
C17   C     C_R   0.825991 0.853470 0.192396 0.099920
C18   C     C_R   0.174023 0.353465 0.807631 0.099813
C19   C     C_R   0.717105 0.852286 0.245610 -0.062209
C20   C     C_R   0.282910 0.352257 0.754424 -0.062067
C21   C     C_R   0.682891 0.858708 0.141603 0.149367
C22   C     C_R   0.317124 0.358638 0.858429 0.149303
C23   C     C_R   0.719508 0.850446 0.066112 -0.184699
C24   C     C_R   0.280508 0.350323 0.933921 -0.184680
C25   C     C_R   0.789800 0.841789 0.090975 -0.206292
C26   C     C_R   0.210212 0.341669 0.909053 -0.206279
C27   C     C_R   0.676615 0.833382 0.318583 0.277742
C28   C     C_R   0.323385 0.333295 0.681440 0.277478
C29   C     C_R   0.573825 0.876522 0.186295 -0.212894
C30   C     C_R   0.426180 0.376513 0.813710 -0.212804
C31   C     C_R   0.897849 0.863114 0.216652 -0.158816
C32   C     C_R   0.102165 0.363175 0.783360 -0.158830
H7    H     H_    0.988118 0.900663 0.335346 0.116112
H8    H     H_    0.011914 0.401043 0.664664 0.116123
H9    H     H_    0.803650 0.945205 0.430126 0.167525
H10   H     H_    0.196423 0.445605 0.569971 0.167416
H11   H     H_    0.925745 0.944236 0.468924 0.129884
H12   H     H_    0.074313 0.444858 0.531134 0.129864
H13   H     H_    0.815581 0.833434 0.029389 0.132430
H14   H     H_    0.184429 0.333258 0.970637 0.132448
C33   C     C_R   0.210760 0.011373 0.243402 -0.118022
C34   C     C_R   0.789243 0.511373 0.756587 -0.118087
H15   H     H_    0.180926 0.135426 0.243097 0.152404
H16   H     H_    0.819080 0.635423 0.756887 0.152387
C35   C     C_R   0.276329 0.005540 0.305356 -0.061127
C36   C     C_R   0.723674 0.505541 0.694633 -0.061007
H17   H     H_    0.294694 0.124839 0.351193 0.219250
H18   H     H_    0.705312 0.624839 0.648787 0.219210
C37   C     C_R   0.317282 0.847739 0.309363 -0.243770
C38   C     C_R   0.682718 0.347742 0.690635 -0.243737
C39   C     C_R   0.290645 0.695209 0.246715 0.366696
C40   C     C_R   0.709353 0.195212 0.753289 0.366697
C41   C     C_R   0.224573 0.701782 0.186174 -0.191708
C42   C     C_R   0.775425 0.201784 0.813829 -0.191699
H19   H     H_    0.205661 0.584230 0.138876 0.155240
H20   H     H_    0.794335 0.084232 0.861133 0.155230
C43   C     C_R   0.183794 0.858685 0.183862 -0.180920
C44   C     C_R   0.816206 0.358686 0.816136 -0.180902
O11   O     O_R   0.913920 0.203370 0.916260 -0.591387
O12   O     O_R   0.086080 0.703370 0.083740 -0.591388
O13   O     O_R   0.047620 0.535540 0.888290 -0.587719
O14   O     O_R   0.952380 0.035540 0.111710 -0.587709
C45   C     C_R   0.063414 0.368456 0.862132 0.909938
C46   C     C_R   0.936592 0.868445 0.137873 0.909926
O15   O     O_R   0.912040 0.532780 0.904220 -0.600812
O16   O     O_R   0.087960 0.032780 0.095780 -0.600821
O17   O     O_R   0.949550 0.708160 0.099720 -0.586319
O18   O     O_R   0.050450 0.208160 0.900280 -0.586319
C47   C     C_R   0.885524 0.364971 0.883143 0.930727
C48   C     C_R   0.114476 0.864971 0.116856 0.930717
O19   O     O_3   0.012480 0.375300 0.064060 -0.287455
O20   O     O_3   0.987520 0.875300 0.935940 -0.287457
V3    V     V_3+5 0.997690 0.648180 0.988110 1.170088
V4    V     V_3+5 0.002310 0.148180 0.011890 1.170088
Br1   Br    Br    0.341238 0.475488 0.233330 -0.587551
Br2   Br    Br    0.658757 0.975493 0.766683 -0.587554
N1    N     N_R   0.705122 0.769575 0.419519 0.204369
O21   O     O_R   0.695154 0.861004 0.497368 -0.433945
O22   O     O_R   0.738862 0.615329 0.433585 -0.417789
N2    N     N_R   0.294847 0.269373 0.580521 0.204481
O23   O     O_R   0.304899 0.360547 0.502624 -0.433959
O24   O     O_R   0.260851 0.115589 0.566505 -0.417820

loop_
_geom_bond_atom_site_label_1
_geom_bond_atom_site_label_2
_geom_bond_distance
_ccdc_geom_bond_type
O15   C47   1.334858 A    
C35   H17   1.081165 S    
O11   V4    1.995620 S    
O4    V2    2.024370 S    
C7    C27   1.410869 A    
C9    C11   1.387242 A    
N1    O21   1.301498 A    
O1    C3    1.327152 A    
C42   C44   1.401808 A    
O2    C4    1.327138 A    
C2    O7    1.324055 A    
O17   V3    2.025459 S    
C18   C32   1.416504 A    
C21   C23   1.395247 A    
O5    C3    1.329787 A    
C5    H5    1.084203 S    
C6    H6    1.084252 S    
C36   C38   1.406784 A    
C40   Br2   1.924999 S    
C39   Br1   1.924999 S    
H1    C29   1.083768 S    
C34   H16   1.083013 S    
C5    C21   1.400958 A    
C39   C41   1.400785 A    
C6    C22   1.400965 A    
C10   C32   1.396683 A    
C26   H14   1.082776 S    
C17   C31   1.416478 A    
C13   C15   1.416832 A    
C12   C14   1.392332 A    
C17   C25   1.406582 A    
C7    C29   1.393889 A    
O13   V3    2.035961 S    
C45   O18   1.323301 A    
C8    C30   1.393939 A    
C22   C24   1.395276 A    
C28   N2    1.436652 S    
O6    V2    2.036171 S    
C20   C22   1.424191 A    
C23   C25   1.385434 A    
C24   C26   1.385500 A    
C1    C38   1.495692 S    
C14   H10   1.075711 S    
C9    H7    1.083907 S    
C19   C21   1.424217 A    
C35   C37   1.406785 A    
C33   H15   1.083014 S    
O16   C48   1.334865 A    
C42   H20   1.083493 S    
O13   C45   1.322616 A    
C25   H13   1.082756 S    
C11   H11   1.082981 S    
C3    C8    1.460201 S    
C12   H12   1.083014 S    
C34   C44   1.406032 A    
C15   C19   1.433747 A    
C37   C39   1.424501 A    
C14   C16   1.416823 A    
C31   C46   1.462724 S    
O14   V4    2.035899 S    
O6    C4    1.329790 A    
O1    V2    2.021793 S    
C13   H9    1.075659 S    
O19   V4    1.786856 S    
O2    V1    2.021828 S    
C44   C47   1.487622 S    
H2    C30   1.083779 S    
H3    C23   1.083085 S    
O4    C2    1.311434 A    
C2    C37   1.495698 S    
N2    O24   1.301570 A    
C18   C26   1.406632 A    
C19   C27   1.427931 A    
C27   N1    1.436447 S    
C33   C43   1.406023 A    
O3    V1    2.024367 S    
C41   H19   1.083494 S    
O12   C48   1.337497 A    
C16   C20   1.433709 A    
C5    C29   1.387887 A    
O3    C1    1.311431 A    
C6    C30   1.387914 A    
C40   C42   1.400781 A    
N1    O22   1.301928 A    
O12   V3    1.995617 S    
C46   O17   1.323275 A    
O15   V3    2.024468 S    
C33   C35   1.399558 A    
C4    C7    1.460195 S    
C34   C36   1.399563 A    
C10   C12   1.387264 A    
O7    V1    2.007138 S    
C1    O8    1.324050 A    
C11   C13   1.392332 A    
O18   V4    2.025422 S    
C41   C43   1.401817 A    
C10   H8    1.083918 S    
O20   V3    1.786817 S    
H4    C24   1.083136 S    
O5    V1    2.036234 S    
C15   C17   1.426080 A    
O14   C46   1.322635 A    
C16   C18   1.426048 A    
C20   C28   1.427899 A    
C8    C28   1.410917 A    
C43   C48   1.487619 S    
O11   C47   1.337498 A    
C38   C40   1.424504 A    
N2    O23   1.301649 A    
O9    V2    1.787438 S    
O10   V1    1.787398 S    
O8    V2    2.007133 S    
O16   V4    2.024468 S    
C9    C31   1.396631 A    
C32   C45   1.462745 S    
C36   H18   1.081181 S    
