data_str_m3_o40_o41_f0_fof.sym.61
_audit_creation_date              2012-12-10T16:38:08-0500
_audit_creation_method            fapswitch 2.2
_symmetry_space_group_name_H-M    P1
_symmetry_Int_Tables_number       1
_space_group_crystal_system       triclinic
_cell_length_a                    28.084313
_cell_length_b                    18.40617
_cell_length_c                    16.773549
_cell_angle_alpha                 90.070415
_cell_angle_beta                  61.252818
_cell_angle_gamma                 90.327276
_cell_volume                      7601.86998086

loop_
_atom_site_label
_atom_site_type_symbol
_atom_type_description
_atom_site_fract_x
_atom_site_fract_y
_atom_site_fract_z
_atom_type_partial_charge
C1    C     C_R   0.700428 0.264914 0.677457 0.857252
C2    C     C_R   0.097765 0.502077 0.503869 0.079816
C3    C     C_R   0.198551 0.205096 0.899538 0.041577
C4    C     C_R   0.618230 0.330965 0.050147 -0.183159
C5    C     C_R   0.382982 0.671667 0.949222 -0.160078
C6    C     C_R   0.387973 0.322243 0.946552 -0.162397
C7    C     C_R   0.663129 0.596170 0.990254 -0.175308
C8    C     C_R   0.118230 0.830964 0.050148 -0.183148
C9    C     C_R   0.882983 0.171669 0.949221 -0.160086
C10   C     C_R   0.887974 0.822241 0.946551 -0.162506
C11   C     C_R   0.163121 0.096184 0.990268 -0.175299
C12   C     C_R   0.649776 0.320091 0.092391 -0.219565
C13   C     C_R   0.421521 0.000967 0.431409 0.041607
C14   C     C_R   0.351710 0.683910 0.906742 -0.155546
C15   C     C_R   0.357688 0.308626 0.902573 -0.218383
C16   C     C_R   0.691617 0.611743 0.036746 -0.250060
C17   C     C_R   0.149776 0.820091 0.092392 -0.219555
C18   C     C_R   0.851712 0.183913 0.906741 -0.155552
C19   C     C_R   0.857690 0.808623 0.902571 -0.218499
C20   C     C_R   0.191605 0.111764 0.036766 -0.250057
C21   C     C_R   0.734591 0.180804 0.803085 -0.073261
C22   C     C_R   0.266678 0.821366 0.197449 -0.048658
C23   C     C_R   0.265574 0.177873 0.200542 0.010355
C24   C     C_R   0.597767 0.002077 0.503875 0.079790
C25   C     C_R   0.735548 0.813564 0.806863 -0.028165
C26   C     C_R   0.234590 0.680804 0.803086 -0.073255
C27   C     C_R   0.766678 0.321365 0.197449 -0.048688
C28   C     C_R   0.765584 0.677859 0.200535 0.010494
C29   C     C_R   0.235547 0.313569 0.806860 -0.028154
C30   C     C_R   0.766970 0.167741 0.846233 -0.069886
C31   C     C_R   0.233626 0.834746 0.155682 -0.093177
C32   C     C_R   0.229970 0.169637 0.163289 -0.023004
C33   C     C_R   0.770632 0.824278 0.845451 -0.101087
C34   C     C_R   0.266968 0.667739 0.846236 -0.069872
C35   C     C_R   0.127380 0.386320 0.425453 -0.083732
C36   C     C_R   0.733626 0.334745 0.155682 -0.093185
C37   C     C_R   0.729983 0.669611 0.163275 -0.023004
C38   C     C_R   0.270632 0.324283 0.845447 -0.101057
C39   C     C_R   0.079956 0.090756 0.928191 0.934445
C40   C     C_R   0.928415 0.896509 0.063232 0.915464
C41   C     C_R   0.927487 0.102484 0.063977 0.941403
C42   C     C_R   0.072667 0.897734 0.935906 0.885413
C43   C     C_R   0.579957 0.590753 0.928190 0.934457
C44   C     C_R   0.428416 0.396509 0.063231 0.915477
C45   C     C_R   0.427487 0.602483 0.063977 0.941426
C46   C     C_R   0.926145 0.632527 0.424063 -0.053403
C47   C     C_R   0.572667 0.397734 0.935906 0.885410
C48   C     C_R   0.536093 0.128638 0.530902 0.091834
C49   C     C_R   0.482047 0.873097 0.404190 0.026728
C50   C     C_R   0.462132 0.132797 0.460670 0.092878
C51   C     C_R   0.578023 0.879445 0.422184 0.091965
C52   C     C_R   0.036118 0.628663 0.530829 0.091644
C53   C     C_R   0.982049 0.373098 0.404176 0.026690
C54   C     C_R   0.962153 0.632806 0.460596 0.092917
C55   C     C_R   0.078020 0.379448 0.422179 0.092058
C56   C     C_R   0.511711 0.194377 0.527099 -0.147285
C57   C     C_R   0.934527 0.372401 0.393486 -0.074391
C58   C     C_R   0.516635 0.812553 0.383391 -0.236134
C59   C     C_R   0.476468 0.196733 0.490173 -0.145676
C60   C     C_R   0.563893 0.815982 0.391353 -0.105160
C61   C     C_R   0.011760 0.694405 0.526960 -0.147320
C62   C     C_R   0.016637 0.312554 0.383377 -0.236107
C63   C     C_R   0.976512 0.696751 0.490046 -0.145826
C64   C     C_R   0.063895 0.315985 0.391340 -0.105097
C65   C     C_R   0.484482 0.066524 0.467421 0.011006
C66   C     C_R   0.542401 0.938855 0.448503 0.014016
C67   C     C_R   0.524885 0.065615 0.494552 0.008712
C68   C     C_R   0.072435 0.624196 0.567377 -0.058093
C69   C     C_R   0.496458 0.937107 0.434538 0.048134
C70   C     C_R   0.984494 0.566533 0.467377 0.011017
C71   C     C_R   0.042400 0.438858 0.448495 0.014005
C72   C     C_R   0.024896 0.565627 0.494513 0.008700
C73   C     C_R   0.996459 0.437110 0.434524 0.048131
C74   C     C_R   0.967795 0.501398 0.443639 -0.040485
C75   C     C_R   0.054470 0.501900 0.483696 -0.044525
C76   C     C_R   0.467791 0.001393 0.443662 -0.040480
C77   C     C_R   0.554469 0.001895 0.483710 -0.044524
C78   C     C_R   0.899961 0.434649 0.419994 0.048841
C79   C     C_R   0.627385 0.886320 0.425452 -0.083739
C80   C     C_R   0.108884 0.564345 0.542095 -0.020035
C81   C     C_R   0.131709 0.440953 0.482044 -0.047064
C82   C     C_R   0.896828 0.567350 0.430832 -0.041175
C83   C     C_R   0.399961 0.934647 0.420003 0.048834
C84   C     C_R   0.608882 0.064343 0.542114 -0.019875
C85   C     C_R   0.631714 0.940957 0.482040 -0.047114
C86   C     C_R   0.396824 0.067349 0.430856 -0.041167
C87   C     C_R   0.845222 0.434821 0.434281 -0.049961
C88   C     C_R   0.157443 0.564359 0.550295 -0.148559
C89   C     C_R   0.169745 0.438524 0.515625 -0.123476
C90   C     C_R   0.426135 0.132525 0.424119 -0.053412
C91   C     C_R   0.843939 0.565605 0.438523 -0.140823
C92   C     C_R   0.345224 0.934819 0.434278 -0.049975
C93   C     C_R   0.657440 0.064360 0.550312 -0.148540
C94   C     C_R   0.669748 0.938527 0.515626 -0.123483
C95   C     C_R   0.343939 0.065604 0.438530 -0.140827
C96   C     C_R   0.820065 0.500018 0.437628 -0.240649
C97   C     C_R   0.181974 0.499943 0.549083 -0.221076
C98   C     C_R   0.320068 0.000018 0.437621 -0.240629
C99   C     C_R   0.681975 0.999944 0.549092 -0.221033
C100  C     C_2   0.178419 0.353468 0.352640 0.490159
C101  C     C_R   0.434526 0.872398 0.393502 -0.074369
C102  C     C_2   0.929844 0.690283 0.358663 0.474769
C103  C     C_2   0.926714 0.313269 0.340148 0.468343
C104  C     C_2   0.065967 0.672256 0.644077 0.455185
C105  C     C_2   0.678427 0.853456 0.352657 0.490205
C106  C     C_2   0.429849 0.190290 0.358718 0.474764
C107  C     C_2   0.426716 0.813265 0.340166 0.468301
C108  C     C_2   0.565919 0.172224 0.644157 0.454587
C109  C     C_2   0.726105 0.122833 0.748530 0.461755
C110  C     C_2   0.274100 0.879573 0.252658 0.491687
C111  C     C_2   0.272142 0.117014 0.253181 0.529860
C112  C     C_R   0.299616 0.735124 0.322616 0.952156
C113  C     C_R   0.572418 0.124178 0.567430 -0.057970
C114  C     C_2   0.724281 0.875356 0.760594 0.461349
C115  C     C_2   0.226105 0.622833 0.748530 0.461753
C116  C     C_2   0.774100 0.379572 0.252658 0.491759
C117  C     C_2   0.772155 0.617007 0.253181 0.529861
C118  C     C_2   0.224281 0.375360 0.760587 0.461349
C119  C     C_2   0.795492 0.097273 0.831028 0.429233
C120  C     C_2   0.202728 0.903796 0.175201 0.365932
C121  C     C_2   0.172148 0.148634 0.225276 0.519544
C122  C     C_2   0.801508 0.893431 0.828338 0.357491
C123  C     C_2   0.295487 0.597270 0.831035 0.429199
C124  C     C_R   0.717621 0.260771 0.958029 0.017984
C125  C     C_2   0.702729 0.403795 0.175201 0.365956
C126  C     C_2   0.672165 0.648587 0.225251 0.519663
C127  C     C_2   0.301513 0.393432 0.828322 0.357448
C128  C     C_R   0.284128 0.743708 0.041158 0.017448
C129  C     C_R   0.290458 0.245918 0.035419 0.057218
C130  C     C_R   0.729310 0.719537 0.944740 0.053718
C131  C     C_R   0.217620 0.760771 0.958030 0.017985
C132  C     C_R   0.784129 0.243709 0.041157 0.017443
C133  C     C_R   0.790464 0.745905 0.035413 0.057173
C134  C     C_R   0.229303 0.219550 0.944747 0.053729
C135  C     C_R   0.763135 0.214989 0.916968 -0.002953
C136  C     C_R   0.300248 0.263585 0.322459 0.818111
C137  C     C_R   0.238383 0.789318 0.082779 -0.045060
C138  C     C_R   0.245918 0.197517 0.074569 -0.088987
C139  C     C_R   0.769546 0.774273 0.911691 -0.043516
C140  C     C_R   0.263133 0.714988 0.916970 -0.002945
C141  C     C_R   0.738383 0.289318 0.082778 -0.045067
C142  C     C_R   0.745929 0.697497 0.074557 -0.089071
C143  C     C_R   0.269543 0.274282 0.911693 -0.043492
C144  C     C_R   0.798933 0.211914 0.955261 0.101709
C145  C     C_R   0.202780 0.792842 0.043938 0.048082
C146  C     C_R   0.220886 0.176999 0.021250 0.061757
C147  C     C_R   0.700306 0.735377 0.677502 0.945441
C148  C     C_R   0.805463 0.778184 0.949695 0.047726
C149  C     C_R   0.298932 0.711912 0.955262 0.101720
C150  C     C_R   0.702781 0.292842 0.043937 0.048079
C151  C     C_R   0.720897 0.676980 0.021236 0.061754
C152  C     C_R   0.305459 0.278193 0.949698 0.047716
C153  C     C_R   0.638786 0.316574 0.956563 0.077344
C154  C     C_R   0.362338 0.685741 0.042867 0.083102
C155  C     C_R   0.366137 0.308811 0.040638 0.074856
C156  C     C_R   0.662078 0.645958 0.927296 0.073874
C157  C     C_R   0.138786 0.816574 0.956564 0.077348
C158  C     C_R   0.200428 0.764913 0.677457 0.857277
C159  C     C_R   0.862339 0.185742 0.042866 0.083096
C160  C     C_R   0.866139 0.808808 0.040637 0.074869
C161  C     C_R   0.162073 0.145967 0.927303 0.073879
C162  C     C_R   0.613320 0.340523 0.904889 -0.129546
C163  C     C_R   0.387207 0.660345 0.094903 -0.148551
C164  C     C_R   0.389505 0.336601 0.093744 -0.139015
C165  C     C_R   0.626669 0.637957 0.889283 -0.138340
C166  C     C_R   0.113320 0.840523 0.904890 -0.129584
C167  C     C_R   0.887207 0.160345 0.094903 -0.148553
C168  C     C_R   0.889504 0.836601 0.093745 -0.139032
C169  C     C_R   0.799616 0.235123 0.322616 0.952244
C170  C     C_R   0.126666 0.137961 0.889286 -0.138336
C171  C     C_R   0.631888 0.317059 0.817079 -0.278896
C172  C     C_R   0.368375 0.683183 0.183040 -0.265646
C173  C     C_R   0.370397 0.314074 0.182247 -0.276236
C174  C     C_R   0.635117 0.676778 0.813877 -0.298448
C175  C     C_R   0.131888 0.817059 0.817079 -0.278879
C176  C     C_R   0.868375 0.183183 0.183040 -0.265673
C177  C     C_R   0.870395 0.814076 0.182248 -0.276254
C178  C     C_R   0.135116 0.176780 0.813878 -0.298458
C179  C     C_R   0.675574 0.270936 0.776837 -0.137253
C180  C     C_R   0.800248 0.763587 0.322459 0.818147
C181  C     C_R   0.324969 0.729793 0.223214 -0.037972
C182  C     C_R   0.326808 0.267051 0.222640 -0.128100
C183  C     C_R   0.677448 0.725092 0.775652 -0.057619
C184  C     C_R   0.175574 0.770936 0.776837 -0.137275
C185  C     C_R   0.824969 0.229792 0.223214 -0.037979
C186  C     C_R   0.826809 0.767050 0.222639 -0.128121
C187  C     C_R   0.177447 0.225095 0.775653 -0.057627
C188  C     C_R   0.700083 0.242498 0.828677 -0.029302
C189  C     C_R   0.301210 0.759676 0.171078 0.028835
C190  C     C_R   0.303780 0.235749 0.169989 -0.041816
C191  C     C_R   0.200306 0.235377 0.677502 0.945453
C192  C     C_R   0.704396 0.748504 0.825878 0.033457
C193  C     C_R   0.200082 0.742497 0.828678 -0.029307
C194  C     C_R   0.801210 0.259676 0.171078 0.028821
C195  C     C_R   0.803784 0.735742 0.169986 -0.041815
C196  C     C_R   0.204393 0.248510 0.825880 0.033457
C197  C     C_R   0.691010 0.129292 0.535284 0.850178
C198  C     C_R   0.309414 0.870361 0.462147 0.940184
C199  C     C_R   0.308684 0.129305 0.464494 0.850462
C200  C     C_R   0.696099 0.872416 0.519102 0.897346
C201  C     C_R   0.191010 0.629291 0.535281 0.850220
C202  C     C_R   0.921523 0.500970 0.431391 0.041591
C203  C     C_R   0.809413 0.370362 0.462151 0.940285
C204  C     C_R   0.808684 0.629306 0.464492 0.850437
C205  C     C_R   0.196097 0.372416 0.519104 0.897297
C206  C     C_R   0.685811 0.273651 0.914045 0.074003
C207  C     C_R   0.315679 0.729538 0.085279 0.045081
C208  C     C_R   0.319794 0.263820 0.082435 0.080769
C209  C     C_R   0.698556 0.705086 0.899533 0.041576
C210  C     C_R   0.185811 0.773650 0.914046 0.074005
C211  C     C_R   0.815679 0.229538 0.085279 0.045082
C212  C     C_R   0.819798 0.763812 0.082432 0.080694
H1    H     H_    0.779047 0.499636 0.447173 0.201215
H2    H     H_    0.886056 0.161035 0.222729 0.189555
H3    H     H_    0.887431 0.837640 0.222375 0.202092
H4    H     H_    0.110955 0.165317 0.780626 0.191124
H5    H     H_    0.577060 0.348164 0.093730 0.190762
H6    H     H_    0.423825 0.653102 0.906040 0.170765
H7    H     H_    0.428829 0.342017 0.904626 0.185164
H8    H     H_    0.643003 0.543928 0.003318 0.175479
H9    H     H_    0.077059 0.848164 0.093730 0.190769
H10   H     H_    0.923826 0.153104 0.906040 0.170765
H11   H     H_    0.928829 0.842019 0.904626 0.185183
H12   H     H_    0.214392 0.499105 0.566819 0.206720
H13   H     H_    0.142998 0.043940 0.003333 0.175485
H14   H     H_    0.088177 0.267387 0.376319 0.202318
H15   H     H_    0.958654 0.748379 0.488748 0.193922
H16   H     H_    0.008100 0.261761 0.360483 0.134884
H17   H     H_    0.021869 0.745247 0.547680 0.197830
H18   H     H_    0.588166 0.767375 0.376344 0.202409
H19   H     H_    0.458596 0.248358 0.488908 0.193872
H20   H     H_    0.508093 0.761759 0.360504 0.134887
H21   H     H_    0.521792 0.245201 0.547906 0.197516
H22   H     H_    0.217185 0.367703 0.347891 0.047195
H23   H     H_    0.279052 0.999636 0.447154 0.201215
H24   H     H_    0.906722 0.684731 0.322480 0.050944
H25   H     H_    0.934458 0.257066 0.348948 0.039374
H26   H     H_    0.092904 0.666683 0.673131 0.052520
H27   H     H_    0.717202 0.867803 0.347834 0.046980
H28   H     H_    0.406738 0.184744 0.322512 0.050965
H29   H     H_    0.434420 0.757067 0.349017 0.039427
H30   H     H_    0.592991 0.166908 0.672970 0.052879
H31   H     H_    0.631150 0.330670 0.164536 0.189390
H32   H     H_    0.369807 0.672404 0.834807 0.129011
H33   H     H_    0.376250 0.320335 0.830605 0.188381
H34   H     H_    0.714393 0.999105 0.566826 0.206717
H35   H     H_    0.691515 0.571277 0.083554 0.146325
H36   H     H_    0.131149 0.830670 0.164536 0.189395
H37   H     H_    0.869809 0.172408 0.834805 0.129012
H38   H     H_    0.876251 0.820334 0.830605 0.188395
H39   H     H_    0.191500 0.071302 0.083582 0.146342
H40   H     H_    0.686975 0.118092 0.750570 0.044444
H41   H     H_    0.240459 0.912740 0.299083 0.153504
H42   H     H_    0.301842 0.120918 0.276856 0.020242
H43   H     H_    0.755086 0.915375 0.721515 0.148959
H44   H     H_    0.186975 0.618091 0.750570 0.044419
H45   H     H_    0.613671 0.338234 0.777730 0.199906
H46   H     H_    0.740458 0.412734 0.299089 0.153505
H47   H     H_    0.801841 0.620930 0.276887 0.020220
H48   H     H_    0.255087 0.415377 0.721506 0.148963
H49   H     H_    0.822684 0.078410 0.762838 0.142128
H50   H     H_    0.205380 0.936429 0.119336 0.077764
H51   H     H_    0.141864 0.152884 0.203102 0.044305
H52   H     H_    0.801185 0.922316 0.884942 0.154607
H53   H     H_    0.322679 0.578403 0.762846 0.142127
H54   H     H_    0.705377 0.436427 0.119336 0.077748
H55   H     H_    0.641879 0.652848 0.203081 0.044269
H56   H     H_    0.386057 0.661036 0.222729 0.189559
H57   H     H_    0.301195 0.422319 0.884920 0.154613
H58   H     H_    0.387434 0.337635 0.222373 0.202075
H59   H     H_    0.610954 0.665317 0.780628 0.191122
H60   H     H_    0.113671 0.838235 0.777730 0.199980
O1    O     O_R   0.746490 0.236330 0.638080 -0.612135
O2    O     O_R   0.325830 0.813840 0.483730 -0.645991
O3    O     O_R   0.325830 0.186160 0.483730 -0.637504
O4    O     O_R   0.674170 0.813840 0.516270 -0.630920
O5    O     O_R   0.174170 0.686160 0.516270 -0.636842
O6    O     O_R   0.825830 0.313840 0.483730 -0.645952
O7    O     O_R   0.825830 0.686160 0.483730 -0.637494
O8    O     O_R   0.174170 0.313840 0.516270 -0.630996
O9    O     O_R   0.739960 0.127620 0.525000 -0.595902
O10   O     O_R   0.260040 0.872380 0.475000 -0.626088
O11   O     O_R   0.260040 0.127620 0.475000 -0.617005
O12   O     O_R   0.253510 0.763670 0.361920 -0.645005
O13   O     O_R   0.739960 0.872380 0.525000 -0.619237
O14   O     O_R   0.239960 0.627620 0.525000 -0.595937
O15   O     O_R   0.760040 0.372380 0.475000 -0.626097
O16   O     O_R   0.760040 0.627620 0.475000 -0.617029
O17   O     O_R   0.239960 0.372380 0.525000 -0.619212
O18   O     O_R   0.680700 0.294870 0.629350 -0.620789
O19   O     O_R   0.319300 0.705130 0.370650 -0.627613
O20   O     O_R   0.319300 0.294870 0.370650 -0.625161
O21   O     O_R   0.680700 0.705130 0.629350 -0.622417
O22   O     O_R   0.180700 0.794870 0.629350 -0.620619
O23   O     O_R   0.253510 0.236330 0.361920 -0.621243
O24   O     O_R   0.819300 0.205130 0.370650 -0.627581
O25   O     O_R   0.819300 0.794870 0.370650 -0.625178
O26   O     O_R   0.180700 0.205130 0.629350 -0.622407
O27   O     O_R   0.062020 0.072840 0.007170 -0.627136
O28   O     O_R   0.937980 0.927160 0.992830 -0.623077
O29   O     O_R   0.937980 0.072840 0.992830 -0.622333
O30   O     O_R   0.062020 0.927160 0.007170 -0.648831
O31   O     O_R   0.562020 0.572840 0.007170 -0.627124
O32   O     O_R   0.437980 0.427160 0.992830 -0.623088
O33   O     O_R   0.437980 0.572840 0.992830 -0.622336
O34   O     O_R   0.746490 0.763670 0.638080 -0.630370
O35   O     O_R   0.562020 0.427160 0.007170 -0.648834
O36   O     O_R   0.947860 0.073950 0.109290 -0.607873
O37   O     O_R   0.052140 0.926050 0.890710 -0.621167
O38   O     O_R   0.052140 0.073950 0.890710 -0.624750
O39   O     O_R   0.947860 0.926050 0.109290 -0.613051
O40   O     O_R   0.447860 0.573950 0.109290 -0.607865
O41   O     O_R   0.552140 0.426050 0.890710 -0.621200
O42   O     O_R   0.552140 0.573950 0.890710 -0.624757
O43   O     O_R   0.447860 0.426050 0.109290 -0.613052
O44   O     O_2   0.178808 0.314879 0.293153 -0.595071
O45   O     O_R   0.246490 0.736330 0.638080 -0.612159
O46   O     O_2   0.960230 0.742558 0.341011 -0.594104
O47   O     O_2   0.911545 0.327356 0.284845 -0.543646
O48   O     O_2   0.028546 0.715078 0.680279 -0.596698
O49   O     O_2   0.678802 0.814694 0.293294 -0.595032
O50   O     O_2   0.460233 0.242566 0.341094 -0.594082
O51   O     O_2   0.411594 0.827355 0.284804 -0.543621
O52   O     O_2   0.528289 0.214695 0.680709 -0.596509
O53   O     O_2   0.762512 0.082387 0.698258 -0.598840
O54   O     O_2   0.318720 0.891302 0.246006 -0.553011
O55   O     O_2   0.247223 0.059905 0.265653 -0.545957
O56   O     O_R   0.753510 0.263670 0.361920 -0.645012
O57   O     O_2   0.679258 0.883130 0.767613 -0.590033
O58   O     O_2   0.262513 0.582388 0.698256 -0.598837
O59   O     O_2   0.818721 0.391304 0.245999 -0.552969
O60   O     O_2   0.747257 0.559884 0.265622 -0.545976
O61   O     O_2   0.179258 0.383134 0.767607 -0.590058
O62   O     O_2   0.788649 0.059758 0.895687 -0.576868
O63   O     O_2   0.172036 0.922645 0.253109 -0.552041
O64   O     O_2   0.156441 0.131584 0.304402 -0.524545
O65   O     O_2   0.830158 0.915904 0.751155 -0.585388
O66   O     O_2   0.288643 0.559756 0.895696 -0.576863
O67   O     O_R   0.753510 0.736330 0.361920 -0.621114
O68   O     O_2   0.672040 0.422648 0.253108 -0.552046
O69   O     O_2   0.656462 0.631504 0.304366 -0.524436
O70   O     O_2   0.330162 0.415899 0.751136 -0.585414
O71   O     O_R   0.246490 0.263670 0.638080 -0.630366
O72   O     O_R   0.674170 0.186160 0.516270 -0.637037
Zn1   Zn    Zn3+2 0.792340 0.208750 0.507670 1.008362
Zn2   Zn    Zn3+2 0.494040 0.500000 0.919480 0.964265
Zn3   Zn    Zn3+2 0.005960 1.000000 0.080520 0.961582
Zn4   Zn    Zn3+2 0.994040 1.000000 0.919480 0.964338
Zn5   Zn    Zn3+2 0.207660 0.791250 0.492330 1.001897
Zn6   Zn    Zn3+2 0.207660 0.208750 0.492330 1.036914
Zn7   Zn    Zn3+2 0.792340 0.791250 0.507670 1.008072
Zn8   Zn    Zn3+2 0.292340 0.708750 0.507670 1.008346
Zn9   Zn    Zn3+2 0.707660 0.291250 0.492330 1.001565
Zn10  Zn    Zn3+2 0.707660 0.708750 0.492330 1.036978
Zn11  Zn    Zn3+2 0.292340 0.291250 0.507670 1.008081
Zn12  Zn    Zn3+2 0.505960 0.500000 0.080520 0.961587

loop_
_geom_bond_atom_site_label_1
_geom_bond_atom_site_label_2
_ccdc_geom_bond_type
C132  C144  A    
C102  H24   S    
C108  O52   D    
C100  H22   S    
C45   O33   A    
C104  H26   S    
C170  C178  A    
C50   C59   A    
C52   C61   A    
C117  H47   S    
C118  H48   S    
C54   C63   A    
C58   C60   A    
C184  C193  A    
C28   C195  A    
C159  C211  A    
C158  O45   A    
C61   C63   A    
C62   C64   A    
C131  C140  A    
C121  O64   D    
C134  C143  A    
C50   C90   A    
C89   C205  S    
C162  C171  A    
C70   C74   A    
C110  O54   D    
C24   C85   A    
C88   C97   A    
C4    C153  A    
C106  O50   D    
C49   C69   A    
C8    C157  A    
C57   C78   A    
O71   Zn11  S    
C134  C146  A    
C11   C20   A    
C37   C142  A    
C12   C150  A    
C40   O28   A    
C116  O59   D    
C129  C152  A    
C86   C90   A    
O13   Zn7   S    
C63   H15   S    
C179  C188  A    
C17   H36   S    
C82   C91   A    
O12   Zn5   S    
C51   C66   A    
C142  C151  A    
C127  O70   D    
C52   C72   A    
C117  O60   D    
C186  C195  A    
C54   C70   A    
C131  C210  A    
C164  C173  A    
C99   H34   S    
C163  C172  A    
O42   Zn2   S    
C14   H32   S    
C173  C182  A    
C20   C146  A    
O40   Zn12  S    
C10   C160  A    
C79   C85   A    
C118  O61   D    
C203  O15   A    
C66   C77   A    
C204  O16   A    
C124  C135  A    
C156  C209  A    
O26   Zn6   S    
C32   C121  S    
C19   C148  A    
C25   C192  A    
C19   H38   S    
O9    Zn1   S    
C8    C17   A    
C56   C59   A    
C107  O51   D    
C45   C163  S    
C80   C88   A    
C25   C114  S    
C33   C139  A    
C14   C149  A    
C34   C140  A    
C159  C167  A    
C16   C151  A    
C84   C93   A    
C160  C168  A    
C48   C67   A    
C205  O17   A    
C31   C120  S    
C58   H20   S    
C86   C95   A    
C115  O58   D    
C24   C77   A    
C172  H56   S    
C107  H29   S    
O11   Zn6   S    
C47   O35   A    
C182  C190  A    
C197  O9    A    
C2    C75   A    
C5    C154  A    
C78   C87   A    
C199  O3    A    
O2    Zn8   S    
C38   C143  A    
C177  H3    S    
C67   C77   A    
C59   H19   S    
O38   Zn4   S    
C133  C142  A    
O34   Zn7   S    
C203  O6    A    
C69   C76   A    
C112  O12   A    
C82   C202  A    
O14   Zn8   S    
C46   C82   A    
C47   C162  S    
C9    H10   S    
C7    C156  A    
C180  O25   A    
C91   C204  S    
C91   C96   A    
C55   C64   A    
C171  C179  A    
C132  C211  A    
C72   C75   A    
C92   C198  S    
C141  C150  A    
C139  C148  A    
O41   Zn2   S    
O31   Zn12  S    
C129  C208  A    
C191  O26   A    
O30   Zn3   S    
C204  O7    A    
C65   C67   A    
C165  C174  A    
O27   Zn3   S    
C200  O13   A    
C93   C197  S    
O23   Zn6   S    
C32   C138  A    
O8    Zn6   S    
C177  C186  A    
O37   Zn4   S    
C105  H27   S    
C27   C194  A    
C180  C186  S    
C7    H8    S    
C33   C122  S    
C31   C137  A    
C35   C100  S    
C169  O24   A    
C21   C188  A    
C37   C126  S    
C132  C141  A    
C83   C101  A    
C43   O42   A    
O72   Zn9   S    
C6    C155  A    
C45   O40   A    
C2    C81   A    
C180  O67   A    
C21   C109  S    
C112  C181  S    
C23   C111  S    
C29   C118  S    
C41   O36   A    
C178  H4    S    
C3    C134  A    
C195  C212  A    
C193  C210  A    
O5    Zn5   S    
C28   C37   A    
C138  C146  A    
C62   H16   S    
O6    Zn1   S    
O16   Zn10  S    
C131  C145  A    
C126  H55   S    
C50   C65   A    
C51   C79   A    
C9    C18   A    
C127  H57   S    
C136  C182  S    
C112  O19   A    
C175  C184  A    
C130  C209  A    
O32   Zn2   S    
C51   C60   A    
C175  H60   S    
C23   C190  A    
C25   C33   A    
C68   C80   A    
C187  C196  A    
C73   C74   A    
C185  C194  A    
C183  C192  A    
C176  C185  A    
C114  H43   S    
C147  O34   A    
C188  C206  A    
C166  C175  A    
C34   C123  S    
C65   C76   A    
C60   H18   S    
C137  C145  A    
C49   C101  A    
C18   H37   S    
C168  C177  A    
C11   C161  A    
C26   C115  S    
O21   Zn10  S    
C201  O5    A    
C198  O10   A    
C181  C189  A    
C115  H44   S    
C22   C110  S    
O67   Zn10  S    
C61   H17   S    
O24   Zn1   S    
C4    C12   A    
C93   C99   A    
C109  O53   D    
O28   Zn4   S    
C81   C89   A    
O10   Zn5   S    
C106  H28   S    
C105  O49   D    
C130  C139  A    
C87   C203  S    
C15   C152  A    
C100  O44   D    
O56   Zn9   S    
C43   C165  S    
C57   C103  S    
C95   C98   A    
C103  O47   D    
C171  H45   S    
O1    Zn1   S    
C90   C106  S    
C155  C208  A    
C136  O20   A    
C53   C57   A    
C74   C202  A    
C43   O31   A    
C96   H1    S    
C44   O32   A    
C17   C145  A    
C36   C141  A    
C5    H6    S    
C10   C19   A    
C11   H13   S    
C199  O11   A    
C46   C54   A    
C22   C189  A    
C5    C14   A    
C10   H11   S    
C178  C187  A    
C143  C152  A    
C125  O68   D    
C120  H50   S    
C42   O37   A    
C176  H2    S    
C44   O43   A    
C116  H46   S    
C71   C73   A    
C16   H35   S    
C124  C150  A    
O3    Zn11  S    
C68   C104  S    
C174  C183  A    
C126  O69   D    
C27   C36   A    
C21   C30   A    
C13   C83   A    
C3    C196  A    
C97   H12   S    
C153  C162  A    
C23   C32   A    
C18   C144  A    
C122  O65   D    
C156  C165  A    
C189  C207  A    
O22   Zn5   S    
C1    O18   A    
O20   Zn11  S    
C94   C200  S    
C192  C209  A    
C3    C161  A    
C128  C149  A    
O4    Zn10  S    
C30   C135  A    
C108  H30   S    
C130  C151  A    
O36   Zn3   S    
C44   C164  S    
C191  O71   A    
C26   C193  A    
C158  C184  S    
C201  O14   A    
C42   C166  S    
C48   C113  A    
C108  C113  S    
C109  H40   S    
C84   C113  A    
C125  H54   S    
C36   C125  S    
O33   Zn2   S    
C40   O39   A    
C64   H14   S    
C38   C127  S    
C35   C81   A    
O45   Zn8   S    
C92   C98   A    
O25   Zn7   S    
O19   Zn8   S    
C83   C92   A    
C46   C102  S    
C39   C170  S    
C28   C117  S    
C173  H58   S    
C66   C69   A    
C30   C119  S    
C9    C159  A    
C110  H41   S    
C41   C167  S    
O18   Zn9   S    
C79   C105  S    
O29   Zn4   S    
O39   Zn3   S    
C194  C211  A    
C26   C34   A    
C129  C138  A    
C15   H33   S    
O7    Zn7   S    
C13   C86   A    
C55   C71   A    
C128  C207  A    
C88   C201  S    
C1    O1    A    
C52   C68   A    
C27   C116  S    
C111  H42   S    
C6    C15   A    
C157  C210  A    
C119  O62   D    
O43   Zn12  S    
C172  C181  A    
C160  C212  A    
C47   O41   A    
C22   C31   A    
C98   H23   S    
C35   C55   A    
C104  O48   D    
C154  C163  A    
C158  O22   A    
C41   O29   A    
C20   H39   S    
C147  O21   A    
C200  O4    A    
C120  O63   D    
C49   C58   A    
C153  C206  A    
C89   C97   A    
O17   Zn11  S    
C29   C38   A    
C128  C137  A    
C136  O23   A    
C85   C94   A    
C123  H53   S    
C13   C76   A    
C103  H25   S    
C12   H31   S    
C87   C96   A    
C133  C148  A    
C161  C170  A    
C190  C208  A    
C135  C144  A    
C102  O46   D    
C56   H21   S    
C39   O38   A    
C42   O30   A    
C147  C183  S    
O35   Zn12  S    
C48   C56   A    
C7    C16   A    
C124  C206  A    
C187  C191  S    
C53   C73   A    
C78   C202  A    
C157  C166  A    
C39   O27   A    
C174  H59   S    
C198  O2    A    
C155  C164  A    
C29   C196  A    
C24   C84   A    
C114  O57   D    
C169  C185  S    
C121  H51   S    
C71   C75   A    
C1    C179  S    
C122  H52   S    
C119  H49   S    
C197  O72   A    
C94   C99   A    
C169  O56   A    
C140  C149  A    
C205  O8    A    
O15   Zn9   S    
C40   C168  S    
C2    C80   A    
C6    H7    S    
C123  O66   D    
C53   C62   A    
C95   C199  S    
C4    H5    S    
C101  C107  S    
C133  C212  A    
C70   C72   A    
C111  O55   D    
C154  C207  A    
C8    H9    S    
C167  C176  A    
