data_str_m9_o5_o16_f0_sra.sym.21
_audit_creation_date              2012-12-11T17:14:03-0500
_audit_creation_method            fapswitch 2.2
_symmetry_space_group_name_H-M    P1
_symmetry_Int_Tables_number       1
_space_group_crystal_system       triclinic
_cell_length_a                    18.27701
_cell_length_b                    7.099334
_cell_length_c                    13.35523
_cell_angle_alpha                 89.999836
_cell_angle_beta                  70.16903
_cell_angle_gamma                 90.000163
_cell_volume                      1630.13711472

loop_
_atom_site_label
_atom_site_type_symbol
_atom_type_description
_atom_site_fract_x
_atom_site_fract_y
_atom_site_fract_z
_atom_type_partial_charge
O1    O     O_R   0.453880 0.506200 0.150010 -0.539719
O2    O     O_R   0.546120 0.006200 0.849990 -0.539719
O3    O     O_R   0.604080 0.177770 0.007280 -0.546100
O4    O     O_R   0.395920 0.677770 0.992720 -0.546101
C1    C     C_R   0.635953 0.344646 0.001845 0.726696
C2    C     C_R   0.364047 0.844646 0.998155 0.726697
O5    O     O_R   0.458010 0.176640 0.159130 -0.560180
O6    O     O_R   0.541990 0.676640 0.840870 -0.560180
O7    O     O_R   0.399010 0.004010 0.002930 -0.532592
O8    O     O_R   0.600990 0.504010 0.997070 -0.532593
C3    C     C_R   0.441581 0.344721 0.200438 0.706094
C4    C     C_R   0.558420 0.844722 0.799562 0.706094
O9    O     O_3   0.480810 0.338440 0.948570 -0.389784
O10   O     O_3   0.519190 0.838440 0.051430 -0.389782
V1    V     V_3+5 0.503560 0.064490 0.009540 1.365187
V2    V     V_3+5 0.496440 0.564490 0.990460 1.365185
C5    C     C_R   0.585659 0.795319 0.511018 0.030574
C6    C     C_R   0.414341 0.295315 0.488983 0.030576
H1    H     H_    0.488472 0.842335 0.656764 0.097928
H2    H     H_    0.511529 0.342323 0.343237 0.097926
H3    H     H_    0.673731 0.645403 0.319244 0.139309
H4    H     H_    0.326265 0.145373 0.680750 0.139306
C7    C     C_R   0.595767 0.847586 0.685080 -0.045865
C8    C     C_R   0.404234 0.347586 0.314920 -0.045862
C9    C     C_R   0.955337 0.927110 0.375970 -0.167035
C10   C     C_R   0.044671 0.427190 0.624035 -0.167021
C11   C     C_R   0.923807 0.946726 0.485757 -0.127255
C12   C     C_R   0.076208 0.446877 0.514253 -0.127245
C13   C     C_R   0.845391 0.908648 0.538844 -0.170121
C14   C     C_R   0.154622 0.408787 0.461165 -0.170130
C15   C     C_R   0.796792 0.843700 0.482909 0.088002
C16   C     C_R   0.203211 0.343750 0.517093 0.087998
C17   C     C_R   0.831042 0.810496 0.371573 0.071850
C18   C     C_R   0.168957 0.310501 0.628424 0.071850
C19   C     C_R   0.714573 0.822822 0.532170 0.054590
C20   C     C_R   0.285428 0.322846 0.467831 0.054589
C21   C     C_R   0.668305 0.775583 0.468727 0.091523
C22   C     C_R   0.331694 0.275585 0.531273 0.091522
C23   C     C_R   0.705957 0.709400 0.365009 -0.224450
C24   C     C_R   0.294040 0.209383 0.634987 -0.224448
C25   C     C_R   0.785381 0.732927 0.315929 -0.213160
C26   C     C_R   0.214615 0.232899 0.684063 -0.213160
C27   C     C_R   0.676507 0.850446 0.641952 -0.249524
C28   C     C_R   0.323495 0.350460 0.358049 -0.249530
C29   C     C_R   0.550840 0.827996 0.620385 -0.176308
C30   C     C_R   0.449161 0.327990 0.379616 -0.176306
C31   C     C_R   0.909715 0.860368 0.318045 -0.079588
C32   C     C_R   0.090285 0.360381 0.681954 -0.079606
H5    H     H_    0.707807 0.867667 0.696758 0.104154
H6    H     H_    0.292193 0.367670 0.303243 0.104159
H7    H     H_    0.015470 0.966513 0.335622 0.110181
H8    H     H_    0.984540 0.466611 0.664385 0.110185
H9    H     H_    0.824341 0.936836 0.623057 0.109266
H10   H     H_    0.175682 0.437055 0.376961 0.109270
H11   H     H_    0.959745 0.998571 0.529703 0.130184
H12   H     H_    0.040278 0.498799 0.470313 0.130188
H13   H     H_    0.810080 0.693184 0.233095 0.137814
H14   H     H_    0.189913 0.193129 0.766893 0.137820
C33   C     C_1   0.216392 0.858630 0.000122 -0.188303
C34   C     C_1   0.783608 0.358629 0.999877 -0.188304
C35   C     C_1   0.283648 0.852777 0.998955 -0.191098
C36   C     C_1   0.716352 0.352777 0.001045 -0.191097
O11   O     O_R   0.899030 0.205490 0.002790 -0.534320
O12   O     O_R   0.100970 0.705490 0.997210 -0.534319
O13   O     O_R   0.042000 0.536370 0.840840 -0.539498
O14   O     O_R   0.958000 0.036370 0.159160 -0.539497
C37   C     C_R   0.057257 0.367867 0.798616 0.681629
C38   C     C_R   0.942743 0.867865 0.201383 0.681628
O15   O     O_R   0.895930 0.535070 0.992690 -0.542381
O16   O     O_R   0.104070 0.035070 0.007310 -0.542380
O17   O     O_R   0.953870 0.707520 0.150040 -0.544775
O18   O     O_R   0.046130 0.207520 0.849960 -0.544777
C39   C     C_R   0.864078 0.366640 0.998828 0.721192
C40   C     C_R   0.135922 0.866641 0.001172 0.721189
O19   O     O_3   0.019200 0.374340 0.051340 -0.375349
O20   O     O_3   0.980800 0.874340 0.948660 -0.375352
V3    V     V_3+5 0.996440 0.648350 0.990470 1.425409
V4    V     V_3+5 0.003560 0.148350 0.009530 1.425413
C41   C     C_R   0.535842 0.807917 0.442272 0.104613
C42   C     C_R   0.565534 0.890049 0.340731 -0.236046
C43   C     C_R   0.520292 0.904999 0.276470 -0.089901
C44   C     C_R   0.442457 0.849137 0.313769 -0.024814
C45   C     C_R   0.409987 0.780057 0.416959 -0.137939
C46   C     C_R   0.456228 0.758797 0.480700 -0.111870
H15   H     H_    0.623398 0.949442 0.311087 0.121022
H16   H     H_    0.546709 0.966039 0.198949 0.164418
H17   H     H_    0.406859 0.862676 0.263901 0.123640
H18   H     H_    0.349150 0.741057 0.447362 0.124399
H19   H     H_    0.428789 0.704896 0.559846 0.108290
C47   C     C_R   0.464156 0.307911 0.557732 0.104610
C48   C     C_R   0.434462 0.390040 0.659275 -0.236044
C49   C     C_R   0.479704 0.404996 0.723536 -0.089899
C50   C     C_R   0.557540 0.349142 0.686237 -0.024812
C51   C     C_R   0.590010 0.280062 0.583047 -0.137942
C52   C     C_R   0.543771 0.258799 0.519304 -0.111867
H20   H     H_    0.376597 0.449428 0.688918 0.121024
H21   H     H_    0.453286 0.466036 0.801058 0.164418
H22   H     H_    0.593137 0.362685 0.736105 0.123645
H23   H     H_    0.650848 0.241067 0.552643 0.124399
H24   H     H_    0.571211 0.204901 0.440158 0.108289

loop_
_geom_bond_atom_site_label_1
_geom_bond_atom_site_label_2
_ccdc_geom_bond_type
O14   C38   A    
C50   C51   A    
C7    C29   A    
C11   C13   A    
O12   V3    S    
C34   C39   S    
O15   V3    S    
O1    C3    A    
O2    C4    A    
C26   H14   S    
C2    O7    A    
C43   C44   A    
C12   H12   S    
C47   C52   A    
C23   C25   A    
O5    C3    A    
C14   H10   S    
C4    C7    S    
C16   C20   A    
C2    C35   S    
C19   C21   A    
C5    C29   A    
C41   C46   A    
C11   H11   S    
O16   V4    S    
C44   H17   S    
C3    C8    S    
C5    C41   S    
C7    C27   A    
C34   C36   T    
C37   O18   A    
O18   V4    S    
C48   H20   S    
O13   C37   A    
C18   C26   A    
O16   C40   A    
C15   C17   A    
O15   C39   A    
C14   C16   A    
C19   C27   A    
C9    C31   A    
C43   H16   S    
C10   C32   A    
C24   C26   A    
C45   H18   S    
O6    V2    S    
C6    C30   A    
C49   H21   S    
O14   V4    S    
C33   C35   T    
O13   V3    S    
C6    C47   S    
O20   V3    S    
O4    C2    A    
C48   C49   A    
C52   H24   S    
C27   H5    S    
O11   C39   A    
C16   C18   A    
O4    V2    S    
C9    H7    S    
C42   H15   S    
C10   H8    S    
C45   C46   A    
H3    C23   S    
O6    C4    A    
H4    C24   S    
O1    V2    S    
C5    C21   A    
O2    V1    S    
O19   V3    S    
C33   C40   S    
C17   C31   A    
C15   C19   A    
C20   C28   A    
C18   C32   A    
C46   H19   S    
C20   C22   A    
C31   C38   S    
O17   V3    S    
O3    V1    S    
C28   H6    S    
O20   V4    S    
C42   C43   A    
O3    C1    A    
H1    C29   S    
C9    C11   A    
C10   C12   A    
C17   C25   A    
C12   C14   A    
C6    C22   A    
C8    C30   A    
C1    O8    A    
C13   C15   A    
O8    V2    S    
C22   C24   A    
C47   C48   A    
C13   H9    S    
C51   H23   S    
C38   O17   A    
C8    C28   A    
O5    V1    S    
C49   C50   A    
C1    C36   S    
C32   C37   S    
O7    V1    S    
C51   C52   A    
O19   V4    S    
C25   H13   S    
C41   C42   A    
C21   C23   A    
C44   C45   A    
O9    V2    S    
O12   C40   A    
O10   V1    S    
C50   H22   S    
H2    C30   S    
O11   V4    S    
