data_str_m2_o11_o17_f0_pcu.sym.154
_audit_creation_date              2012-12-10T16:54:30-0500
_audit_creation_method            fapswitch 2.2
_symmetry_space_group_name_H-M    P1
_symmetry_Int_Tables_number       1
_space_group_crystal_system       triclinic
_cell_length_a                    15.101977
_cell_length_b                    10.919601
_cell_length_c                    9.742667
_cell_angle_alpha                 88.486511
_cell_angle_beta                  89.152763
_cell_angle_gamma                 90.407469
_cell_volume                      1605.85815085

loop_
_atom_site_label
_atom_site_type_symbol
_atom_type_description
_atom_site_fract_x
_atom_site_fract_y
_atom_site_fract_z
_atom_type_partial_charge
C1    C     C_R   0.506029 0.265897 0.501810 0.733983
C2    C     C_R   0.905145 0.587425 0.591853 -0.076427
C3    C     C_R   0.955973 0.396263 0.288278 -0.222628
C4    C     C_R   0.048082 0.395721 0.288264 0.123736
C5    C     C_R   0.093398 0.452445 0.394729 0.159508
C6    C     C_R   0.045871 0.511864 0.500139 -0.067663
C7    C     C_R   0.091179 0.561663 0.612164 -0.113297
C8    C     C_R   0.043527 0.628716 0.711397 0.435625
C9    C     C_R   0.952343 0.652255 0.692474 0.091484
C10   C     C_R   0.185564 0.451249 0.397089 -0.303855
C11   C     C_R   0.231222 0.498842 0.506852 -0.214929
C12   C     C_R   0.328586 0.499106 0.501776 0.819797
C13   C     C_R   0.183658 0.543522 0.620984 0.462369
C14   C     C_2   0.532574 0.934921 0.400849 0.430732
C15   C     C_2   0.483264 0.866497 0.491511 0.309522
C16   C     C_2   0.519582 0.068774 0.395318 -0.339141
C17   C     C_2   0.525290 0.135449 0.508549 0.377673
C18   C     C_2   0.466172 0.412496 0.925871 0.569131
C19   C     C_2   0.447309 0.434175 0.075757 0.198649
C20   C     C_R   0.496223 0.734197 0.498068 0.727376
C21   C     C_R   0.670969 0.502643 0.498519 0.855797
C22   C     C_R   0.811495 0.590158 0.584363 0.424384
C23   C     C_R   0.767575 0.512660 0.493436 -0.292035
C24   C     C_R   0.815412 0.448089 0.394333 0.393616
C25   C     C_R   0.907910 0.454733 0.391588 0.013510
C26   C     C_R   0.952874 0.517636 0.495261 -0.107669
Cu1   Cu    Cu3+1 0.500020 0.500020 0.638630 1.020043
Cu2   Cu    Cu3+1 0.499980 0.499980 0.361370 0.953209
H1    H     H_    0.506639 0.111965 0.295973 0.126277
H2    H     H_    0.508155 0.583223 0.888983 0.201965
H3    H     H_    0.922399 0.349856 0.206762 0.184361
H4    H     H_    0.222304 0.408649 0.315653 0.199922
N1    N     N_2   0.499020 0.498660 0.846910 -0.310340
N2    N     N_2   0.499000 0.498630 0.153040 -0.161544
O1    O     O_R   0.500020 0.321960 0.617040 -0.505245
O2    O     O_R   0.499980 0.321920 0.382900 -0.627252
O3    O     O_R   0.370270 0.499990 0.617090 -0.534299
O4    O     O_R   0.370240 0.499950 0.382940 -0.603119
O5    O     O_R   0.500020 0.678080 0.617100 -0.574061
O6    O     O_R   0.499980 0.678040 0.382960 -0.548873
O7    O     O_R   0.629760 0.500050 0.617060 -0.549646
O8    O     O_R   0.629730 0.500010 0.382910 -0.551838
O9    O     O_3   0.762210 0.662972 0.670843 -0.528021
C27   C     C_3   0.732752 0.766994 0.595257 -0.258858
H5    H     H_    0.680477 0.742610 0.522017 0.161468
H6    H     H_    0.787722 0.814977 0.537969 0.119563
H7    H     H_    0.703649 0.832520 0.668010 0.189142
O10   O     O_3   0.422234 0.922286 0.578459 -0.565017
C28   C     C_3   0.341880 0.855366 0.587688 -0.264588
H8    H     H_    0.347859 0.775202 0.659378 0.212432
H9    H     H_    0.319162 0.825959 0.485280 0.123655
H10   H     H_    0.289957 0.915454 0.630353 0.199579
O11   O     O_3   0.547120 0.080992 0.633826 -0.527317
C29   C     C_3   0.636938 0.105413 0.660244 -0.381721
H11   H     H_    0.649471 0.205084 0.671749 0.168451
H12   H     H_    0.680877 0.068208 0.579020 0.135131
H13   H     H_    0.654284 0.058883 0.758688 0.192464
O12   O     O_3   0.434207 0.307306 0.867015 -0.552360
C30   C     C_3   0.474119 0.204015 0.929563 -0.227976
H14   H     H_    0.450241 0.188738 0.037069 0.140052
H15   H     H_    0.547734 0.211426 0.925861 0.140949
H16   H     H_    0.455200 0.121784 0.872041 0.238436
N3    N     N_3   0.366075 0.383441 0.129532 -0.601847
H17   H     H_    0.378269 0.329564 0.217047 0.256736
H18   H     H_    0.324563 0.456224 0.152568 0.226911
N4    N     N_3   0.581994 0.527333 0.096710 -0.534598
H19   H     H_    0.602972 0.608524 0.140795 0.279731
H20   H     H_    0.625360 0.458175 0.127861 0.271320
O13   O     O_3   0.771474 0.383442 0.295152 -0.565876
C31   C     C_3   0.756385 0.262645 0.345004 -0.355432
H21   H     H_    0.819504 0.215041 0.368552 0.154051
H22   H     H_    0.722744 0.211093 0.264088 0.181467
H23   H     H_    0.712038 0.260897 0.436938 0.139341
N5    N     N_3   0.095328 0.333562 0.182298 -0.618615
H24   H     H_    0.074958 0.241802 0.185179 0.224264
H25   H     H_    0.077217 0.371857 0.087515 0.202595
O14   O     O_3   0.227685 0.569713 0.740206 -0.545002
C32   C     C_3   0.227278 0.462378 0.824777 -0.194902
H26   H     H_    0.158900 0.428626 0.848140 0.121021
H27   H     H_    0.258717 0.484000 0.923265 0.181522
H28   H     H_    0.265658 0.387454 0.777592 0.191107
O15   O     O_3   0.088233 0.682393 0.818201 -0.547121
C33   C     C_3   0.063145 0.625636 0.945798 -0.261405
H29   H     H_    0.024869 0.538406 0.937468 0.126497
H30   H     H_    0.024050 0.689918 0.008213 0.163863
H31   H     H_    0.123753 0.605186 0.004769 0.190162
N6    N     N_3   0.908575 0.745046 0.770718 -0.509027
H32   H     H_    0.895720 0.817641 0.702216 0.209476
H33   H     H_    0.949873 0.784360 0.842113 0.232919
O16   O     O_3   0.586837 0.876235 0.305820 -0.593821
C34   C     C_3   0.658058 0.951146 0.259016 -0.361416
H34   H     H_    0.694692 0.990320 0.346013 0.142304
H35   H     H_    0.634810 0.024353 0.187116 0.169785
H36   H     H_    0.705295 0.893820 0.201278 0.199715

loop_
_geom_bond_atom_site_label_1
_geom_bond_atom_site_label_2
_ccdc_geom_bond_type
N4    H20   S    
N6    H32   S    
N3    H18   S    
N2    N4    S    
C7    C8    A    
O11   C29   S    
Cu1   N1    S    
N5    H25   S    
C8    O15   S    
C5    C6    A    
C20   O6    A    
C32   H27   S    
Cu2   O6    S    
C18   C19   S    
C12   O3    A    
C14   O16   S    
C18   O12   S    
C22   O9    S    
C19   N3    S    
C8    C9    A    
C28   H9    S    
C2    C22   A    
C23   C24   A    
C31   H21   S    
C4    N5    S    
C27   H7    S    
N4    H19   S    
Cu2   N2    S    
C30   H14   S    
C15   O10   S    
C27   H6    S    
C24   O13   S    
C13   O14   S    
C15   C20   S    
C29   H12   S    
C30   H15   S    
N5    H24   S    
C3    C25   A    
C24   C25   A    
Cu1   O5    S    
C34   H34   S    
C20   O5    A    
C32   H26   S    
C16   C17   D    
Cu1   O1    S    
C16   H1    S    
O14   C32   S    
N3    H17   S    
O9    C27   S    
C34   H35   S    
Cu1   O7    S    
C33   H29   S    
Cu2   O4    S    
C28   H10   S    
C31   H23   S    
C2    C26   A    
C3    H3    S    
C21   O7    A    
O10   C28   S    
C33   H30   S    
C28   H8    S    
N6    H33   S    
C14   C16   S    
O12   C30   S    
C3    C4    A    
C17   O11   S    
C27   H5    S    
C1    O1    A    
C29   H11   S    
C30   H16   S    
H2    N1    S    
C14   C15   D    
C4    C5    A    
C19   N2    D    
C11   C12   S    
C6    C7    A    
C1    C17   S    
C21   C23   S    
C25   C26   A    
C5    C10   A    
C9    N6    S    
C34   H36   S    
C11   C13   A    
C32   H28   S    
O16   C34   S    
C6    C26   A    
Cu1   O3    S    
Cu2   O8    S    
C12   O4    A    
O13   C31   S    
C18   N1    D    
C10   C11   A    
C21   O8    A    
C10   H4    S    
C7    C13   A    
C33   H31   S    
Cu2   O2    S    
O15   C33   S    
Cu1   Cu2   S    
C22   C23   A    
C31   H22   S    
C2    C9    A    
C1    O2    A    
C29   H13   S    
