data_str_m3_o14_o16_f0_pcu.sym.244
_audit_creation_date              2013-03-05T15:52:44-0500
_audit_creation_method            fapswitch 2.2
_symmetry_space_group_name_H-M    P1
_symmetry_Int_Tables_number       1
_space_group_crystal_system       triclinic
_cell_length_a                    9.934111
_cell_length_b                    10.739424
_cell_length_c                    13.083308
_cell_angle_alpha                 91.024158
_cell_angle_beta                  71.602684
_cell_angle_gamma                 90.787911
_cell_volume                      1324.21512495

loop_
_atom_site_label
_atom_site_type_symbol
_atom_site_description
_atom_site_fract_x
_atom_site_fract_y
_atom_site_fract_z
_atom_type_partial_charge
O1    O     O_R   0.385310 0.683220 0.500000 -0.650353
O2    O     O_R   0.614640 0.683250 0.500010 -0.640269
C1    C     C_R   0.504609 0.738928 0.490293 0.882675
O3    O     O_R   0.328400 0.499950 0.653610 -0.569449
O4    O     O_R   0.557730 0.499970 0.653620 -0.654551
C2    C     C_R   0.424112 0.473484 0.699217 0.942664
Zn1   Zn    Zn3+2 0.346880 0.499980 0.499990 1.020762
Zn2   Zn    Zn3+2 0.653120 0.500020 0.500010 0.969703
O5    O     O_R   0.385360 0.316750 0.499990 -0.620767
O6    O     O_R   0.614690 0.316780 0.500000 -0.646351
O7    O     O_R   0.442270 0.500030 0.346380 -0.580756
O8    O     O_R   0.671600 0.500050 0.346390 -0.580712
C3    C     C_R   0.496069 0.259649 0.503702 0.885519
C4    C     C_R   0.577748 0.508204 0.295927 0.901483
C5    C     C_R   0.800812 0.465923 0.006609 -0.205621
H1    H     H_    0.836117 0.369443 0.810908 0.221931
H2    H     H_    0.910698 0.462787 0.956553 0.217869
C6    C     C_R   0.622870 0.510736 0.177470 -0.289453
C7    C     C_R   0.242744 0.383965 0.866345 0.447923
C8    C     C_R   0.202649 0.374993 0.978618 -0.140951
C9    C     C_R   0.299959 0.403083 0.032895 -0.129798
C10   C     C_R   0.443491 0.426069 0.974522 0.099714
C11   C     C_R   0.485220 0.413089 0.862115 0.048604
C12   C     C_R   0.549308 0.451944 0.023450 -0.005823
C13   C     C_R   0.693615 0.433771 0.962948 0.073845
C14   C     C_R   0.729079 0.391172 0.856837 -0.145854
C15   C     C_R   0.626656 0.381680 0.806402 -0.147034
C16   C     C_R   0.516668 0.504445 0.127132 0.170385
C17   C     C_R   0.767033 0.507379 0.113103 0.371528
C18   C     C_R   0.382128 0.423386 0.809811 -0.245426
H3    H     H_    0.265856 0.391290 0.118931 0.201608
H4    H     H_    0.097469 0.342885 0.024229 0.212874
H5    H     H_    0.658799 0.345937 0.724479 0.173742
H6    H     H_    0.694117 0.891057 0.532599 0.195442
C19   C     C_R   0.318681 0.873240 0.392189 -0.191000
H7    H     H_    0.347420 0.783360 0.353270 0.216114
C20   C     C_R   0.195893 0.929534 0.385349 0.422971
C21   C     C_R   0.156380 0.044703 0.434803 -0.299258
H8    H     H_    0.057304 0.086797 0.436344 0.180308
C22   C     C_R   0.245071 0.107892 0.481965 -0.177729
H9    H     H_    0.201401 0.191929 0.524728 0.228018
C23   C     C_R   0.378147 0.058034 0.479179 0.127520
C24   C     C_R   0.403487 0.933064 0.448046 0.004246
C25   C     C_R   0.510400 0.871275 0.477168 -0.086190
C26   C     C_R   0.610437 0.937314 0.511552 -0.080965
H10   H     H_    0.684067 0.113559 0.544971 0.171393
C27   C     C_R   0.602005 0.064047 0.521958 -0.177374
C28   C     C_R   0.487597 0.125646 0.505985 -0.072180
H11   H     H_    0.918814 0.350682 0.389785 0.162733
C29   C     C_R   0.807076 0.667568 0.635762 -0.248191
H12   H     H_    0.698847 0.670839 0.640200 0.244308
C30   C     C_R   0.849831 0.750742 0.703482 0.301231
C31   C     C_R   0.989861 0.747994 0.703659 -0.237719
H13   H     H_    0.025795 0.809741 0.756233 0.219235
C32   C     C_R   0.085372 0.664631 0.637412 -0.163226
H14   H     H_    0.188551 0.665665 0.645577 0.227064
C33   C     C_R   0.045761 0.582204 0.566901 0.233984
C34   C     C_R   0.901680 0.582803 0.566534 0.129135
N1    N     N_R   0.856860 0.501200 0.500990 -0.124350
C35   C     C_R   0.952695 0.418119 0.439191 -0.023711
H15   H     H_    0.169506 0.352998 0.387487 0.133114
C36   C     C_R   0.095864 0.418873 0.438464 -0.008441
N2    N     N_R   0.142450 0.501280 0.501020 -0.097896
S1    S     S_3+6 0.903483 0.577833 0.154714 0.104464
O9    O     O_2   0.960628 0.485214 0.214770 -0.321949
O10   O     O_2   0.022612 0.620781 0.058662 -0.216275
O11   O     O_3   0.838064 0.702545 0.233692 -0.455062
H16   H     H_    0.840398 0.681360 0.306378 0.414327
S2    S     S_3+6 0.087925 0.853362 0.319754 0.074629
O12   O     O_2   0.071058 0.719233 0.351916 -0.244811
O13   O     O_2   0.944213 0.912729 0.349899 -0.329582
O14   O     O_3   0.165026 0.861003 0.185713 -0.387450
H17   H     H_    0.179143 0.951175 0.170509 0.350937
N3    N     N_R   0.750601 0.836767 0.772777 0.222007
O15   O     O_R   0.618910 0.838259 0.774456 -0.378370
O16   O     O_R   0.791208 0.914963 0.834595 -0.353409
N4    N     N_R   0.398616 0.588075 0.163338 0.225784
O17   O     O_R   0.281700 0.556228 0.236979 -0.332066
O18   O     O_R   0.403612 0.692460 0.113344 -0.281805
S3    S     S_3+6 0.136815 0.307775 0.798358 -0.023531
O19   O     O_2   0.080247 0.400626 0.738446 -0.363664
O20   O     O_2   0.227351 0.215522 0.719629 -0.329873
O21   O     O_3   0.001430 0.231114 0.886015 -0.576439
H18   H     H_    0.963397 0.174539 0.840931 0.403889

loop_
_geom_bond_atom_site_label_1
_geom_bond_atom_site_label_2
_geom_bond_distance
_ccdc_geom_bond_type
C32   H14   1.063444 S    
C20   S2    1.757236 S    
C4    C6    1.471814 S    
C7    C8    1.400111 A    
N4    O17   1.299512 A    
C15   H5    1.082014 S    
Zn1   O7    1.932588 S    
C9    H3    1.077536 S    
C14   C15   1.378265 A    
C36   N2    1.367175 A    
H11   C35   1.081434 S    
N3    O16   1.301699 A    
C19   C20   1.397324 A    
C30   N3    1.441592 S    
S2    O12   1.500203 D    
O3    Zn1   1.959682 S    
Zn2   N1    2.027922 S    
O4    C2    1.301758 A    
O7    C4    1.301085 A    
C5    C13   1.395121 A    
C35   C36   1.419202 A    
S2    O13   1.503619 D    
O5    C3    1.281126 A    
C27   C28   1.395909 A    
C29   C30   1.400734 A    
C33   N2    1.376386 A    
C11   C15   1.406063 A    
C19   C24   1.418991 A    
C26   C27   1.366489 A    
C17   S1    1.768938 S    
N1    C35   1.366712 A    
C9    C10   1.409607 A    
C7    S3    1.763286 S    
S3    O21   1.682727 S    
C5    C17   1.392447 A    
C31   C32   1.389069 A    
H1    C14   1.069904 S    
C1    C25   1.432907 S    
N3    O15   1.301784 A    
O11   H16   0.989164 S    
C29   C34   1.410334 A    
S1    O11   1.683594 S    
C6    C16   1.409396 A    
C12   C13   1.416210 A    
S3    O20   1.501584 D    
C6    C17   1.414406 A    
O14   H17   0.991246 S    
C34   N1    1.380235 A    
C31   H13   1.082803 S    
O1    C1    1.291043 A    
C19   H7    1.082011 S    
S1    O10   1.503163 D    
S2    O14   1.680601 S    
C24   C25   1.413292 A    
C11   C18   1.406251 A    
C20   C21   1.388139 A    
C3    C28   1.440716 S    
O21   H18   0.990637 S    
Zn2   O8    1.959683 S    
C29   H12   1.059313 S    
N4    O18   1.300463 A    
H6    C26   1.083680 S    
C23   C28   1.429090 A    
C30   C31   1.392531 A    
C16   N4    1.438567 S    
Zn1   N2    2.026857 S    
O3    C2    1.308620 A    
C22   H9    1.074818 S    
C2    C18   1.482484 S    
O8    C4    1.306011 A    
C32   C33   1.407066 A    
C10   C12   1.415050 A    
C23   C24   1.398416 A    
C25   C26   1.394409 A    
C8    H4    1.081953 S    
C5    H2    1.081954 S    
H10   C27   1.084086 S    
O1    Zn1   1.999425 S    
O2    Zn2   2.009724 S    
C12   C16   1.401148 A    
S3    O19   1.498643 D    
O6    C3    1.308648 A    
O4    Zn2   1.932588 S    
S1    O9    1.501345 D    
O2    C1    1.294955 A    
C13   C14   1.390599 A    
C21   C22   1.388981 A    
C33   C34   1.432942 A    
C21   H8    1.082992 S    
C22   C23   1.422698 A    
H15   C36   1.081613 S    
Zn1   O5    2.009725 S    
C8    C9    1.395487 A    
Zn2   O6    1.999426 S    
C10   C11   1.401265 A    
C7    C18   1.411455 A    
