data_str_m9_o25_o25_f0_sra.sym.36
_audit_creation_date              2012-12-11T16:12:47-0500
_audit_creation_method            fapswitch 2.2
_symmetry_space_group_name_H-M    P1
_symmetry_Int_Tables_number       1
_space_group_crystal_system       triclinic
_cell_length_a                    6.940225
_cell_length_b                    21.217132
_cell_length_c                    23.650719
_cell_angle_alpha                 90.0
_cell_angle_beta                  90.000052
_cell_angle_gamma                 89.939574
_cell_volume                      3482.60593114

loop_
_atom_site_label
_atom_site_type_symbol
_atom_type_description
_atom_site_fract_x
_atom_site_fract_y
_atom_site_fract_z
_atom_type_partial_charge
O1    O     O_R   0.615270 0.806540 0.192260 -0.534509
O2    O     O_R   0.384730 0.193460 0.807740 -0.534094
O3    O     O_R   0.384730 0.193460 0.692260 -0.534509
O4    O     O_R   0.615270 0.806540 0.307740 -0.534094
O5    O     O_R   0.115270 0.693460 0.307740 -0.535618
O6    O     O_R   0.884730 0.306540 0.692260 -0.535653
O7    O     O_R   0.884730 0.306540 0.807740 -0.535618
O8    O     O_R   0.115270 0.693460 0.192260 -0.535652
O9    O     O_R   0.285500 0.813970 0.307340 -0.537778
O10   O     O_R   0.714500 0.186030 0.692660 -0.537646
O11   O     O_R   0.714500 0.186030 0.807340 -0.537778
O12   O     O_R   0.285500 0.813970 0.192660 -0.537646
O13   O     O_R   0.785500 0.686030 0.192660 -0.536697
O14   O     O_R   0.214500 0.313970 0.807340 -0.536392
O15   O     O_R   0.214500 0.313970 0.692660 -0.536697
O16   O     O_R   0.785500 0.686030 0.307340 -0.536391
C1    C     C_R   0.454200 0.829090 0.326841 0.724805
C2    C     C_R   0.545657 0.170754 0.673247 0.723861
C3    C     C_R   0.545800 0.170910 0.826841 0.724804
C4    C     C_R   0.454343 0.829246 0.173247 0.723861
C5    C     C_R   0.954383 0.670569 0.173423 0.724898
C6    C     C_R   0.045546 0.329173 0.826770 0.725347
C7    C     C_R   0.045616 0.329430 0.673423 0.724897
C8    C     C_R   0.954453 0.670827 0.326770 0.725347
O17   O     O_3   0.448760 0.710460 0.250000 -0.366084
O18   O     O_3   0.551240 0.289540 0.750000 -0.366084
O19   O     O_3   0.948760 0.789540 0.250000 -0.365844
O20   O     O_3   0.051240 0.210460 0.750000 -0.365844
V1    V     V_3+5 0.173900 0.757330 0.250000 1.436541
V2    V     V_3+5 0.826100 0.242670 0.750000 1.436543
V3    V     V_3+5 0.673900 0.742670 0.250000 1.441302
V4    V     V_3+5 0.326100 0.257330 0.750000 1.441303
C9    C     C_3   0.053407 0.531180 0.547261 0.515780
C10   C     C_3   0.951403 0.471241 0.454551 0.505599
C11   C     C_3   0.946609 0.468817 0.047263 0.515784
C12   C     C_3   0.048573 0.528760 0.954551 0.505606
C13   C     C_3   0.446591 0.973677 0.952721 0.519290
C14   C     C_3   0.558202 0.027276 0.047688 0.518195
C15   C     C_3   0.553423 0.026322 0.452723 0.519289
C16   C     C_3   0.441792 0.972723 0.547689 0.518195
C17   C     C_3   0.868564 0.545676 0.513320 -0.272087
C18   C     C_3   0.136376 0.456855 0.488502 -0.275285
C19   C     C_3   0.131447 0.454327 0.013317 -0.272071
C20   C     C_3   0.863606 0.543141 0.988506 -0.275228
C21   C     C_3   0.317228 0.981219 0.005388 -0.249348
C22   C     C_3   0.687872 0.019715 0.995030 -0.276442
C23   C     C_3   0.682778 0.018777 0.505391 -0.249334
C24   C     C_3   0.312131 0.980286 0.495028 -0.276438
H1    H     H_    0.762365 0.583041 0.523673 0.127076
H2    H     H_    0.244966 0.420120 0.478286 0.127134
H3    H     H_    0.237660 0.416965 0.023668 0.127077
H4    H     H_    0.755012 0.579875 0.978291 0.127139
H5    H     H_    0.166256 0.964464 0.009104 0.134030
H6    H     H_    0.838615 0.036197 0.990157 0.133931
H7    H     H_    0.833750 0.035530 0.509110 0.134031
H8    H     H_    0.161386 0.963806 0.490154 0.133933
H9    H     H_    0.686225 0.450696 0.515290 0.131391
H10   H     H_    0.317874 0.551920 0.485903 0.132908
H11   H     H_    0.313763 0.549311 0.015286 0.131376
H12   H     H_    0.682132 0.448071 0.985909 0.132903
H13   H     H_    0.296430 0.092359 0.020839 0.138163
H14   H     H_    0.712479 0.908955 0.981539 0.130916
H15   H     H_    0.703560 0.907636 0.520842 0.138163
H16   H     H_    0.287538 0.091046 0.481538 0.130923
C25   C     C_1   0.964913 0.625202 0.372380 -0.185104
C26   C     C_1   0.035923 0.375823 0.628402 -0.187529
C27   C     C_1   0.035086 0.374799 0.872380 -0.185104
C28   C     C_1   0.964077 0.624175 0.128403 -0.187531
C29   C     C_1   0.464488 0.875137 0.127785 -0.187460
C30   C     C_1   0.536532 0.125394 0.872548 -0.186366
C31   C     C_1   0.535512 0.124862 0.627786 -0.187459
C32   C     C_1   0.463470 0.874606 0.372549 -0.186367
C33   C     C_3   0.176401 0.528881 0.492844 -0.266670
C34   C     C_3   0.828259 0.473649 0.508911 -0.276105
C35   C     C_3   0.823600 0.471113 0.992848 -0.266688
C36   C     C_3   0.171733 0.526355 0.008908 -0.276158
C37   C     C_3   0.617888 0.950298 0.989183 -0.303913
C38   C     C_3   0.387264 0.050568 0.011511 -0.286871
C39   C     C_3   0.382123 0.049702 0.489183 -0.303922
C40   C     C_3   0.612732 0.949429 0.511514 -0.286879
C41   C     C_3   0.990515 0.542220 0.458472 0.062123
C42   C     C_3   0.014027 0.460194 0.543285 0.059847
C43   C     C_3   0.009480 0.457780 0.958472 0.062116
C44   C     C_3   0.985971 0.539805 0.043286 0.059847
C45   C     C_3   0.489101 0.958933 0.042208 0.064594
C46   C     C_3   0.515304 0.042048 0.958441 0.061700
C47   C     C_3   0.510902 0.041065 0.542210 0.064597
C48   C     C_3   0.484701 0.957951 0.458441 0.061697
C49   C     C_1   0.975856 0.587557 0.410959 0.012236
C50   C     C_1   0.026749 0.414203 0.590358 0.008106
C51   C     C_1   0.024141 0.412443 0.910958 0.012232
C52   C     C_1   0.973250 0.585795 0.090359 0.008102
C53   C     C_1   0.475022 0.913088 0.089406 0.009450
C54   C     C_1   0.527656 0.087726 0.911144 0.010096
C55   C     C_1   0.524979 0.086910 0.589407 0.009450
C56   C     C_1   0.472347 0.912273 0.411144 0.010092
O21   O     O_3   0.104665 0.560167 0.598835 -0.568230
C57   C     C_3   0.150776 0.624472 0.590492 0.071930
H17   H     H_    0.073283 0.652309 0.623166 0.142875
H18   H     H_    0.104779 0.643809 0.548693 0.101079
C58   C     C_3   0.367662 0.634039 0.598390 -0.281353
H19   H     H_    0.410794 0.617296 0.641095 0.209979
H20   H     H_    0.447184 0.605824 0.566520 0.184087
C59   C     C_3   0.423801 0.703221 0.592131 -0.871681
H21   H     H_    0.380164 0.721357 0.549959 0.230704
H22   H     H_    0.582441 0.708111 0.596419 0.234595
H23   H     H_    0.353654 0.731832 0.625616 0.230266
O22   O     O_3   0.899041 0.442039 0.403200 -0.566104
C60   C     C_3   0.865694 0.377295 0.412712 0.075022
H24   H     H_    0.735631 0.370810 0.439645 0.113767
H25   H     H_    0.992115 0.354575 0.433444 0.111232
C61   C     C_3   0.831665 0.344621 0.356044 -0.251649
H26   H     H_    0.703953 0.365821 0.334952 0.202125
H27   H     H_    0.959315 0.351655 0.328362 0.203120
C62   C     C_3   0.797974 0.274094 0.363884 -0.892841
H28   H     H_    0.924709 0.251781 0.384451 0.235410
H29   H     H_    0.775611 0.251601 0.322013 0.234292
H30   H     H_    0.668278 0.265929 0.390400 0.233629
O23   O     O_3   0.895375 0.439828 0.098838 -0.568231
C63   C     C_3   0.849256 0.375524 0.090494 0.071927
H31   H     H_    0.926755 0.347685 0.123166 0.142875
H32   H     H_    0.895243 0.356187 0.048695 0.101080
C64   C     C_3   0.632372 0.365958 0.098396 -0.281352
H33   H     H_    0.589252 0.382700 0.141103 0.209978
H34   H     H_    0.552843 0.394175 0.066529 0.184087
C65   C     C_3   0.576226 0.296777 0.092136 -0.871680
H35   H     H_    0.619851 0.278642 0.049964 0.230703
H36   H     H_    0.417587 0.291888 0.096429 0.234596
H37   H     H_    0.646381 0.268164 0.125619 0.230264
O24   O     O_3   0.100885 0.557970 0.903199 -0.566102
C66   C     C_3   0.134394 0.622702 0.912724 0.075023
H38   H     H_    0.264649 0.629143 0.939585 0.113805
H39   H     H_    0.008156 0.645434 0.933543 0.111198
C67   C     C_3   0.168094 0.655406 0.856054 -0.251646
H40   H     H_    0.295627 0.634198 0.834876 0.202138
H41   H     H_    0.040244 0.648414 0.828442 0.203106
C68   C     C_3   0.201955 0.725922 0.863911 -0.892876
H42   H     H_    0.075377 0.748246 0.884551 0.235402
H43   H     H_    0.224118 0.748436 0.822039 0.234296
H44   H     H_    0.331816 0.734046 0.890366 0.233650
O25   O     O_3   0.376626 0.950919 0.900383 -0.570623
C69   C     C_3   0.430314 0.887487 0.891429 0.067003
H45   H     H_    0.314645 0.864970 0.866059 0.153550
H46   H     H_    0.440375 0.859615 0.931303 0.103007
C70   C     C_3   0.618128 0.884420 0.857352 -0.298941
H47   H     H_    0.596314 0.907907 0.815825 0.209423
H48   H     H_    0.734499 0.909915 0.879984 0.198007
C71   C     C_3   0.682076 0.816506 0.847403 -0.850648
H49   H     H_    0.703564 0.791877 0.888376 0.225593
H50   H     H_    0.820405 0.816174 0.823808 0.239554
H51   H     H_    0.572676 0.790916 0.822032 0.239923
O26   O     O_3   0.612300 0.053072 0.100375 -0.569308
C72   C     C_3   0.697730 0.113092 0.093306 0.064603
H52   H     H_    0.632204 0.145428 0.124859 0.143083
H53   H     H_    0.671833 0.134885 0.050993 0.106276
C73   C     C_3   0.914349 0.108593 0.104983 -0.279008
H54   H     H_    0.937695 0.091809 0.148978 0.209052
H55   H     H_    0.981030 0.073887 0.075798 0.190906
C74   C     C_3   0.013662 0.172202 0.097437 -0.867345
H56   H     H_    0.992911 0.189858 0.053634 0.229075
H57   H     H_    0.170567 0.166932 0.105412 0.237224
H58   H     H_    0.954698 0.207112 0.127846 0.231533
O27   O     O_3   0.623404 0.049079 0.400387 -0.570623
C75   C     C_3   0.569689 0.112507 0.391427 0.067007
H59   H     H_    0.685351 0.135027 0.366055 0.153545
H60   H     H_    0.559616 0.140383 0.431298 0.103001
C76   C     C_3   0.381875 0.115563 0.357349 -0.298936
H61   H     H_    0.403707 0.092077 0.315822 0.209416
H62   H     H_    0.265518 0.090060 0.379980 0.198015
C77   C     C_3   0.317887 0.183473 0.347399 -0.850645
H63   H     H_    0.296378 0.208099 0.388372 0.225586
H64   H     H_    0.179563 0.183795 0.323801 0.239541
H65   H     H_    0.427276 0.209070 0.322031 0.239923
O28   O     O_3   0.387681 0.946927 0.600374 -0.569308
C78   C     C_3   0.302266 0.886905 0.593303 0.064607
H66   H     H_    0.367794 0.854570 0.624858 0.143083
H67   H     H_    0.328173 0.865112 0.550990 0.106277
C79   C     C_3   0.085644 0.891399 0.604977 -0.279009
H68   H     H_    0.062286 0.908182 0.648972 0.209052
H69   H     H_    0.018961 0.926103 0.575791 0.190905
C80   C     C_3   0.986346 0.827787 0.597430 -0.867349
H70   H     H_    0.007107 0.810132 0.553627 0.229077
H71   H     H_    0.829439 0.833053 0.605403 0.237219
H72   H     H_    0.045314 0.792878 0.627840 0.231534

loop_
_geom_bond_atom_site_label_1
_geom_bond_atom_site_label_2
_ccdc_geom_bond_type
O17   V3    S    
C48   C56   S    
O18   V4    S    
C58   H19   S    
O12   V1    S    
O19   V1    S    
C19   C43   S    
H14   C37   S    
C11   O23   S    
O27   C75   S    
C18   C42   S    
C71   H51   S    
C66   C67   S    
C19   H3    S    
C36   C44   S    
C67   C68   S    
C59   H22   S    
C79   H68   S    
C64   H33   S    
C76   H62   S    
C80   H70   S    
O16   V3    S    
C25   C49   T    
C68   H43   S    
O11   C3    A    
C65   H35   S    
C13   O25   S    
O8    V1    S    
C15   C48   S    
C16   C47   S    
C23   H7    S    
C73   H54   S    
C30   C54   T    
C71   H50   S    
C29   C53   T    
C60   H25   S    
C70   H47   S    
C64   H34   S    
C31   C55   T    
C77   H63   S    
C12   C43   S    
C62   H28   S    
C57   H17   S    
O1    V3    S    
O22   C60   S    
O3    C2    A    
O2    V4    S    
C14   O26   S    
C16   C24   S    
O28   C78   S    
C59   H21   S    
C46   C54   S    
C28   C52   T    
C17   C34   S    
C45   C53   S    
C73   H55   S    
C17   H1    S    
C74   H56   S    
O11   V2    S    
C62   H29   S    
C10   C18   S    
C24   C48   S    
C21   C38   S    
C10   C41   S    
C72   H53   S    
C12   C36   S    
C9    C42   S    
C63   C64   S    
O9    V1    S    
C41   C49   S    
C20   H4    S    
O15   C7    A    
C21   H5    S    
C58   H20   S    
O7    V2    S    
C39   C47   S    
C69   C70   S    
O12   C4    A    
C23   C40   S    
C34   C42   S    
C33   C41   S    
C61   H26   S    
C70   H48   S    
C63   H32   S    
O21   C57   S    
C76   C77   S    
O5    V1    S    
H15   C40   S    
C80   H71   S    
O17   V1    S    
C68   H44   S    
C27   C51   T    
C14   C45   S    
O19   V3    S    
O4    V3    S    
C13   C46   S    
O20   V4    S    
C71   H49   S    
C78   H67   S    
C60   C61   S    
C76   H61   S    
C78   C79   S    
C64   C65   S    
C67   H41   S    
C14   C38   S    
C65   H37   S    
C20   C44   S    
C13   C37   S    
C47   C55   S    
C23   C47   S    
H9    C34   S    
C20   C35   S    
C21   C45   S    
C12   O24   S    
O10   V2    S    
C78   H66   S    
H13   C38   S    
C11   C44   S    
C62   H30   S    
C17   C41   S    
C22   H6    S    
C16   C40   S    
O8    C5    A    
C74   H58   S    
O13   C5    A    
C72   C73   S    
C8    C25   S    
C18   H2    S    
C61   H27   S    
O1    C4    A    
O9    C1    A    
O6    V2    S    
C10   C34   S    
O18   V2    S    
C58   C59   S    
C57   H18   S    
C5    C28   S    
H16   C39   S    
C69   H46   S    
C4    C29   S    
C12   C20   S    
O4    C1    A    
C15   O27   S    
C66   H38   S    
C57   C58   S    
C70   C71   S    
C11   C19   S    
C63   H31   S    
C7    C26   S    
C15   C23   S    
C80   H72   S    
C9    C33   S    
C2    C31   S    
C24   H8    S    
C75   H59   S    
C18   C33   S    
C65   H36   S    
O2    C3    A    
O13   V3    S    
C75   C76   S    
C11   C35   S    
O14   V4    S    
C66   H39   S    
O15   V4    S    
C22   C37   S    
C79   H69   S    
O23   C63   S    
C67   H40   S    
C73   C74   S    
O7    C6    A    
C43   C51   S    
C68   H42   S    
H12   C35   S    
C42   C50   S    
C9    C17   S    
O14   C6    A    
C75   H60   S    
C74   H57   S    
C10   O22   S    
C40   C48   S    
C60   H24   S    
C16   O28   S    
C35   C43   S    
O5    C8    A    
C77   H64   S    
O10   C2    A    
O6    C7    A    
O20   V2    S    
C26   C50   T    
O24   C66   S    
C9    O21   S    
C59   H23   S    
O3    V4    S    
C24   C39   S    
C6    C27   S    
C14   C22   S    
C79   C80   S    
C37   C45   S    
C32   C56   T    
O26   C72   S    
C1    C32   S    
O16   C8    A    
C38   C46   S    
C69   H45   S    
C19   C36   S    
C3    C30   S    
C44   C52   S    
C72   H52   S    
O25   C69   S    
C13   C21   S    
H11   C36   S    
C61   C62   S    
H10   C33   S    
C15   C39   S    
C22   C46   S    
C77   H65   S    
