data_str_m4_o1_o24_f0_acs.sym.166
_audit_creation_date              2012-12-11T14:52:34-0500
_audit_creation_method            fapswitch 2.2
_symmetry_space_group_name_H-M    P1
_symmetry_Int_Tables_number       1
_space_group_crystal_system       triclinic
_cell_length_a                    18.909015
_cell_length_b                    11.055779
_cell_length_c                    18.822939
_cell_angle_alpha                 89.945116
_cell_angle_beta                  91.477609
_cell_angle_gamma                 89.871642
_cell_volume                      3933.68826048

loop_
_atom_site_label
_atom_site_type_symbol
_atom_type_description
_atom_site_fract_x
_atom_site_fract_y
_atom_site_fract_z
_atom_type_partial_charge
C1    C     C_R   0.273784 0.037406 0.855749 0.583318
C2    C     C_R   0.727267 0.041333 0.145519 0.553173
C3    C     C_R   0.773784 0.537406 0.855749 0.583318
C4    C     C_R   0.227267 0.541333 0.145519 0.553173
C5    C     C_3   0.552536 0.772599 0.968271 0.415009
C6    C     C_3   0.503062 0.715781 0.021571 0.407365
C7    C     C_3   0.052537 0.272599 0.968271 0.415009
C8    C     C_3   0.003062 0.215781 0.021571 0.407365
C9    C     C_R   0.306672 0.527551 0.962555 -0.028620
C10   C     C_R   0.700392 0.512411 0.042395 -0.016739
C11   C     C_R   0.806672 0.027551 0.962555 -0.028620
C12   C     C_R   0.200392 0.012411 0.042395 -0.016740
C13   C     C_R   0.304580 0.528457 0.037921 -0.103521
C14   C     C_R   0.701624 0.507453 0.967268 -0.043326
C15   C     C_R   0.804580 0.028457 0.037921 -0.103521
C16   C     C_R   0.201624 0.007454 0.967268 -0.043326
C17   C     C_R   0.243230 0.573303 0.071420 -0.021852
C18   C     C_R   0.759217 0.561871 0.931014 0.028957
C19   C     C_R   0.743230 0.073303 0.071420 -0.021852
C20   C     C_R   0.259217 0.061871 0.931014 0.028958
C21   C     C_R   0.187679 0.623126 0.029475 0.328112
C22   C     C_R   0.812318 0.622183 0.970759 0.364500
C23   C     C_R   0.687679 0.123126 0.029475 0.328113
C24   C     C_R   0.312318 0.122183 0.970759 0.364500
C25   C     C_R   0.190424 0.622451 0.956874 -0.134157
C26   C     C_R   0.809056 0.629596 0.042986 -0.118506
C27   C     C_R   0.690424 0.122451 0.956874 -0.134157
C28   C     C_R   0.309057 0.129596 0.042986 -0.118506
C29   C     C_R   0.250741 0.583384 0.922566 -0.034380
C30   C     C_R   0.751888 0.582334 0.079194 -0.048371
C31   C     C_R   0.750741 0.083384 0.922566 -0.034380
C32   C     C_R   0.251888 0.082334 0.079194 -0.048371
C33   C     C_R   0.509609 0.732955 0.535934 -0.058723
C34   C     C_R   0.492432 0.731317 0.463791 -0.065283
C35   C     C_R   0.009609 0.232955 0.535934 -0.058722
C36   C     C_R   0.992432 0.231317 0.463791 -0.065282
C37   C     C_R   0.498494 0.838061 0.424469 0.022901
C38   C     C_R   0.498855 0.839765 0.574052 -0.015090
C39   C     C_R   0.998494 0.338061 0.424469 0.022900
C40   C     C_R   0.998855 0.339765 0.574052 -0.015091
C41   C     C_R   0.496887 0.951107 0.460563 -0.023378
C42   C     C_R   0.494248 0.952036 0.536280 -0.045934
C43   C     C_R   0.996887 0.451107 0.460563 -0.023378
C44   C     C_R   0.994248 0.452036 0.536280 -0.045935
C45   C     C_R   0.469356 0.821830 0.855782 0.582255
C46   C     C_R   0.530891 0.821279 0.143955 0.556203
C47   C     C_R   0.969356 0.321830 0.855782 0.582255
C48   C     C_R   0.030891 0.321279 0.143955 0.556203
C49   C     C_R   0.182938 0.593953 0.543693 0.305413
C50   C     C_R   0.808442 0.625215 0.464268 0.356906
C51   C     C_R   0.682938 0.093952 0.543693 0.305413
C52   C     C_R   0.308442 0.125215 0.464268 0.356905
C53   C     C_R   0.184501 0.597951 0.471383 -0.155926
C54   C     C_R   0.800698 0.636177 0.535458 -0.137209
C55   C     C_R   0.684500 0.097949 0.471384 -0.155926
C56   C     C_R   0.300698 0.136177 0.535458 -0.137210
C57   C     C_R   0.241205 0.549217 0.434681 -0.025697
C58   C     C_R   0.751749 0.565485 0.569844 -0.028850
C59   C     C_R   0.741205 0.049216 0.434681 -0.025698
C60   C     C_R   0.251749 0.065485 0.569844 -0.028849
C61   C     C_R   0.297792 0.488998 0.474495 -0.034905
C62   C     C_R   0.702483 0.492692 0.528513 -0.036026
C63   C     C_R   0.797792 0.988998 0.474495 -0.034905
C64   C     C_R   0.202483 0.992692 0.528513 -0.036026
C65   C     C_R   0.297075 0.496294 0.549741 -0.104017
C66   C     C_R   0.703910 0.500514 0.453474 -0.103200
C67   C     C_R   0.797075 0.996294 0.549742 -0.104017
C68   C     C_R   0.203910 0.000514 0.453474 -0.103200
C69   C     C_R   0.243194 0.562261 0.582137 0.010661
C70   C     C_R   0.755068 0.574310 0.422486 0.002569
C71   C     C_R   0.743194 0.062260 0.582137 0.010661
C72   C     C_R   0.255068 0.074310 0.422486 0.002569
C73   C     C_R   0.260568 0.633894 0.851071 0.543624
C74   C     C_R   0.740010 0.633616 0.149596 0.570206
C75   C     C_R   0.760568 0.133894 0.851071 0.543624
C76   C     C_R   0.240010 0.133616 0.149596 0.570206
C77   C     C_R   0.271105 0.041347 0.644042 0.574302
C78   C     C_R   0.727024 0.036886 0.357983 0.564990
C79   C     C_R   0.771105 0.541347 0.644042 0.574302
C80   C     C_R   0.227024 0.536886 0.357983 0.564990
C81   C     C_R   0.470315 0.825118 0.646672 0.564160
C82   C     C_R   0.529001 0.824880 0.352763 0.580124
C83   C     C_R   0.970315 0.325118 0.646672 0.564160
C84   C     C_R   0.029001 0.324880 0.352763 0.580123
C85   C     C_R   0.257870 0.629578 0.647274 0.557980
C86   C     C_R   0.741785 0.631667 0.353989 0.548810
C87   C     C_R   0.757870 0.129578 0.647274 0.557980
C88   C     C_R   0.241785 0.131667 0.353989 0.548811
C89   C     C_3   0.446557 0.888258 0.031905 -0.181151
C90   C     C_3   0.496676 0.945572 0.977077 -0.131058
C91   C     C_3   0.946556 0.388258 0.031905 -0.181152
C92   C     C_3   0.996676 0.445572 0.977077 -0.131058
C93   C     C_3   0.438485 0.774443 0.984362 -0.169761
C94   C     C_3   0.561249 0.885220 0.015397 -0.130054
C95   C     C_3   0.938486 0.274443 0.984362 -0.169761
C96   C     C_3   0.061249 0.385220 0.015397 -0.130054
C97   C     C_3   0.489313 0.831228 0.930771 0.003038
C98   C     C_3   0.510557 0.827817 0.068777 -0.004954
C99   C     C_3   0.989313 0.331228 0.930771 0.003038
C100  C     C_3   0.010557 0.327817 0.068777 -0.004954
Cr1   Cr    Cr6+3 0.229630 0.835900 0.747350 1.123794
Cr2   Cr    Cr6+3 0.770370 0.835900 0.252650 1.150901
Cr3   Cr    Cr6+3 0.729630 0.335900 0.747350 1.123793
Cr4   Cr    Cr6+3 0.270370 0.335900 0.252650 1.150900
Cr5   Cr    Cr6+3 0.387410 0.989850 0.750850 1.093160
Cr6   Cr    Cr6+3 0.612590 0.989850 0.249150 1.132689
Cr7   Cr    Cr6+3 0.887410 0.489850 0.750850 1.093161
Cr8   Cr    Cr6+3 0.112590 0.489850 0.249150 1.132689
Cr9   Cr    Cr6+3 0.385800 0.677120 0.749340 1.135348
Cr10  Cr    Cr6+3 0.614200 0.677120 0.250660 1.132177
Cr11  Cr    Cr6+3 0.885800 0.177120 0.749340 1.135349
Cr12  Cr    Cr6+3 0.114200 0.177120 0.250660 1.132178
H1    H     H_    0.387545 0.730433 0.970149 0.099866
H2    H     H_    0.612862 0.925508 0.030362 0.160366
H3    H     H_    0.887546 0.230433 0.970149 0.099866
H4    H     H_    0.112862 0.425509 0.030362 0.160367
H5    H     H_    0.139427 0.638076 0.444186 0.151212
H6    H     H_    0.838850 0.690407 0.564542 0.192144
H7    H     H_    0.639426 0.138074 0.444186 0.151213
H8    H     H_    0.338850 0.190407 0.564542 0.192144
H9    H     H_    0.403112 0.933849 0.059940 0.144669
H10   H     H_    0.495027 0.040136 0.957247 0.221721
H11   H     H_    0.903111 0.433848 0.059940 0.144669
H12   H     H_    0.995026 0.540136 0.957247 0.221721
H13   H     H_    0.145419 0.659503 0.927453 0.167276
H14   H     H_    0.851092 0.678535 0.070342 0.223477
H15   H     H_    0.645419 0.159504 0.927453 0.167276
H16   H     H_    0.351092 0.178535 0.070342 0.223477
O1    O     O_R   0.214270 0.709000 0.827470 -0.550464
O2    O     O_R   0.785730 0.709000 0.172530 -0.512967
O3    O     O_R   0.714270 0.209000 0.827470 -0.550464
O4    O     O_R   0.285730 0.209000 0.172530 -0.512967
O5    O     O_R   0.445950 0.919440 0.676520 -0.545606
O6    O     O_R   0.554050 0.919440 0.323480 -0.491667
O7    O     O_R   0.945950 0.419440 0.676520 -0.545606
O8    O     O_R   0.054050 0.419440 0.323480 -0.491667
O9    O     O_R   0.456730 0.717630 0.669840 -0.432370
O10   O     O_R   0.543270 0.717630 0.330160 -0.463837
O11   O     O_R   0.956730 0.217630 0.669840 -0.432369
O12   O     O_R   0.043270 0.217630 0.330160 -0.463837
O13   O     O_R   0.320620 0.625640 0.672920 -0.503062
O14   O     O_R   0.679380 0.625640 0.327080 -0.521341
O15   O     O_R   0.820620 0.125640 0.672920 -0.503061
O16   O     O_R   0.179380 0.125640 0.327080 -0.521339
O17   O     O_3   0.334280 0.834290 0.749180 -0.314027
O18   O     O_3   0.665720 0.834290 0.250820 -0.323153
O19   O     O_3   0.834280 0.334290 0.749180 -0.314027
O20   O     O_3   0.165720 0.334290 0.250820 -0.323153
O21   O     O_R   0.236160 0.958490 0.823130 -0.533927
O22   O     O_R   0.763840 0.958490 0.176870 -0.526345
O23   O     O_R   0.736160 0.458490 0.823130 -0.533928
O24   O     O_R   0.263840 0.458490 0.176870 -0.526344
O25   O     O_R   0.332080 0.075470 0.831280 -0.410392
O26   O     O_R   0.667920 0.075470 0.168720 -0.399440
O27   O     O_R   0.832080 0.575470 0.831280 -0.410392
O28   O     O_R   0.167920 0.575470 0.168720 -0.399441
O29   O     O_R   0.446300 0.918110 0.826620 -0.505466
O30   O     O_R   0.553700 0.918110 0.173380 -0.482759
O31   O     O_R   0.946300 0.418110 0.826620 -0.505466
O32   O     O_R   0.053700 0.418110 0.173380 -0.482760
O33   O     O_R   0.457110 0.716200 0.831760 -0.471217
O34   O     O_R   0.542890 0.716200 0.168240 -0.457173
O35   O     O_R   0.957110 0.216200 0.831760 -0.471217
O36   O     O_R   0.042890 0.216200 0.168240 -0.457173
O37   O     O_R   0.320980 0.624310 0.823030 -0.483383
O38   O     O_R   0.679020 0.624310 0.176970 -0.460280
O39   O     O_R   0.820980 0.124310 0.823030 -0.483383
O40   O     O_R   0.179020 0.124310 0.176970 -0.460279
O41   O     O_R   0.213890 0.710430 0.665540 -0.424787
O42   O     O_R   0.786110 0.710430 0.334460 -0.400874
O43   O     O_R   0.713890 0.210430 0.665540 -0.424788
O44   O     O_R   0.286110 0.210430 0.334460 -0.400875
O45   O     O_R   0.235810 0.959820 0.673020 -0.434855
O46   O     O_R   0.764190 0.959820 0.326980 -0.433257
O47   O     O_R   0.735810 0.459820 0.673020 -0.434855
O48   O     O_R   0.264190 0.459820 0.326980 -0.433258
O49   O     O_R   0.331700 0.076900 0.669350 -0.524027
O50   O     O_R   0.668300 0.076900 0.330650 -0.532115
O51   O     O_R   0.831700 0.576900 0.669350 -0.524027
O52   O     O_R   0.168300 0.576900 0.330650 -0.532116
F1    F     F_    0.125426 0.635903 0.576704 -0.656433
F2    F     F_    0.866533 0.671705 0.435173 -0.588501
F3    F     F_    0.625425 0.135903 0.576704 -0.656433
F4    F     F_    0.366533 0.171705 0.435173 -0.588502
C101  C     C_2   0.356802 0.415053 0.444304 0.327322
H17   H     H_    0.389865 0.360730 0.479185 0.211976
O53   O     O_2   0.373838 0.415325 0.382446 -0.376659
C102  C     C_2   0.653997 0.400176 0.558287 0.328185
H18   H     H_    0.641076 0.322457 0.526519 0.187882
O54   O     O_2   0.623914 0.411697 0.614386 -0.386578
C103  C     C_2   0.856802 0.915053 0.444304 0.327321
H19   H     H_    0.889866 0.860731 0.479185 0.211975
O55   O     O_2   0.873837 0.915325 0.382446 -0.376658
C104  C     C_2   0.153997 0.900177 0.558287 0.328183
H20   H     H_    0.141074 0.822459 0.526519 0.187882
O56   O     O_2   0.123914 0.911697 0.614386 -0.386577
C105  C     C_2   0.350006 0.433462 0.596917 0.224576
H21   H     H_    0.331803 0.379154 0.640878 0.137345
O57   O     O_2   0.413355 0.449834 0.590876 -0.496457
C106  C     C_2   0.655690 0.428350 0.405921 0.218834
H22   H     H_    0.675632 0.391034 0.356984 0.150031
O58   O     O_2   0.593223 0.415407 0.418759 -0.528024
C107  C     C_2   0.850006 0.933462 0.596917 0.224575
H23   H     H_    0.831803 0.879152 0.640878 0.137345
O59   O     O_2   0.913354 0.949836 0.590877 -0.496457
C108  C     C_2   0.155690 0.928350 0.405921 0.218833
H24   H     H_    0.175633 0.891033 0.356984 0.150029
O60   O     O_2   0.093223 0.915409 0.418758 -0.528023
F5    F     F_    0.607731 0.718728 0.933644 -0.591698
F6    F     F_    0.506477 0.597369 0.044750 -0.604611
F7    F     F_    0.107731 0.218729 0.933644 -0.591697
F8    F     F_    0.006477 0.097369 0.044750 -0.604611
C109  C     C_2   0.367648 0.471771 0.926435 0.376153
H25   H     H_    0.421246 0.485697 0.946523 0.206697
O61   O     O_2   0.358089 0.407569 0.874327 -0.409471
C110  C     C_2   0.649272 0.437009 0.081982 0.356092
H26   H     H_    0.597626 0.415455 0.059334 0.236046
O62   O     O_2   0.665942 0.392799 0.139523 -0.461414
C111  C     C_2   0.867648 0.971771 0.926435 0.376152
H27   H     H_    0.921246 0.985697 0.946523 0.206697
O63   O     O_2   0.858089 0.907569 0.874327 -0.409471
C112  C     C_2   0.149272 0.937010 0.081982 0.356093
H28   H     H_    0.097626 0.915455 0.059333 0.236045
O64   O     O_2   0.165942 0.892799 0.139523 -0.461413
C113  C     C_2   0.366549 0.487515 0.082171 0.301258
H29   H     H_    0.380389 0.535581 0.130813 0.153811
O65   O     O_2   0.401158 0.398652 0.066409 -0.441454
C114  C     C_2   0.643332 0.443791 0.928406 0.291508
H30   H     H_    0.653801 0.364454 0.897300 0.136560
O66   O     O_2   0.582317 0.478861 0.932077 -0.399666
C115  C     C_2   0.866549 0.987515 0.082171 0.301257
H31   H     H_    0.880389 0.035581 0.130813 0.153811
O67   O     O_2   0.901159 0.898652 0.066409 -0.441454
C116  C     C_2   0.143333 0.943791 0.928406 0.291508
H32   H     H_    0.153801 0.864453 0.897301 0.136559
O68   O     O_2   0.082317 0.978862 0.932075 -0.399664
F9    F     F_    0.127323 0.666730 0.057681 -0.604287
F10   F     F_    0.869198 0.674415 0.940647 -0.571890
F11   F     F_    0.627323 0.166730 0.057681 -0.604287
F12   F     F_    0.369198 0.174415 0.940647 -0.571890
C117  C     C_2   0.542385 0.626372 0.570802 0.311793
H33   H     H_    0.534396 0.536768 0.549611 0.171123
O69   O     O_2   0.581306 0.639442 0.623062 -0.438890
C118  C     C_2   0.464456 0.621192 0.429383 0.295074
H34   H     H_    0.477780 0.532269 0.449192 0.155720
O70   O     O_2   0.424182 0.630728 0.377843 -0.443792
C119  C     C_2   0.042384 0.126372 0.570801 0.311792
H35   H     H_    0.034395 0.036768 0.549611 0.171122
O71   O     O_2   0.081306 0.139442 0.623062 -0.438890
C120  C     C_2   0.964456 0.121192 0.429383 0.295074
H36   H     H_    0.977780 0.032269 0.449192 0.155719
O72   O     O_2   0.924182 0.130728 0.377843 -0.443792
C121  C     C_2   0.496431 0.066666 0.419664 0.379041
H37   H     H_    0.522076 0.146739 0.440738 0.178497
O73   O     O_2   0.464800 0.074970 0.362425 -0.404172
C122  C     C_2   0.490984 0.068200 0.576646 0.337960
H38   H     H_    0.514080 0.073881 0.629846 0.194462
O74   O     O_2   0.464433 0.159707 0.551556 -0.477841
C123  C     C_2   0.996431 0.566666 0.419665 0.379042
H39   H     H_    0.022077 0.646739 0.440738 0.178495
O75   O     O_2   0.964800 0.574970 0.362425 -0.404172
C124  C     C_2   0.990984 0.568200 0.576646 0.337960
H40   H     H_    0.014081 0.573880 0.629846 0.194462
O76   O     O_2   0.964433 0.659707 0.551556 -0.477842

loop_
_geom_bond_atom_site_label_1
_geom_bond_atom_site_label_2
_ccdc_geom_bond_type
C58   C62   A    
Cr5   O25   S    
C107  H23   S    
C49   C53   A    
C2    O22   A    
C88   O44   A    
C55   C59   A    
C34   C37   A    
C56   H8    S    
C41   C42   A    
Cr12  O12   S    
C33   C117  S    
C35   C36   A    
C40   C83   S    
Cr3   O23   S    
C10   C110  S    
Cr6   O6    S    
C28   H16   S    
C83   O11   A    
C5    C94   S    
C94   H2    S    
Cr3   O19   S    
C7    C8    S    
Cr4   O48   S    
Cr7   O27   S    
C55   H7    S    
C109  H25   S    
C47   O31   A    
C15   C19   A    
C7    C96   S    
C48   O32   A    
Cr1   O17   S    
C50   C54   A    
C7    C99   S    
Cr10  O34   S    
C64   C68   A    
Cr9   O33   S    
Cr5   O5    S    
C7    F7    S    
Cr3   O3    S    
C110  O62   D    
C39   C84   S    
C38   C42   A    
C51   F3    S    
C92   H12   S    
C13   C113  S    
C121  H37   S    
C30   C74   S    
C53   H5    S    
C68   C72   A    
C29   C73   S    
C94   C98   S    
C95   C99   S    
C120  O72   D    
Cr12  O40   S    
C41   C121  S    
C92   C96   S    
C47   C99   S    
C118  H34   S    
Cr8   O52   S    
C3    C18   S    
C102  O54   D    
C117  H33   S    
C26   H14   S    
C57   C61   A    
C105  O57   D    
C25   H13   S    
C9    C13   A    
Cr1   O45   S    
Cr10  O14   S    
C1    O21   A    
Cr5   O29   S    
C101  H17   S    
C12   C16   A    
C11   C111  S    
C95   H3    S    
C106  H22   S    
Cr6   O26   S    
C122  O74   D    
C36   C120  S    
Cr1   O41   S    
C65   C105  S    
C23   C27   A    
C91   C100  S    
C17   C21   A    
C18   C22   A    
C49   F1    S    
C90   C97   S    
C51   C55   A    
C24   F12   S    
C9    C29   A    
Cr5   O17   S    
Cr4   O44   S    
C15   C115  S    
C109  O61   D    
C104  H20   S    
C46   C98   S    
C11   C31   A    
C2    O26   A    
C49   C69   A    
C12   C32   A    
C84   O12   A    
Cr3   O43   S    
C90   H10   S    
C57   C80   S    
C78   O50   A    
C50   F2    S    
C8    C95   S    
C116  O68   D    
Cr12  O36   S    
C59   C78   S    
C114  O66   D    
C114  H30   S    
C72   C88   S    
C75   O3    A    
C61   C101  S    
C90   C94   S    
C63   C67   A    
C119  O71   D    
C25   C29   A    
C48   C100  S    
C73   O1    A    
C60   C77   S    
C59   C63   A    
C62   C66   A    
C34   C118  S    
C103  H19   S    
C6    C98   S    
C24   C28   A    
C43   C123  S    
C28   C32   A    
C45   O29   A    
C110  H26   S    
C80   O48   A    
C73   O37   A    
C10   C14   A    
C85   O13   A    
C111  H27   S    
C121  O73   D    
C53   C57   A    
C108  H24   S    
C21   F9    S    
C124  O76   D    
C9    C109  S    
C120  H36   S    
C2    C19   S    
C27   C31   A    
C89   C93   S    
C85   O41   A    
Cr11  O19   S    
Cr12  O20   S    
C64   C104  S    
C102  H18   S    
C117  O69   D    
C82   O6    A    
C81   O9    A    
C43   C44   A    
C103  O55   D    
C14   C114  S    
C52   C72   A    
C79   O47   A    
C111  O63   D    
C107  O59   D    
C116  H32   S    
C10   C30   A    
C93   C97   S    
Cr7   O31   S    
Cr10  O18   S    
Cr8   O28   S    
C88   O16   A    
C16   C116  S    
C16   C20   A    
C6    C93   S    
C87   O43   A    
C122  H38   S    
Cr3   O47   S    
C113  H29   S    
Cr11  O35   S    
C115  O67   D    
C93   H1    S    
Cr11  O11   S    
C112  O64   D    
C12   C112  S    
C50   C70   A    
Cr9   O37   S    
C58   C79   S    
Cr2   O22   S    
C6    F6    S    
C4    C17   S    
Cr10  O10   S    
C4    O28   A    
C5    C97   S    
C26   C30   A    
C11   C15   A    
C54   H6    S    
C38   C81   S    
C68   C108  S    
C71   C87   S    
C37   C82   S    
Cr11  O39   S    
C3    O27   A    
C123  H39   S    
C70   C86   S    
C80   O52   A    
C31   C75   S    
C74   O38   A    
C69   C85   S    
C86   O14   A    
C62   C102  S    
C54   C58   A    
C65   C69   A    
C118  O70   D    
C21   C25   A    
C84   O8    A    
Cr7   O19   S    
C77   O45   A    
Cr7   O51   S    
C23   F11   S    
C86   O42   A    
Cr7   O7    S    
C83   O7    A    
C36   C39   A    
Cr9   O17   S    
C52   F4    S    
Cr5   O49   S    
C3    O23   A    
C1    C20   S    
C32   C76   S    
Cr9   O13   S    
C119  H35   S    
C51   C71   A    
C81   O5    A    
C124  H40   S    
Cr8   O32   S    
C45   O33   A    
Cr11  O15   S    
Cr2   O46   S    
C5    F5    S    
C66   C70   A    
C35   C119  S    
C33   C38   A    
Cr6   O18   S    
Cr8   O8    S    
C13   C17   A    
C89   C98   S    
C60   C64   A    
Cr9   O9    S    
C22   F10   S    
Cr12  O16   S    
C74   O2    A    
C35   C40   A    
C8    C100  S    
C47   O35   A    
Cr4   O20   S    
C82   O10   A    
C123  O75   D    
C45   C97   S    
C76   O4    A    
Cr2   O18   S    
C20   C24   A    
Cr6   O30   S    
Cr10  O38   S    
Cr4   O24   S    
C42   C122  S    
C5    C6    S    
C89   H9    S    
Cr2   O42   S    
C48   O36   A    
C63   C103  S    
C96   C100  S    
C44   C124  S    
Cr1   O21   S    
C75   O39   A    
C113  O65   D    
C33   C34   A    
C14   C18   A    
C76   O40   A    
C67   C71   A    
C61   C65   A    
C37   C41   A    
C105  H21   S    
C112  H28   S    
Cr4   O4    S    
C77   O49   A    
C27   H15   S    
C1    O25   A    
C101  O53   D    
C91   C95   S    
C4    O24   A    
C56   C60   A    
C19   C23   A    
C40   C44   A    
C79   O51   A    
C39   C43   A    
C106  O58   D    
C22   C26   A    
C115  H31   S    
C78   O46   A    
C67   C107  S    
C96   H4    S    
Cr2   O2    S    
C91   H11   S    
C87   O15   A    
C89   C90   S    
C8    F8    S    
C108  O60   D    
C46   O34   A    
C104  O56   D    
Cr6   O50   S    
C66   C106  S    
C91   C92   S    
C52   C56   A    
C92   C99   S    
Cr1   O1    S    
Cr8   O20   S    
C46   O30   A    
