data_str_m12_o9_o10_f0_bcu.sym.94
_audit_creation_date              2012-12-11T17:37:55-0500
_audit_creation_method            fapswitch 2.2
_symmetry_space_group_name_H-M    P1
_symmetry_Int_Tables_number       1
_space_group_crystal_system       triclinic
_cell_length_a                    13.092812
_cell_length_b                    13.05311
_cell_length_c                    15.470957
_cell_angle_alpha                 117.135166
_cell_angle_beta                  62.881921
_cell_angle_gamma                 97.809185
_cell_volume                      2085.65434563

loop_
_atom_site_label
_atom_site_type_symbol
_atom_type_description
_atom_site_fract_x
_atom_site_fract_y
_atom_site_fract_z
_atom_type_partial_charge
C1    C     C_R   0.016321 0.835305 0.039216 -0.239687
C2    C     C_R   0.705740 0.423293 0.301064 0.093349
C3    C     C_R   0.664495 0.454794 0.925418 0.110482
C4    C     C_R   0.986878 0.830385 0.325009 0.052792
C5    C     C_R   0.339128 0.529395 0.964851 -0.119441
C6    C     C_R   0.899105 0.202714 0.794906 -0.140551
C7    C     C_R   0.218591 0.431525 0.687775 -0.103351
C8    C     C_R   0.075714 0.247698 0.061369 -0.110186
C9    C     C_R   0.981388 0.165224 0.961581 -0.122834
C10   C     C_R   0.321228 0.532757 0.776753 -0.139721
C11   C     C_R   0.257908 0.427814 0.059127 -0.154075
C12   C     C_R   0.702650 0.401646 0.205800 -0.111093
C13   C     C_R   0.975677 0.305167 0.703019 -0.148415
C14   C     C_R   0.360998 0.450309 0.991624 0.158602
C15   C     C_R   0.911719 0.212073 0.705025 0.071056
C16   C     C_R   0.329361 0.454046 0.675795 0.092329
C17   C     C_R   0.053113 0.140870 0.995393 0.066216
C18   C     C_R   0.300254 0.027541 0.244424 -0.135008
C19   C     C_R   0.197139 0.012647 0.321371 -0.151839
C20   C     C_R   0.091601 0.058843 0.344730 0.109407
C21   C     C_R   0.090735 0.121018 0.291329 -0.213707
C22   C     C_R   0.194174 0.136788 0.215473 -0.112578
C23   C     C_R   0.758076 0.512958 0.889974 -0.095327
C24   C     C_R   0.298599 0.090458 0.192257 -0.061455
C25   C     C_R   0.931207 0.145008 0.524064 -0.217806
C26   C     C_R   0.874676 0.136069 0.621451 0.046201
C27   C     C_R   0.823547 0.033292 0.620133 0.032421
C28   C     C_R   0.855391 0.936245 0.519868 -0.236479
C29   C     C_R   0.943875 0.938617 0.425213 0.062660
C30   C     C_R   0.982997 0.045916 0.428305 0.022653
C31   C     C_R   0.755275 0.925838 0.732454 -0.159136
C32   C     C_R   0.676693 0.912437 0.823991 -0.120041
C33   C     C_R   0.584149 0.995571 0.904290 -0.112692
C34   C     C_R   0.963400 0.720066 0.316662 -0.136865
C35   C     C_R   0.569906 0.092486 0.893179 -0.107702
C36   C     C_R   0.647985 0.105770 0.800899 -0.158106
C37   C     C_R   0.741283 0.022092 0.719502 0.109917
C38   C     C_R   0.959119 0.394336 0.373178 -0.135234
C39   C     C_R   0.851311 0.351179 0.392532 -0.164383
C40   C     C_R   0.751259 0.423451 0.478282 0.161806
C41   C     C_R   0.761506 0.532457 0.553668 -0.172531
C42   C     C_R   0.869592 0.574739 0.533987 -0.161988
C43   C     C_R   0.967387 0.507778 0.440824 -0.123035
C44   C     C_R   0.541325 0.410775 0.567439 -0.254057
C45   C     C_R   0.677085 0.420682 0.991822 -0.113464
C46   C     C_R   0.432831 0.415320 0.571861 -0.001332
C47   C     C_R   0.424305 0.390376 0.476707 -0.152004
C48   C     C_R   0.521292 0.344912 0.378674 0.584692
C49   C     C_R   0.627576 0.379360 0.380155 -0.133192
C50   C     C_R   0.640143 0.399511 0.473307 -0.014278
C51   C     C_R   0.247018 0.369822 0.449926 -0.112340
C52   C     C_R   0.134747 0.416441 0.494019 -0.185497
C53   C     C_R   0.102410 0.533493 0.567982 -0.103870
C54   C     C_R   0.184800 0.606928 0.588502 -0.109133
C55   C     C_R   0.296989 0.560981 0.544707 -0.151929
C56   C     C_R   0.047872 0.819080 0.220161 -0.126721
C57   C     C_R   0.325580 0.440764 0.482670 0.183031
C58   C     C_2   0.471610 0.408762 0.965963 -0.198633
C59   C     C_2   0.567155 0.438445 0.902565 -0.223724
C60   C     C_2   0.877030 0.972933 0.059873 -0.149744
C61   C     C_2   0.859183 0.056805 0.157802 -0.230049
C62   C     C_R   0.796920 0.491694 0.304533 -0.138937
C63   C     C_R   0.909929 0.751459 0.950729 0.599398
C64   C     C_R   0.932920 0.858145 0.016938 -0.016714
H1    H     H_    0.060806 0.899931 0.079277 0.142041
H2    H     H_    0.846224 0.147179 0.828755 0.115129
H3    H     H_    0.192946 0.367872 0.628545 0.118666
H4    H     H_    0.121307 0.259804 0.107315 0.074053
H5    H     H_    0.944230 0.102745 0.911221 0.098073
H6    H     H_    0.391071 0.575137 0.793544 0.090540
H7    H     H_    0.246476 0.381227 0.104696 0.091478
H8    H     H_    0.988886 0.349269 0.654996 0.101058
H9    H     H_    0.377874 0.104628 0.134550 0.101538
H10   H     H_    0.381293 0.991060 0.225891 0.103687
H11   H     H_    0.199265 0.965173 0.362602 0.117816
H12   H     H_    0.653341 0.343513 0.167411 0.165600
H13   H     H_    0.010009 0.156078 0.308133 0.119893
H14   H     H_    0.194073 0.185258 0.174794 0.098000
H15   H     H_    0.959554 0.226022 0.523201 0.119205
H16   H     H_    0.815174 0.857539 0.517429 0.126810
H17   H     H_    0.827670 0.861603 0.671923 0.105703
H18   H     H_    0.687506 0.837272 0.832312 0.124784
H19   H     H_    0.523659 0.984069 0.974649 0.089573
H20   H     H_    0.497917 0.156717 0.955662 0.103723
H21   H     H_    0.635570 0.180496 0.792547 0.130691
H22   H     H_    0.049936 0.543467 0.421379 0.131207
H23   H     H_    0.782697 0.534814 0.823962 0.144967
H24   H     H_    0.035499 0.342622 0.302552 0.112407
H25   H     H_    0.844773 0.267148 0.334108 0.122951
H26   H     H_    0.685597 0.589489 0.620549 0.115963
H27   H     H_    0.876993 0.661355 0.587900 0.117599
H28   H     H_    0.548741 0.428030 0.639766 0.134728
H29   H     H_    0.267855 0.277337 0.402214 0.155991
H30   H     H_    0.071311 0.360491 0.475913 0.138110
H31   H     H_    0.013534 0.567707 0.610097 0.136087
H32   H     H_    0.160229 0.698004 0.643309 0.117378
H33   H     H_    0.922180 0.694162 0.381008 0.098910
H34   H     H_    0.357896 0.616949 0.568893 0.115026
H35   H     H_    0.471665 0.369853 0.014571 0.126319
H36   H     H_    0.566647 0.474136 0.851641 0.126718
H37   H     H_    0.845932 0.989590 0.013159 0.137413
H38   H     H_    0.886076 0.044663 0.209559 0.148194
H39   H     H_    0.630115 0.359718 0.021594 0.095491
H40   H     H_    0.087465 0.883444 0.194402 0.118436
H41   H     H_    0.825959 0.528679 0.365439 0.141619
H42   H     H_    0.399942 0.578464 0.927552 0.081727
N1    N     N_R   0.037320 0.720000 0.995830 -0.070879
N2    N     N_R   0.946240 0.290870 0.848020 -0.041461
N3    N     N_R   0.146160 0.501170 0.788610 -0.047507
N4    N     N_R   0.025750 0.332680 0.063570 -0.037822
N5    N     N_R   0.962680 0.280000 0.004170 -0.043635
N6    N     N_R   0.209230 0.553860 0.848010 -0.041649
N7    N     N_R   0.175100 0.482030 0.063570 -0.040699
N8    N     N_R   0.996810 0.351820 0.788610 -0.041903
N9    N     N_R   0.790770 0.446140 0.151990 -0.054879
N10   N     N_R   0.824900 0.517970 0.936430 -0.044252
N11   N     N_R   0.003190 0.648180 0.211390 -0.038671
N12   N     N_R   0.774330 0.457010 0.995830 -0.052131
N13   N     N_R   0.053760 0.709130 0.151980 -0.038628
N14   N     N_R   0.853840 0.498830 0.211390 -0.045051
N15   N     N_R   0.974250 0.667320 0.936430 -0.099816
N16   N     N_R   0.225670 0.542990 0.004170 -0.043171
Ni1   Ni    Ni4+2 0.130310 0.630310 0.000000 0.208689
Ni2   Ni    Ni4+2 0.869690 0.369690 0.000000 0.201880
Ni3   Ni    Ni4+2 0.985660 0.509480 0.863750 0.226238
Ni4   Ni    Ni4+2 0.014340 0.490520 0.136250 0.216031
O1    O     O_3   0.507706 0.288613 0.284816 -0.637219
C65   C     C_3   0.560984 0.174919 0.228157 -0.348482
H43   H     H_    0.519454 0.126400 0.277094 0.155011
H44   H     H_    0.655007 0.174033 0.204146 0.165743
H45   H     H_    0.551546 0.129097 0.152149 0.169115
O2    O     O_3   0.839740 0.732153 0.900731 -0.645796
C66   C     C_3   0.725595 0.779740 0.979309 -0.320846
H46   H     H_    0.712068 0.870014 0.995959 0.149279
H47   H     H_    0.699868 0.774159 0.056325 0.147099
H48   H     H_    0.665718 0.730348 0.945613 0.163985

loop_
_geom_bond_atom_site_label_1
_geom_bond_atom_site_label_2
_ccdc_geom_bond_type
C45   N12   A    
C9    N5    A    
C65   H45   S    
C53   H31   S    
C41   C42   A    
C3    C23   A    
C35   C36   A    
N1    Ni1   S    
C2    C12   A    
C65   H43   S    
C62   H41   S    
C20   C30   S    
C53   C54   A    
C26   C27   A    
C18   C24   A    
C31   H17   S    
C28   C29   A    
C9    H5    S    
C18   C19   A    
N11   N13   A    
C38   C39   A    
C11   C14   A    
C11   H7    S    
C24   H9    S    
C44   C50   A    
C34   H33   S    
C42   H27   S    
N2    N8    A    
C49   C50   A    
N4    N5    A    
C45   H39   S    
C6    C15   A    
C46   C47   A    
N7    N16   A    
C19   C20   A    
O2    C66   S    
C66   H48   S    
C1    H1    S    
C10   N6    A    
C51   C57   A    
N11   Ni4   S    
C54   H32   S    
C13   N8    A    
C44   H28   S    
C12   N9    A    
C34   N11   A    
C41   H26   S    
C23   N10   A    
C18   H10   S    
C23   H23   S    
C21   C22   A    
C4    C56   A    
C59   H36   S    
N2    Ni2   S    
C28   H16   S    
C63   N15   A    
C44   C46   A    
C5    H42   S    
C14   C58   S    
C4    C34   A    
C51   C52   A    
C22   H14   S    
N6    Ni1   S    
N3    N6    A    
C16   C46   S    
C39   C40   A    
N8    Ni3   S    
C15   C26   S    
N7    Ni4   S    
C58   C59   D    
C5    N16   A    
C3    C45   A    
C7    N3    A    
C38   H24   S    
C60   C61   D    
N15   Ni3   S    
C29   C30   A    
C2    C49   S    
C8    N4    A    
C47   C57   S    
C47   C48   A    
N12   Ni2   S    
C63   O2    S    
C52   H30   S    
C33   H19   S    
C56   H40   S    
C5    C14   A    
N4    Ni4   S    
C10   H6    S    
N3    Ni3   S    
C40   C41   A    
C1    N1    A    
C8    H4    S    
N10   Ni3   S    
C55   C57   A    
C12   H12   S    
C66   H46   S    
C56   N13   A    
C22   C24   A    
C42   C43   A    
N1    N15   A    
C60   H37   S    
C1    C64   A    
C52   C53   A    
C9    C17   A    
C25   C30   A    
C54   C55   A    
C48   C49   A    
N9    Ni2   S    
N5    Ni2   S    
C25   H15   S    
C43   H22   S    
C62   N14   A    
C31   C32   A    
C7    C16   A    
C58   H35   S    
C4    C29   S    
C65   H44   S    
C35   H20   S    
C13   H8    S    
N13   Ni1   S    
C36   H21   S    
C32   H18   S    
C8    C17   A    
C51   H29   S    
C60   C64   S    
C32   C33   A    
C13   C15   A    
C61   H38   S    
C25   C26   A    
C38   C43   A    
C10   C16   A    
C48   O1    S    
C27   C37   S    
C40   C50   S    
C55   H34   S    
C19   H11   S    
C33   C35   A    
N10   N12   A    
N14   Ni4   S    
C11   N7    A    
C7    H3    S    
C63   C64   A    
C31   C37   A    
C6    H2    S    
C20   C21   A    
C36   C37   A    
N9    N14   A    
C21   H13   S    
C27   C28   A    
C66   H47   S    
C6    N2    A    
N16   Ni1   S    
C2    C62   A    
C39   H25   S    
O1    C65   S    
C3    C59   S    
