data_str_m3_o14_o18_f0_pcu.sym.216
_audit_creation_date              2012-12-10T17:44:33-0500
_audit_creation_method            fapswitch 2.2
_symmetry_space_group_name_H-M    P1
_symmetry_Int_Tables_number       1
_space_group_crystal_system       triclinic
_cell_length_a                    9.915928
_cell_length_b                    10.684792
_cell_length_c                    15.356303
_cell_angle_alpha                 93.433614
_cell_angle_beta                  68.335699
_cell_angle_gamma                 90.755434
_cell_volume                      1509.2839634

loop_
_atom_site_label
_atom_site_type_symbol
_atom_type_description
_atom_site_fract_x
_atom_site_fract_y
_atom_site_fract_z
_atom_type_partial_charge
C1    C     C_R   0.500680 0.739125 0.500084 0.872907
C2    C     C_R   0.393764 0.569484 0.922089 0.099365
C3    C     C_R   0.256453 0.518604 0.973803 0.124134
C4    C     C_R   0.487257 0.609834 0.968780 0.073545
C5    C     C_R   0.456188 0.572949 0.060682 0.087751
C6    C     C_R   0.316141 0.530297 0.112545 -0.073651
C7    C     C_R   0.216700 0.504655 0.069668 -0.106493
C8    C     C_R   0.610733 0.684227 0.927260 -0.200330
C9    C     C_R   0.704417 0.714409 0.974164 -0.144307
C10   C     C_R   0.684176 0.661793 0.059249 0.037222
C11   C     C_R   0.565196 0.582867 0.099187 -0.015539
C12   C     C_R   0.409143 0.503292 0.676223 0.840414
C13   C     C_R   0.783669 0.683219 0.103254 -0.281067
C14   C     C_R   0.764304 0.629548 0.188271 0.416697
C15   C     C_R   0.566720 0.506560 0.170125 0.240530
C16   C     C_R   0.465259 0.852951 0.344916 -0.104168
C17   C     C_R   0.438794 0.909862 0.273807 -0.179284
C18   C     C_R   0.428301 0.039375 0.276703 -0.017244
C19   C     C_R   0.447077 0.112582 0.349836 -0.110261
C20   C     C_R   0.474629 0.056419 0.422819 0.001077
C21   C     C_R   0.480721 0.925440 0.420968 0.129444
C22   C     C_R   0.505045 0.870322 0.494627 -0.093198
C23   C     C_R   0.499940 0.260176 0.498570 0.895106
C24   C     C_R   0.528348 0.939959 0.566875 -0.224494
C25   C     C_R   0.525214 0.068886 0.569290 0.174101
C26   C     C_R   0.498948 0.126785 0.496873 -0.115705
C27   C     C_R   0.797009 0.677347 0.616441 -0.218851
C28   C     C_R   0.836275 0.764711 0.673529 -0.214593
C29   C     C_R   0.974793 0.761595 0.676444 0.222291
C30   C     C_R   0.075047 0.672038 0.619735 -0.165737
C31   C     C_R   0.041051 0.587018 0.557391 0.122119
C32   C     C_R   0.896925 0.587956 0.556754 0.177831
C33   C     C_R   0.956435 0.412511 0.448792 -0.026981
C34   C     C_R   0.591735 0.507184 0.323703 0.950010
C35   C     C_R   0.098620 0.411462 0.450053 -0.124034
C36   C     C_R   0.350976 0.515800 0.778579 -0.059880
C37   C     C_R   0.648737 0.542727 0.224664 -0.296613
C38   C     C_R   0.163029 0.478196 0.928246 -0.170118
C39   C     C_R   0.210232 0.476791 0.830771 -0.192957
C40   C     C_R   0.439275 0.566421 0.824293 -0.250408
H1    H     H_    0.111512 0.467654 0.110258 0.195858
H2    H     H_    0.873648 0.745545 0.072573 0.204615
H3    H     H_    0.545933 0.892894 0.622558 0.133861
H4    H     H_    0.474785 0.752151 0.338885 0.141797
H5    H     H_    0.426763 0.853306 0.216244 0.159313
H6    H     H_    0.407394 0.082541 0.221122 0.231317
H7    H     H_    0.440823 0.212859 0.348004 0.194149
H8    H     H_    0.925616 0.340893 0.407023 0.161957
H9    H     H_    0.686496 0.680847 0.622899 0.197505
H10   H     H_    0.756655 0.833048 0.717345 0.145647
H11   H     H_    0.177104 0.668977 0.628009 0.206491
H12   H     H_    0.172073 0.336061 0.412483 0.148159
H13   H     H_    0.796028 0.774586 0.941960 0.154375
H14   H     H_    0.056269 0.442585 0.967566 0.162770
H15   H     H_    0.139376 0.440259 0.796112 0.167090
H16   H     H_    0.547208 0.595585 0.782252 0.149230
H17   H     H_    0.282209 0.519502 0.186952 0.172047
H18   H     H_    0.632559 0.724679 0.860804 0.139021
N1    N     N_R   0.856800 0.501200 0.500850 -0.109322
N2    N     N_R   0.142390 0.501280 0.500880 -0.117155
O1    O     O_R   0.385310 0.683220 0.500000 -0.652737
O2    O     O_R   0.614640 0.683250 0.500010 -0.598970
O3    O     O_R   0.319840 0.499980 0.632240 -0.631669
O4    O     O_R   0.549160 0.500000 0.632250 -0.632608
O5    O     O_R   0.385360 0.316750 0.499990 -0.627344
O6    O     O_R   0.614690 0.316780 0.500000 -0.609063
O7    O     O_R   0.450840 0.500000 0.367750 -0.649617
O8    O     O_R   0.680160 0.500020 0.367760 -0.519419
Zn1   Zn    Zn3+2 0.346880 0.499980 0.499990 0.925469
Zn2   Zn    Zn3+2 0.653120 0.500020 0.500010 0.993806
C41   C     C_3   0.544520 0.142368 0.651158 -0.835822
H19   H     H_    0.647282 0.195616 0.626717 0.259459
H20   H     H_    0.451754 0.208293 0.685177 0.228665
H21   H     H_    0.549404 0.080093 0.705349 0.230267
S1    S     S_3+6 0.530873 0.344238 0.158697 -0.000516
O9    O     O_2   0.559294 0.306798 0.057483 -0.248516
O10   O     O_2   0.630167 0.269224 0.189942 -0.316488
O11   O     O_3   0.357494 0.311978 0.222206 -0.593757
H22   H     H_    0.329261 0.376156 0.274667 0.337780
C42   C     C_3   0.016444 0.851521 0.741002 -0.912933
H23   H     H_    0.925561 0.916377 0.782006 0.248118
H24   H     H_    0.047346 0.798437 0.790932 0.239310
H25   H     H_    0.110378 0.908056 0.699299 0.250698
S2    S     S_3+6 0.888254 0.675218 0.243247 0.007560
O12   O     O_2   0.945565 0.562602 0.273086 -0.327338
O13   O     O_2   0.014263 0.743535 0.176697 -0.320471
O14   O     O_3   0.803890 0.772395 0.337240 -0.547577
H26   H     H_    0.875506 0.787547 0.367652 0.386354

loop_
_geom_bond_atom_site_label_1
_geom_bond_atom_site_label_2
_ccdc_geom_bond_type
C15   S1    S    
C30   H11   S    
C16   C21   A    
C34   C37   S    
C19   C20   A    
S2    O14   S    
C14   S2    S    
C4    C8    A    
C1    O2    A    
C5    C6    A    
C23   O6    A    
C28   C29   A    
C17   H5    S    
C5    C11   A    
C3    C7    A    
C30   C31   A    
C12   O4    A    
C19   H7    S    
O2    Zn2   S    
C18   C19   A    
C23   C26   S    
C15   C37   A    
C8    H18   S    
C28   H10   S    
C39   H15   S    
O3    Zn1   S    
C3    C38   A    
C8    C9    A    
C40   H16   S    
C25   C41   S    
O4    Zn2   S    
C12   C36   S    
C9    C10   A    
C16   H4    S    
C1    C22   S    
C33   N1    A    
C21   C22   A    
C6    H17   S    
C11   C15   A    
C42   H25   S    
C18   H6    S    
C13   H2    S    
C38   C39   A    
C36   C40   A    
C24   C25   A    
C42   H24   S    
C34   O8    A    
C41   H20   S    
C12   O3    A    
O11   H22   S    
C16   C17   A    
C25   C26   A    
C35   N2    A    
O7    Zn1   S    
C31   N2    A    
C2    C4    A    
S1    O9    D    
C29   C30   A    
C31   C32   A    
C38   H14   S    
C17   C18   A    
S2    O12   D    
S1    O10   D    
C22   C24   A    
C9    H13   S    
C35   H12   S    
O1    Zn1   S    
C24   H3    S    
C27   C32   A    
C36   C39   A    
S2    O13   D    
C42   H23   S    
C10   C13   A    
C1    O1    A    
C34   O7    A    
C41   H21   S    
C6    C7    A    
C23   O5    A    
C2    C3    A    
C41   H19   S    
C14   C37   A    
O6    Zn2   S    
C29   C42   S    
C20   C26   A    
N2    Zn1   S    
O5    Zn1   S    
C33   C35   A    
C7    H1    S    
S1    O11   S    
C10   C11   A    
N1    Zn2   S    
C2    C40   A    
C4    C5    A    
C20   C21   A    
O14   H26   S    
O8    Zn2   S    
C27   C28   A    
C33   H8    S    
C32   N1    A    
C13   C14   A    
C27   H9    S    
