data_str_m3_o5_o29_f0_pcu.sym.9
_audit_creation_date              2013-03-05T16:48:45-0500
_audit_creation_method            fapswitch 2.2
_symmetry_space_group_name_H-M    P1
_symmetry_Int_Tables_number       1
_space_group_crystal_system       triclinic
_cell_length_a                    27.796254
_cell_length_b                    8.929869
_cell_length_c                    8.100024
_cell_angle_alpha                 90.241134
_cell_angle_beta                  90.18842
_cell_angle_gamma                 90.083584
_cell_volume                      2010.53204573

loop_
_atom_site_label
_atom_site_type_symbol
_atom_site_description
_atom_site_fract_x
_atom_site_fract_y
_atom_site_fract_z
_atom_type_partial_charge
O1    O     O_R   0.500000 0.285350 0.636850 -0.626371
O2    O     O_R   0.500000 0.714650 0.363150 -0.613898
O3    O     O_R   0.500000 0.714650 0.636850 -0.614873
O4    O     O_R   0.500000 0.285350 0.363150 -0.589845
C1    C     C_R   0.498647 0.218042 0.499821 1.020813
C2    C     C_R   0.499262 0.782002 0.500179 1.044818
O5    O     O_R   0.428760 0.500000 0.636860 -0.631838
O6    O     O_R   0.571240 0.500000 0.363140 -0.600712
O7    O     O_R   0.571240 0.500000 0.636860 -0.608556
O8    O     O_R   0.428760 0.500000 0.363140 -0.564202
C3    C     C_R   0.406030 0.495982 0.499644 0.952899
C4    C     C_R   0.594069 0.499802 0.500315 1.004644
Zn1   Zn    Zn3+2 0.500000 0.500000 0.682780 1.046340
Zn2   Zn    Zn3+2 0.500000 0.500000 0.317220 1.074739
C5    C     C_R   0.177731 0.442330 0.382440 0.517406
C6    C     C_R   0.822333 0.498409 0.662708 0.521899
C7    C     C_R   0.177853 0.509728 0.667724 0.521855
C8    C     C_R   0.822865 0.432008 0.377162 0.518332
O9    O     O_2   0.202286 0.417180 0.241445 -0.519401
O10   O     O_2   0.797340 0.528124 0.801665 -0.510456
O11   O     O_2   0.202656 0.541513 0.807134 -0.512321
O12   O     O_2   0.798541 0.406305 0.235240 -0.512231
N1    N     N_R   0.201873 0.478195 0.524690 -0.351542
N2    N     N_R   0.798511 0.468111 0.518277 -0.352048
C9    C     C_R   0.277732 0.614031 0.561968 -0.098443
C10   C     C_R   0.720317 0.351422 0.464400 -0.092727
C11   C     C_R   0.278860 0.354521 0.475723 -0.101774
C12   C     C_R   0.723910 0.608671 0.557511 -0.105319
C13   C     C_R   0.327798 0.621265 0.552515 -0.092778
C14   C     C_R   0.670210 0.357410 0.456263 -0.082498
C15   C     C_R   0.328847 0.358102 0.459810 -0.089835
C16   C     C_R   0.673799 0.618997 0.553258 -0.088200
C17   C     C_R   0.253352 0.481892 0.523018 0.242119
C18   C     C_R   0.747069 0.475933 0.514017 0.240269
C19   C     C_R   0.101917 0.467603 0.526510 -0.046701
C20   C     C_R   0.898488 0.459772 0.524007 -0.046483
C21   C     C_R   0.127534 0.432927 0.381843 -0.024304
C22   C     C_R   0.872678 0.498029 0.667220 -0.026605
C23   C     C_R   0.127477 0.507780 0.670372 -0.026457
C24   C     C_R   0.873102 0.423724 0.378568 -0.025437
C25   C     C_R   0.102748 0.389692 0.239664 -0.141243
C26   C     C_R   0.897453 0.535827 0.811359 -0.139117
C27   C     C_R   0.102417 0.545111 0.813429 -0.140119
C28   C     C_R   0.898180 0.381059 0.237446 -0.141029
C29   C     C_R   0.353635 0.492882 0.499270 -0.177226
C30   C     C_R   0.646559 0.492555 0.501610 -0.189663
H1    H     H_    0.259066 0.252931 0.447165 0.186549
H2    H     H_    0.745437 0.705072 0.592572 0.183914
H3    H     H_    0.257225 0.712333 0.596635 0.191296
H4    H     H_    0.739078 0.248644 0.434160 0.194114
H5    H     H_    0.121762 0.360143 0.127635 0.197798
H6    H     H_    0.878360 0.566813 0.922758 0.199259
H7    H     H_    0.121283 0.577994 0.925124 0.198762
H8    H     H_    0.879372 0.349801 0.125083 0.197817
C31   C     C_R   0.974851 0.417739 0.380283 0.046543
C32   C     C_R   0.025602 0.501487 0.673295 0.046361
C33   C     C_R   0.974544 0.499078 0.672802 0.046319
C34   C     C_R   0.025859 0.420061 0.380792 0.046564
C35   C     C_R   0.949531 0.458536 0.525837 0.076097
C36   C     C_R   0.050891 0.462786 0.526980 0.075937
C37   C     C_R   0.947962 0.376951 0.238208 -0.229920
C38   C     C_R   0.052564 0.542821 0.815075 -0.230185
C39   C     C_R   0.947299 0.537015 0.814348 -0.230361
C40   C     C_R   0.053010 0.382437 0.238991 -0.229986
H9    H     H_    0.963946 0.341571 0.123918 0.146960
H10   H     H_    0.036545 0.575068 0.930437 0.147201
H11   H     H_    0.963079 0.569071 0.930564 0.147003
H12   H     H_    0.037267 0.347245 0.123827 0.146777
C41   C     C_1   0.498211 0.065211 0.499731 -0.141298
C42   C     C_1   0.498401 0.934836 0.500220 -0.133051
N3    N     N_1   0.500000 0.500000 0.073640 -0.015304
N4    N     N_1   0.500000 0.500000 0.926360 -0.021209
C43   C     C_2   0.353225 0.218280 0.403612 0.906013
O13   O     O_2   0.334616 0.096680 0.430743 -0.601618
O14   O     O_R   0.395945 0.224028 0.313745 -0.790943
H13   H     H_    0.407986 0.121063 0.280741 0.352376
C44   C     C_2   0.651587 0.764378 0.600363 0.927070
O15   O     O_2   0.671870 0.846480 0.700003 -0.583349
O16   O     O_R   0.608500 0.810440 0.527971 -0.833769
H14   H     H_    0.597796 0.911973 0.570192 0.358910
C45   C     C_2   0.351471 0.765214 0.597747 0.976826
O17   O     O_2   0.388960 0.803244 0.531557 -0.649227
O18   O     O_R   0.330011 0.859570 0.714404 -0.759902
H15   H     H_    0.349470 0.953836 0.735867 0.363712
C46   C     C_2   0.644484 0.218742 0.403775 0.936460
O19   O     O_2   0.603305 0.194868 0.448177 -0.670356
O20   O     O_R   0.668175 0.112285 0.306422 -0.766505
H16   H     H_    0.647253 0.022166 0.279936 0.368463

loop_
_geom_bond_atom_site_label_1
_geom_bond_atom_site_label_2
_geom_bond_distance
_ccdc_geom_bond_type
O20   H16   1.014012 S    
C31   C35   1.421501 A    
Zn2   N3    1.973004 S    
C20   C35   1.418898 A    
C45   O17   1.221795 D    
C44   O15   1.223761 D    
C11   C17   1.394159 A    
C5    O9    1.350559 S    
C7    N1    1.367568 A    
O1    C1    1.260433 A    
C40   H12   1.074643 S    
C19   C21   1.406803 A    
C22   C26   1.393566 A    
C10   H4    1.083801 S    
C15   C43   1.491670 S    
C34   C36   1.421926 A    
C32   C33   1.419337 A    
C7    C23   1.400583 A    
O7    Zn1   2.016035 S    
C5    C21   1.397687 A    
C1    C41   1.364793 S    
C16   C44   1.487245 S    
C27   H7    1.083478 S    
N1    C17   1.431366 S    
C8    N2    1.367987 A    
C24   C28   1.392865 A    
O3    Zn1   1.954103 S    
C6    O10   1.350217 S    
O3    C2    1.262215 A    
C5    N1    1.368100 A    
C12   C18   1.394175 A    
C6    N2    1.368227 A    
C21   C25   1.392933 A    
C43   O14   1.395841 S    
O2    C2    1.260429 A    
C45   O18   1.398972 S    
C10   C18   1.393770 A    
C33   C39   1.416321 A    
C9    H3    1.083869 S    
C44   O16   1.395085 S    
C43   O13   1.223151 D    
C9    C13   1.395406 A    
C39   H11   1.074768 S    
C38   H10   1.074804 S    
C46   O20   1.399338 S    
C11   C15   1.396152 A    
C12   C16   1.396397 A    
C4    C30   1.460562 S    
O8    Zn2   2.016037 S    
C23   C27   1.393484 A    
C34   C40   1.415955 A    
C46   O19   1.219680 D    
N2    C18   1.431995 S    
C32   C36   1.421588 A    
C13   C29   1.420003 A    
C19   C36   1.418936 A    
C19   C23   1.407720 A    
O14   H13   1.014066 S    
C13   C45   1.487144 S    
C28   H8    1.083471 S    
O5    C3    1.277020 A    
O18   H15   1.014002 S    
C20   C24   1.407142 A    
O6    C4    1.277749 A    
C9    C17   1.394385 A    
C14   C46   1.488771 S    
C10   C14   1.395254 A    
C32   C38   1.416598 A    
C3    C29   1.456598 S    
O1    Zn1   1.951029 S    
C11   H1    1.084043 S    
C2    C42   1.365030 S    
C12   H2    1.084015 S    
O6    Zn2   2.013630 S    
C8    O12   1.350395 S    
C16   C30   1.419387 A    
C14   C30   1.422570 A    
O4    C1    1.262543 A    
Zn1   N4    1.973004 S    
C28   C37   1.384273 A    
C20   C22   1.407086 A    
N3    N4    1.192971 T    
C31   C37   1.416219 A    
O4    Zn2   1.954104 S    
C41   C42   1.164275 T    
O2    Zn2   1.951029 S    
O7    C4    1.276931 A    
C7    O11   1.350056 S    
C33   C35   1.421881 A    
O8    C3    1.275877 A    
O16   H14   1.013107 S    
C37   H9    1.074658 S    
O5    Zn1   2.013633 S    
C8    C24   1.398470 A    
C15   C29   1.420697 A    
C31   C34   1.417939 A    
C6    C22   1.399774 A    
C25   C40   1.383959 A    
C26   C39   1.385691 A    
C25   H5    1.083489 S    
C27   C38   1.385973 A    
C26   H6    1.083473 S    
