data_str_m3_o14_o17_f0_pcu.sym.76
_audit_creation_date              2012-12-10T17:43:41-0500
_audit_creation_method            fapswitch 2.2
_symmetry_space_group_name_H-M    P1
_symmetry_Int_Tables_number       1
_space_group_crystal_system       triclinic
_cell_length_a                    14.920159
_cell_length_b                    10.681718
_cell_length_c                    9.972532
_cell_angle_alpha                 88.841893
_cell_angle_beta                  92.617313
_cell_angle_gamma                 93.96697
_cell_volume                      1583.65782147

loop_
_atom_site_label
_atom_site_type_symbol
_atom_type_description
_atom_site_fract_x
_atom_site_fract_y
_atom_site_fract_z
_atom_type_partial_charge
C1    C     C_R   0.502360 0.260965 0.500159 0.867428
C2    C     C_R   0.180596 0.386108 0.496847 0.403711
C3    C     C_R   0.231692 0.500732 0.491451 -0.296396
C4    C     C_R   0.327303 0.499941 0.497420 1.036049
C5    C     C_R   0.192233 0.615838 0.482444 0.393241
C6    C     C_R   0.648420 0.145590 0.645810 -0.258331
C7    C     C_R   0.701107 0.090807 0.746046 -0.279909
C8    C     C_R   0.688953 0.960900 0.773661 0.566624
C9    C     C_R   0.631060 0.887920 0.686746 -0.205422
C10   C     C_R   0.575039 0.943157 0.587207 0.021835
C11   C     C_R   0.579217 0.074065 0.575876 0.080087
C12   C     C_R   0.912205 0.613034 0.488006 0.045900
C13   C     C_R   0.512336 0.129956 0.496693 -0.084841
C14   C     C_R   0.454154 0.060512 0.408993 -0.209505
C15   C     C_R   0.456255 0.932819 0.407939 -0.193155
C16   C     C_R   0.505692 0.739874 0.499823 0.909622
C17   C     C_R   0.513481 0.873596 0.499310 -0.086602
C18   C     C_R   0.377912 0.332767 0.129199 -0.169217
C19   C     C_R   0.328079 0.240906 0.050484 0.160598
C20   C     C_R   0.358581 0.216063 0.924057 -0.303204
C21   C     C_R   0.434631 0.284018 0.877830 0.191687
C22   C     C_R   0.455283 0.403748 0.929774 0.123747
C23   C     C_R   0.940699 0.269894 0.461814 0.531044
C24   C     C_R   0.444280 0.414241 0.069937 0.103314
C25   C     C_R   0.549586 0.587736 0.072938 -0.083803
C26   C     C_R   0.546531 0.590679 0.929864 -0.118137
C27   C     C_R   0.672957 0.499066 0.502259 0.932386
C28   C     C_R   0.821433 0.609941 0.516498 0.464613
C29   C     C_R   0.768829 0.497368 0.504122 -0.179955
C30   C     C_R   0.806716 0.385703 0.476036 -0.319707
C31   C     C_R   0.899669 0.383894 0.469710 0.017180
C32   C     C_R   0.952605 0.498911 0.474688 -0.023819
C33   C     C_3   0.816725 0.727475 0.702237 -0.306466
C34   C     C_R   0.034585 0.271267 0.466154 -0.293883
C35   C     C_3   0.795595 0.972136 0.955700 -0.359154
C36   C     C_3   0.250481 0.155874 0.099295 -0.466395
C37   C     C_3   0.213526 0.192969 0.231030 -0.786123
C38   C     C_3   0.513585 0.204890 0.864347 -0.362753
C39   C     C_3   0.544458 0.145222 0.998494 -0.865258
C40   C     C_3   0.896888 0.084457 0.564434 -0.347574
C41   C     C_3   0.220542 0.239583 0.651945 -0.340051
C42   C     C_3   0.263363 0.773752 0.605465 -0.353165
C43   C     C_R   0.087304 0.384858 0.478345 -0.056421
C44   C     C_R   0.046200 0.499813 0.474153 -0.060110
C45   C     C_R   0.098549 0.615743 0.475022 0.042492
C46   C     C_R   0.056129 0.728890 0.470988 -0.190382
C47   C     C_R   0.963770 0.727498 0.480827 -0.218726
H1    H     H_    0.657994 0.245915 0.630699 0.161340
H2    H     H_    0.065971 0.183223 0.460528 0.195493
H3    H     H_    0.094233 0.818806 0.466499 0.185135
H4    H     H_    0.932875 0.816029 0.484820 0.186076
H5    H     H_    0.406193 0.105208 0.342547 0.163091
H6    H     H_    0.878098 0.677830 0.732733 0.140243
H7    H     H_    0.762735 0.692463 0.769035 0.216597
H8    H     H_    0.835003 0.827988 0.719983 0.203656
H9    H     H_    0.766715 0.049507 0.008631 0.187457
H10   H     H_    0.849719 0.008082 0.888997 0.145574
H11   H     H_    0.826956 0.911454 0.033550 0.213020
H12   H     H_    0.747661 0.152396 0.804278 0.144674
H13   H     H_    0.264103 0.177877 0.313201 0.286222
H14   H     H_    0.196181 0.292474 0.226319 0.264866
H15   H     H_    0.151922 0.132542 0.251481 0.252098
H16   H     H_    0.194542 0.155876 0.021653 0.210824
H17   H     H_    0.271937 0.058386 0.109746 0.214653
H18   H     H_    0.565590 0.218739 0.072782 0.267306
H19   H     H_    0.490032 0.081616 0.039748 0.267228
H20   H     H_    0.602629 0.088851 0.983389 0.265969
H21   H     H_    0.494207 0.128565 0.792864 0.218582
H22   H     H_    0.571662 0.264770 0.828740 0.235571
H23   H     H_    0.629788 0.787962 0.700978 0.179462
H24   H     H_    0.844052 0.006232 0.559407 0.224933
H25   H     H_    0.886505 0.138865 0.655932 0.152804
H26   H     H_    0.963120 0.042670 0.572774 0.149768
H27   H     H_    0.150544 0.216520 0.682743 0.159470
H28   H     H_    0.253782 0.313707 0.717474 0.191155
H29   H     H_    0.257501 0.153500 0.666552 0.184665
H30   H     H_    0.304475 0.710120 0.667988 0.194669
H31   H     H_    0.200521 0.789732 0.656597 0.153942
H32   H     H_    0.302582 0.865527 0.597926 0.196872
H33   H     H_    0.409599 0.879628 0.340581 0.186810
H34   H     H_    0.590708 0.658873 0.127381 0.160799
H35   H     H_    0.364565 0.339785 0.233056 0.209222
H36   H     H_    0.335481 0.128629 0.876488 0.138879
H37   H     H_    0.763838 0.300254 0.463935 0.204185
H38   H     H_    0.585006 0.664375 0.878295 0.156308
N1    N     N_R   0.499150 0.498800 0.142780 -0.121921
N2    N     N_R   0.499120 0.498720 0.857170 -0.134248
O1    O     O_R   0.500000 0.316780 0.614690 -0.643373
O2    O     O_3   0.727747 0.899032 0.884270 -0.649679
O3    O     O_3   0.888642 0.158231 0.446198 -0.602700
O4    O     O_3   0.223050 0.275649 0.515518 -0.636146
O5    O     O_3   0.245474 0.727259 0.474709 -0.611942
O6    O     O_R   0.499990 0.316750 0.385360 -0.631802
O7    O     O_R   0.367850 0.499980 0.614680 -0.632432
O8    O     O_R   0.367840 0.499960 0.385350 -0.631626
O9    O     O_R   0.500010 0.683250 0.614640 -0.642146
O10   O     O_R   0.500000 0.683220 0.385310 -0.610146
O11   O     O_R   0.632160 0.500040 0.614650 -0.631184
O12   O     O_R   0.632150 0.500020 0.385320 -0.611779
O13   O     O_3   0.785620 0.714180 0.566477 -0.643122
Zn1   Zn    Zn3+2 0.500010 0.500020 0.653130 0.931951
Zn2   Zn    Zn3+2 0.499990 0.499980 0.346870 0.959583

loop_
_geom_bond_atom_site_label_1
_geom_bond_atom_site_label_2
_ccdc_geom_bond_type
C33   H8    S    
C27   O11   A    
C40   H24   S    
C27   C29   S    
C19   C20   A    
O1    Zn1   S    
C7    C8    A    
C45   C46   A    
C27   O12   A    
C6    H1    S    
C12   C28   A    
C35   H11   S    
C18   C24   A    
C21   C22   A    
C28   C29   A    
C19   C36   S    
C30   C31   A    
C16   O10   A    
C10   C17   A    
C40   H26   S    
C8    C9    A    
C18   C19   A    
C41   H27   S    
N2    Zn1   S    
C14   H5    S    
C21   C38   S    
C15   H33   S    
O7    Zn1   S    
C16   C17   S    
C36   H16   S    
C9    C10   A    
O10   Zn2   S    
O8    Zn2   S    
C28   O13   S    
C1    O1    A    
C38   H22   S    
C42   H32   S    
C13   C14   A    
C12   C32   A    
C25   H34   S    
C39   H18   S    
C12   C47   A    
C7    H12   S    
C37   H15   S    
C33   H6    S    
C16   O9    A    
C5    O5    S    
C9    H23   S    
C6    C11   A    
C26   N2    A    
C47   H4    S    
C25   C26   A    
C5    C45   A    
C23   C31   A    
C43   C44   A    
C29   C30   A    
C41   H28   S    
C4    O8    A    
C31   C32   A    
C2    C43   A    
C23   C34   A    
C32   C44   A    
C23   O3    S    
C22   N2    A    
C4    O7    A    
C35   O2    S    
C41   O4    S    
C38   H21   S    
C42   H31   S    
C39   H19   S    
C22   C24   A    
C1    C13   S    
C3    C4    S    
N1    Zn2   S    
C44   C45   A    
C33   H7    S    
C15   C17   A    
C46   C47   A    
C36   C37   S    
C34   H2    S    
C40   H25   S    
C35   H9    S    
C39   H20   S    
C34   C43   A    
C3    C5    A    
O6    Zn2   S    
C37   H14   S    
C6    C7    A    
O11   Zn1   S    
C46   H3    S    
C35   H10   S    
C33   O13   S    
C2    C3    A    
C36   H17   S    
C41   H29   S    
C11   C13   A    
C38   C39   S    
C26   H38   S    
C25   N1    A    
C18   H35   S    
C42   O5    S    
C30   H37   S    
C2    O4    S    
C37   H13   S    
C10   C11   A    
O12   Zn2   S    
C20   C21   A    
C42   H30   S    
C1    O6    A    
C20   H36   S    
C14   C15   A    
C8    O2    S    
C40   O3    S    
O9    Zn1   S    
C24   N1    A    
