data_str_m9_o18_o19_f0_sra.sym.137
_audit_creation_date              2013-03-05T15:51:58-0500
_audit_creation_method            fapswitch 2.2
_symmetry_space_group_name_H-M    P1
_symmetry_Int_Tables_number       1
_space_group_crystal_system       triclinic
_cell_length_a                    23.303305
_cell_length_b                    7.315715
_cell_length_c                    14.613269
_cell_angle_alpha                 89.999968
_cell_angle_beta                  106.950581
_cell_angle_gamma                 89.999282
_cell_volume                      2383.04552427

loop_
_atom_site_label
_atom_site_type_symbol
_atom_site_description
_atom_site_fract_x
_atom_site_fract_y
_atom_site_fract_z
_atom_type_partial_charge
O1    O     O_R   0.711000 0.648610 0.341170 -0.573623
O2    O     O_R   0.289000 0.351390 0.658830 -0.589162
O3    O     O_R   0.789000 0.148610 0.158830 -0.573620
O4    O     O_R   0.211000 0.851390 0.841170 -0.589191
O5    O     O_R   0.829650 0.322030 0.336650 -0.584948
O6    O     O_R   0.170350 0.677970 0.663350 -0.575003
O7    O     O_R   0.670350 0.822030 0.163350 -0.584944
O8    O     O_R   0.329650 0.177970 0.836650 -0.575005
C1    C     C_R   0.854335 0.485759 0.356873 0.954228
C2    C     C_R   0.145665 0.514241 0.643129 0.954031
C3    C     C_R   0.645665 0.985760 0.143126 0.954236
C4    C     C_R   0.354335 0.014239 0.856871 0.954045
O9    O     O_R   0.713950 0.319280 0.352070 -0.593445
O10   O     O_R   0.286050 0.680720 0.647930 -0.577553
O11   O     O_R   0.786050 0.819280 0.147930 -0.593441
O12   O     O_R   0.213950 0.180720 0.852070 -0.577552
O13   O     O_R   0.672470 0.142870 0.174360 -0.574952
O14   O     O_R   0.327530 0.857130 0.825640 -0.583356
O15   O     O_R   0.827530 0.642870 0.325640 -0.574953
O16   O     O_R   0.172470 0.357130 0.674360 -0.583346
C5    C     C_R   0.701259 0.486977 0.377589 0.901682
C6    C     C_R   0.298687 0.512432 0.622243 0.903314
C7    C     C_R   0.798744 0.986975 0.122413 0.901678
C8    C     C_R   0.201313 0.012431 0.877757 0.903292
O17   O     O_3   0.736530 0.478650 0.191680 -0.280778
O18   O     O_3   0.263470 0.521350 0.808320 -0.282533
O19   O     O_3   0.763470 0.978650 0.308320 -0.280782
O20   O     O_3   0.236530 0.021350 0.691680 -0.282506
V1    V     V_3+5 0.752500 0.206170 0.260820 1.182188
V2    V     V_3+5 0.247500 0.793830 0.739180 1.182600
V3    V     V_3+5 0.747500 0.706170 0.239180 1.182190
V4    V     V_3+5 0.252500 0.293830 0.760820 1.182605
C9    C     C_R   0.832283 0.987895 0.050461 -0.127530
C10   C     C_R   0.168860 0.000103 0.951184 -0.134408
C11   C     C_R   0.667722 0.487902 0.449543 -0.127517
C12   C     C_R   0.331139 0.500117 0.548818 -0.134381
C13   C     C_R   0.838023 0.030372 0.887738 0.077329
C14   C     C_R   0.163301 0.035386 0.114630 0.073611
C15   C     C_R   0.661985 0.530370 0.612267 0.077359
C16   C     C_R   0.336695 0.535443 0.385373 0.073472
C17   C     C_R   0.808154 0.058615 0.957800 -0.257162
C18   C     C_R   0.192691 0.068839 0.044396 -0.250831
C19   C     C_R   0.691854 0.558612 0.542205 -0.257183
C20   C     C_R   0.307303 0.568855 0.455608 -0.250798
C21   C     C_R   0.889538 0.909999 0.075676 -0.185234
C22   C     C_R   0.112200 0.918088 0.925889 -0.186851
C23   C     C_R   0.610466 0.410022 0.424326 -0.185234
C24   C     C_R   0.387805 0.418138 0.574114 -0.186876
C25   C     C_R   0.922399 0.893298 0.008603 0.088628
C26   C     C_R   0.079519 0.897083 0.993030 0.088818
C27   C     C_R   0.577606 0.393328 0.491399 0.088623
C28   C     C_R   0.420487 0.397160 0.506974 0.088883
C29   C     C_R   0.892523 0.929513 0.911186 -0.066550
C30   C     C_R   0.109236 0.932323 0.090702 -0.066498
C31   C     C_R   0.607483 0.429522 0.588817 -0.066541
C32   C     C_R   0.390769 0.432413 0.409302 -0.066485
C33   C     C_R   0.985479 0.861599 0.036048 0.028911
C34   C     C_R   0.016533 0.863154 0.965391 0.028987
C35   C     C_R   0.514524 0.361658 0.463953 0.028903
C36   C     C_R   0.483471 0.363215 0.534611 0.028985
C37   C     C_R   0.982569 0.848154 0.869110 -0.331382
C38   C     C_R   0.019429 0.845975 0.132242 -0.330204
C39   C     C_R   0.517436 0.348189 0.630892 -0.331390
C40   C     C_R   0.480574 0.346053 0.367759 -0.330151
C41   C     C_R   0.920862 0.877126 0.841372 0.324654
C42   C     C_R   0.080977 0.877296 0.160244 0.324294
C43   C     C_R   0.579144 0.377136 0.658629 0.324648
C44   C     C_R   0.419025 0.377374 0.339760 0.324286
H1    H     H_    0.094010 0.877679 0.852157 0.116647
H2    H     H_    0.907665 0.867043 0.149018 0.114309
H3    H     H_    0.405997 0.377730 0.647848 0.116640
H4    H     H_    0.592338 0.367075 0.350983 0.114307
H5    H     H_    0.234271 0.145527 0.062672 0.169579
H6    H     H_    0.765964 0.132139 0.939717 0.164741
H7    H     H_    0.265714 0.645499 0.437332 0.169581
H8    H     H_    0.734045 0.632130 0.560288 0.164740
H9    H     H_    0.002988 0.818330 0.813505 0.176061
H10   H     H_    0.999076 0.814357 0.187707 0.176407
H11   H     H_    0.497017 0.318364 0.686496 0.176064
H12   H     H_    0.500924 0.314428 0.312292 0.176402
C45   C     C_1   0.416864 0.007100 0.918891 -0.271274
C46   C     C_1   0.583137 0.992914 0.081105 -0.271725
C47   C     C_1   0.083136 0.507104 0.581108 -0.271259
C48   C     C_1   0.916863 0.492910 0.418895 -0.271726
C49   C     C_1   0.469133 0.002489 0.969984 0.093992
C50   C     C_1   0.530868 0.997550 0.030013 0.093674
C51   C     C_1   0.030867 0.502491 0.530015 0.093984
C52   C     C_1   0.969133 0.497548 0.469987 0.093666
N1    N     N_R   0.887770 0.849143 0.742721 0.234842
O21   O     O_R   0.911678 0.889428 0.675116 -0.413963
O22   O     O_R   0.838113 0.756171 0.721190 -0.474805
N2    N     N_R   0.113861 0.850075 0.259049 0.234831
O23   O     O_R   0.089634 0.890284 0.326292 -0.414072
O24   O     O_R   0.163565 0.757409 0.281089 -0.477014
N3    N     N_R   0.612236 0.349140 0.757280 0.234842
O25   O     O_R   0.588328 0.389412 0.824887 -0.413966
O26   O     O_R   0.661898 0.256185 0.778808 -0.474801
N4    N     N_R   0.386136 0.350084 0.240965 0.234837
O27   O     O_R   0.410347 0.390309 0.173706 -0.414077
O28   O     O_R   0.336449 0.257335 0.218953 -0.476973
C53   C     C_R   0.818341 0.130149 0.795563 0.088707
C54   C     C_R   0.764795 0.083427 0.726273 0.011444
C55   C     C_R   0.753283 0.146902 0.632404 -0.083690
C56   C     C_R   0.795018 0.259004 0.607607 -0.088478
C57   C     C_R   0.846995 0.314167 0.677230 -0.010546
C58   C     C_R   0.858547 0.251082 0.771059 -0.171225
H13   H     H_    0.733870 0.989855 0.743488 0.141303
H14   H     H_    0.712667 0.105984 0.578461 0.125200
H15   H     H_    0.787094 0.304040 0.534581 0.111329
H16   H     H_    0.878910 0.402657 0.658095 0.144547
H17   H     H_    0.900232 0.288846 0.823534 0.124615
C59   C     C_R   0.183025 0.132166 0.207735 0.087757
C60   C     C_R   0.236839 0.084676 0.276153 0.013913
C61   C     C_R   0.248949 0.146297 0.370436 -0.086131
C62   C     C_R   0.207480 0.257167 0.396655 -0.086644
C63   C     C_R   0.155068 0.312616 0.328024 -0.009929
C64   C     C_R   0.142905 0.251251 0.233745 -0.168641
H18   H     H_    0.267638 0.992288 0.257785 0.141436
H19   H     H_    0.289868 0.105002 0.423580 0.123719
H20   H     H_    0.215980 0.300872 0.470051 0.110856
H21   H     H_    0.123324 0.400101 0.348252 0.142341
H22   H     H_    0.100971 0.289416 0.182018 0.124475
C65   C     C_R   0.681662 0.630159 0.704438 0.088716
C66   C     C_R   0.735209 0.583458 0.773732 0.011421
C67   C     C_R   0.746717 0.646958 0.867597 -0.083730
C68   C     C_R   0.704978 0.759060 0.892384 -0.088466
C69   C     C_R   0.652998 0.814195 0.822757 -0.010532
C70   C     C_R   0.641451 0.751090 0.728932 -0.171252
H23   H     H_    0.766137 0.489886 0.756526 0.141313
H24   H     H_    0.787335 0.606063 0.921544 0.125215
H25   H     H_    0.712900 0.804118 0.965406 0.111313
H26   H     H_    0.621080 0.902684 0.841884 0.144547
H27   H     H_    0.599765 0.788837 0.676453 0.124616
C71   C     C_R   0.316928 0.632107 0.292234 0.087720
C72   C     C_R   0.263100 0.584502 0.223888 0.013943
C73   C     C_R   0.250937 0.645957 0.129570 -0.085992
C74   C     C_R   0.292371 0.756787 0.103242 -0.086760
C75   C     C_R   0.344792 0.812392 0.171803 -0.010000
C76   C     C_R   0.357008 0.751181 0.266117 -0.168305
H28   H     H_    0.232328 0.492151 0.242344 0.141410
H29   H     H_    0.210008 0.604553 0.076486 0.123639
H30   H     H_    0.283836 0.800332 0.029816 0.111001
H31   H     H_    0.376506 0.899856 0.151485 0.142287
H32   H     H_    0.398952 0.789445 0.317786 0.124463

loop_
_geom_bond_atom_site_label_1
_geom_bond_atom_site_label_2
_geom_bond_distance
_ccdc_geom_bond_type
O17   V3    1.792812 S    
C47   C51   1.229619 T    
C57   H16   1.082435 S    
O1    C5    1.342924 A    
C53   C54   1.400850 A    
O19   V1    1.792805 S    
O13   V1    1.978623 S    
C57   C58   1.396532 A    
O3    C7    1.342932 A    
N3    O25   1.301623 A    
C10   C18   1.405553 A    
C74   H30   1.080708 S    
O4    V2    1.965013 S    
O15   V3    1.978613 S    
C61   C62   1.398001 A    
C65   C70   1.408684 A    
C15   C65   1.482323 S    
C72   C73   1.397986 A    
C39   H11   1.076902 S    
C49   C50   1.450712 S    
O18   V4    1.792814 S    
C35   C40   1.402326 A    
C26   C30   1.416647 A    
C36   C39   1.403127 A    
C40   C44   1.391002 A    
O9    V1    1.992066 S    
C14   C18   1.411459 A    
C75   H31   1.082459 S    
C59   C64   1.408800 A    
O4    C8    1.339846 A    
C62   C63   1.395674 A    
C2    C47   1.475564 S    
O1    V3    1.965017 S    
C9    C21   1.397860 A    
C63   C64   1.397237 A    
O2    V4    1.965020 S    
C4    C45   1.475562 S    
O3    V1    1.965016 S    
C69   H26   1.082431 S    
C59   C60   1.400662 A    
C22   H1    1.077831 S    
C28   C36   1.425971 A    
C17   H6    1.083643 S    
C67   H24   1.082499 S    
C1    O15   1.324130 A    
C15   C31   1.421646 A    
C2    O16   1.324127 A    
C7    C9    1.481768 S    
O2    C6    1.339847 A    
C55   H14   1.082500 S    
C10   C22   1.398366 A    
N1    O22   1.299378 A    
C11   C19   1.404777 A    
C16   C20   1.411450 A    
C61   H19   1.082501 S    
C13   C29   1.421650 A    
C34   C37   1.403122 A    
O11   C7    1.340126 A    
C11   C23   1.397850 A    
C35   C36   1.423232 A    
O12   C8    1.344560 A    
C16   C32   1.421715 A    
C43   N3    1.437582 S    
C40   H12   1.076830 S    
O10   V2    1.992069 S    
C56   C57   1.395191 A    
O5    V1    2.004246 S    
C58   H17   1.083346 S    
C3    C46   1.475566 S    
C72   H28   1.075262 S    
C39   C43   1.391809 A    
O7    V3    2.004224 S    
C63   H21   1.082453 S    
C38   C42   1.391000 A    
C26   C34   1.425978 A    
C65   C66   1.400852 A    
C37   H9    1.076904 S    
C71   C76   1.408802 A    
C42   N2    1.437515 S    
C33   C38   1.402323 A    
C46   C50   1.229622 T    
C16   C71   1.482960 S    
C8    C10   1.484779 S    
O8    V4    2.004228 S    
C20   H7    1.083539 S    
O7    C3    1.324325 A    
C64   H22   1.083300 S    
O5    C1    1.324328 A    
C73   H29   1.082505 S    
C23   C27   1.414094 A    
C76   H32   1.083296 S    
C31   C43   1.420082 A    
C14   C30   1.421710 A    
C21   C25   1.414108 A    
O8    C4    1.324326 A    
N2    O24   1.298971 A    
O9    C5    1.340123 A    
C54   H13   1.075619 S    
O14   V2    1.978624 S    
O6    V2    2.004244 S    
C62   H20   1.080720 S    
N4    O28   1.298989 A    
C67   C68   1.398297 A    
C12   C20   1.405544 A    
C27   C35   1.425373 A    
C24   H3    1.077834 S    
C14   C59   1.482921 S    
C69   C70   1.396527 A    
C29   C41   1.420086 A    
C60   C61   1.398016 A    
O16   V4    1.978610 S    
C53   C58   1.408682 A    
C22   C26   1.414912 A    
C3    O13   1.324133 A    
C18   H5    1.083542 S    
C21   H2    1.077906 S    
C38   H10   1.076831 S    
C48   C52   1.229622 T    
C73   C74   1.397972 A    
O6    C2    1.324329 A    
C25   C33   1.425385 A    
C15   C19   1.410999 A    
N3    O26   1.299378 A    
O11   V3    1.992076 S    
C71   C72   1.400632 A    
C30   C42   1.420809 A    
O12   V4    1.992077 S    
C6    C12   1.484748 S    
C74   C75   1.395675 A    
C41   N1    1.437582 S    
C9    C17   1.404775 A    
O10   C6    1.344543 A    
O20   V2    1.792807 S    
C5    C11   1.481743 S    
C32   C44   1.420786 A    
C70   H27   1.083344 S    
C13   C53   1.482324 S    
C33   C34   1.423237 A    
C56   H15   1.080073 S    
C68   H25   1.080073 S    
C68   C69   1.395187 A    
C25   C29   1.415469 A    
N2    O23   1.301672 A    
C66   H23   1.075622 S    
C12   C24   1.398351 A    
C27   C31   1.415464 A    
C13   C17   1.411002 A    
C54   C55   1.398108 A    
C44   N4    1.437500 S    
C23   H4    1.077906 S    
C75   C76   1.397262 A    
C1    C48   1.475567 S    
C60   H18   1.075319 S    
C37   C41   1.391807 A    
C24   C28   1.414906 A    
C51   C52   1.450714 S    
N4    O27   1.301662 A    
C4    O14   1.324129 A    
C55   C56   1.398294 A    
C19   H8    1.083645 S    
N1    O21   1.301627 A    
C45   C49   1.229620 T    
C28   C32   1.416661 A    
C66   C67   1.398115 A    
