data_str_m9_o2_o17_f0_sra.sym.102
_audit_creation_date              2013-03-05T16:02:01-0500
_audit_creation_method            fapswitch 2.2
_symmetry_space_group_name_H-M    P1
_symmetry_Int_Tables_number       1
_space_group_crystal_system       triclinic
_cell_length_a                    6.933477
_cell_length_b                    17.658018
_cell_length_c                    19.350029
_cell_angle_alpha                 108.451823
_cell_angle_beta                  89.695241
_cell_angle_gamma                 90.5507
_cell_volume                      2247.1493726

loop_
_atom_site_label
_atom_site_type_symbol
_atom_site_description
_atom_site_fract_x
_atom_site_fract_y
_atom_site_fract_z
_atom_type_partial_charge
O1    O     O_R   0.494330 0.415720 0.413720 -0.581025
O2    O     O_R   0.819330 0.430070 0.560210 -0.625709
O3    O     O_R   0.994320 0.584280 0.586280 -0.588077
C1    C     C_R   0.649916 0.414979 0.581807 1.016104
O4    O     O_R   0.823730 0.406300 0.412670 -0.597692
O5    O     O_R   0.998760 0.560340 0.437690 -0.596840
C2    C     C_R   0.654975 0.382867 0.385643 0.943319
O6    O     O_R   0.489890 0.439660 0.562310 -0.581603
O7    O     O_3   0.662340 0.550560 0.508380 -0.274816
V1    V     V_3+5 0.935370 0.490620 0.498450 1.147736
O8    O     O_R   0.328750 0.569930 0.439790 -0.602806
C3    C     C_R   0.160545 0.584920 0.418079 0.953635
O9    O     O_R   0.324340 0.593700 0.587330 -0.593772
C4    C     C_R   0.156324 0.614375 0.616231 0.932781
V2    V     V_3+5 0.435940 0.509380 0.501550 1.166834
O10   O     O_3   0.159100 0.449440 0.491620 -0.275609
H1    H     H_    0.044785 0.852315 0.549633 0.146160
C5    C     C_R   0.209287 0.597026 0.758520 -0.182673
C6    C     C_R   0.233613 0.586510 0.826294 -0.112682
C7    C     C_R   0.220902 0.651416 0.889522 -0.107507
C8    C     C_R   0.183321 0.727301 0.885480 -0.157190
C9    C     C_R   0.157861 0.740045 0.817403 0.130045
C10   C     C_R   0.171693 0.673408 0.752691 0.120462
C11   C     C_R   0.115335 0.817186 0.813380 -0.295507
C12   C     C_R   0.084569 0.826951 0.743294 -0.056832
C13   C     C_R   0.112434 0.760568 0.678894 0.113654
C14   C     C_R   0.148411 0.683876 0.683739 -0.278494
C15   C     C_R   0.025626 0.900377 0.734025 0.343558
C16   C     C_R   0.014902 0.908674 0.664632 -0.136135
C17   C     C_R   0.054869 0.845171 0.603047 -0.243000
C18   C     C_R   0.100726 0.771680 0.609702 -0.133347
H2    H     H_    0.220560 0.544696 0.710848 0.092617
H3    H     H_    0.262431 0.527659 0.829738 0.109775
H4    H     H_    0.239512 0.642921 0.942089 0.113926
H5    H     H_    0.172932 0.775499 0.936407 0.090109
H6    H     H_    0.966951 0.964325 0.658310 0.170777
H7    H     H_    0.126387 0.723596 0.559686 0.104310
C19   C     C_R   0.993944 0.627600 0.322000 -0.244448
C20   C     C_R   0.152179 0.634440 0.368975 -0.148859
C21   C     C_R   0.302045 0.688637 0.368679 -0.276829
C22   C     C_R   0.293459 0.736391 0.322932 0.163235
C23   C     C_R   0.135802 0.728313 0.275191 0.065814
C24   C     C_R   0.985869 0.673444 0.274584 0.142261
C25   C     C_R   0.439082 0.792581 0.324510 -0.235774
C26   C     C_R   0.427596 0.841193 0.279985 -0.156969
C27   C     C_R   0.272471 0.833245 0.231501 -0.033563
C28   C     C_R   0.127372 0.775534 0.228344 -0.041388
C29   C     C_R   0.971825 0.765939 0.179437 0.157536
C30   C     C_R   0.824114 0.710853 0.179059 -0.180245
C31   C     C_R   0.830295 0.665490 0.226613 -0.219144
C32   C     C_R   0.257410 0.882940 0.187200 0.556059
C33   C     C_R   0.110935 0.868564 0.133767 -0.325221
C34   C     C_R   0.966894 0.811220 0.131534 -0.318518
H8    H     H_    0.878363 0.585609 0.321495 0.136109
H9    H     H_    0.423685 0.694771 0.405091 0.145000
H10   H     H_    0.561264 0.799505 0.360753 0.137171
H11   H     H_    0.541748 0.884466 0.283101 0.169177
H12   H     H_    0.850505 0.801877 0.092435 0.169174
H13   H     H_    0.702872 0.703247 0.142300 0.132214
H14   H     H_    0.713574 0.623945 0.225685 0.131731
C35   C     C_R   0.754650 0.199059 0.881574 -0.168838
C36   C     C_R   0.625379 0.134416 0.869412 -0.128907
C37   C     C_R   0.507614 0.113398 0.807363 -0.128217
C38   C     C_R   0.514914 0.157068 0.757946 -0.055040
C39   C     C_R   0.636770 0.224773 0.772546 -0.001883
C40   C     C_R   0.759948 0.244861 0.833817 0.190750
C41   C     C_R   0.406812 0.133197 0.693042 0.617999
C42   C     C_R   0.401024 0.182084 0.648434 -0.349154
C43   C     C_R   0.512447 0.252436 0.664605 -0.080389
C44   C     C_R   0.637973 0.271639 0.725163 -0.021389
C45   C     C_R   0.765885 0.337225 0.738167 0.194228
C46   C     C_R   0.890476 0.355644 0.798330 -0.202897
C47   C     C_R   0.886724 0.310194 0.845948 -0.217592
C48   C     C_R   0.505795 0.302499 0.620060 0.559302
C49   C     C_R   0.640189 0.365993 0.631429 -0.316470
C50   C     C_R   0.769030 0.382657 0.690350 -0.362659
H15   H     H_    0.848197 0.214408 0.928823 0.105749
H16   H     H_    0.412504 0.061980 0.797215 0.192886
H17   H     H_    0.313606 0.162860 0.599652 0.192532
H18   H     H_    0.870300 0.432055 0.699531 0.152460
H19   H     H_    0.990364 0.405559 0.808790 0.125383
H20   H     H_    0.983420 0.326069 0.892240 0.126451
H21   H     H_    0.842927 0.133298 0.425412 0.118105
C51   C     C_R   0.571840 0.411417 0.251572 -0.165246
C52   C     C_R   0.529183 0.428970 0.188568 -0.195767
C53   C     C_R   0.500517 0.367875 0.124017 -0.251338
C54   C     C_R   0.510871 0.287462 0.121242 0.554921
C55   C     C_R   0.574279 0.267699 0.183852 -0.048111
C56   C     C_R   0.596059 0.331646 0.250831 0.076829
C57   C     C_R   0.621063 0.188019 0.181994 -0.314168
C58   C     C_R   0.686872 0.174157 0.246639 0.089594
C59   C     C_R   0.694198 0.237777 0.313699 0.117840
C60   C     C_R   0.646427 0.316104 0.315841 -0.276115
C61   C     C_R   0.742024 0.096880 0.246488 -0.181328
C62   C     C_R   0.797596 0.082707 0.310350 -0.137159
C63   C     C_R   0.800768 0.144675 0.375837 -0.105201
C64   C     C_R   0.749475 0.221363 0.377852 -0.136120
H22   H     H_    0.591534 0.461708 0.300505 0.119162
H23   H     H_    0.516453 0.490499 0.189962 0.140459
H24   H     H_    0.466766 0.383130 0.075503 0.139563
H25   H     H_    0.737976 0.045733 0.197727 0.154315
H26   H     H_    0.836754 0.023043 0.309026 0.119852
H27   H     H_    0.753498 0.267435 0.430325 0.106209
O11   O     O_R   0.775200 0.060470 0.937800 -0.547739
O12   O     O_R   0.441110 0.093720 0.087350 -0.569828
O13   O     O_R   0.266330 0.939630 0.062280 -0.564547
C65   C     C_R   0.610404 0.119090 0.113311 1.040797
O14   O     O_R   0.445750 0.069950 0.939820 -0.604377
O15   O     O_R   0.271000 0.915700 0.913700 -0.589683
C66   C     C_R   0.615365 0.086761 0.919854 1.096046
O16   O     O_R   0.770530 0.084400 0.086380 -0.628550
O17   O     O_3   0.602830 0.949510 0.991680 -0.269549
V3    V     V_3+5 0.329710 0.009370 0.001550 1.212446
O18   O     O_R   0.940990 0.906170 0.912570 -0.559210
C67   C     C_R   0.108756 0.886295 0.882497 0.997622
O19   O     O_R   0.936350 0.929940 0.060100 -0.611143
C68   C     C_R   0.104121 0.915696 0.082436 0.984309
V4    V     V_3+5 0.829160 0.990450 0.998310 1.217892
O20   O     O_3   0.105910 0.050480 0.008320 -0.298706
O21   O     O_3   0.378398 0.948604 0.199212 -0.627104
C69   C     C_3   0.281152 0.015177 0.246356 -0.236399
H28   H     H_    0.253346 0.007422 0.300467 0.135718
H29   H     H_    0.143968 0.026970 0.222157 0.123612
H30   H     H_    0.371639 0.069215 0.255412 0.180713
O22   O     O_3   0.311050 0.060582 0.671265 -0.614776
C70   C     C_3   0.439253 0.003405 0.627452 -0.264831
H31   H     H_    0.366010 0.944571 0.608930 0.184642
H32   H     H_    0.569112 0.996905 0.658677 0.160405
H33   H     H_    0.482799 0.018330 0.577781 0.134643
O23   O     O_3   0.380492 0.285557 0.561528 -0.642436
C71   C     C_3   0.196835 0.315968 0.587346 -0.139525
H34   H     H_    0.202512 0.381276 0.616736 0.133164
H35   H     H_    0.131824 0.284452 0.623339 0.119067
H36   H     H_    0.099531 0.306281 0.539953 0.173538
O24   O     O_3   0.465210 0.229469 0.056269 -0.672720
C72   C     C_3   0.265403 0.233210 0.042915 -0.148896
H37   H     H_    0.224517 0.290646 0.035136 0.093061
H38   H     H_    0.177548 0.222527 0.087330 0.135902
H39   H     H_    0.227626 0.186276 0.991433 0.189116
N1    N     N_R   0.938288 0.961522 0.791354 0.208811
O25   O     O_R   0.015381 0.032591 0.811912 -0.431719
O26   O     O_R   0.755793 0.953056 0.803102 -0.449379

loop_
_geom_bond_atom_site_label_1
_geom_bond_atom_site_label_2
_geom_bond_distance
_ccdc_geom_bond_type
O11   C66   1.296260 A    
C54   C55   1.434944 A    
C70   H31   1.105328 S    
C22   C23   1.411722 A    
C62   C63   1.387684 A    
C15   N1    1.417855 S    
C1    O6    1.296601 A    
C71   H36   1.109268 S    
O18   C67   1.298536 A    
O24   C72   1.416589 S    
C52   C53   1.381676 A    
O21   C69   1.413697 S    
C12   C15   1.427716 A    
O12   C65   1.297904 A    
C16   H6    1.083511 S    
C26   H11   1.083354 S    
C13   C14   1.411399 A    
C16   C17   1.382337 A    
O16   V4    2.009365 S    
O12   V3    1.999404 S    
C15   C16   1.398494 A    
N1    O26   1.299956 A    
C57   C65   1.492821 S    
C55   C56   1.431791 A    
C41   O22   1.380984 S    
O5    C3    1.296551 A    
C17   C18   1.384151 A    
V2    O10   2.162787 S    
O19   C68   1.297291 A    
C5    C6    1.392804 A    
V4    O20   2.162863 S    
C1    C49   1.482801 S    
V3    O20   1.706232 S    
O8    V2    1.989281 S    
C35   C40   1.407686 A    
C6    C7    1.389729 A    
C61   H25   1.080324 S    
C35   H15   1.084490 S    
C42   C43   1.405721 A    
C69   H30   1.103923 S    
C36   C66   1.477726 S    
C44   C45   1.410417 A    
O1    V2    2.003441 S    
C10   C14   1.413997 A    
C4    C14   1.483654 S    
C53   H24   1.082686 S    
O7    V1    2.155623 S    
C46   H19   1.083669 S    
C62   H26   1.082904 S    
O15   V3    2.001437 S    
C7    H4    1.082658 S    
C33   C68   1.485249 S    
C35   C36   1.405067 A    
C42   H17   1.083007 S    
C13   C18   1.416139 A    
C8    C9    1.417017 A    
H1    C17   1.082832 S    
C61   C62   1.393117 A    
C72   H39   1.106259 S    
O17   V3    2.155591 S    
C59   C64   1.416622 A    
O11   V4    1.992382 S    
C29   C34   1.403457 A    
C2    C60   1.486330 S    
C48   C49   1.414094 A    
O13   V3    1.997676 S    
C41   C42   1.401638 A    
C38   C41   1.409098 A    
C54   O24   1.382939 S    
C51   C52   1.383692 A    
C19   C20   1.408207 A    
C11   C12   1.437457 A    
C72   H38   1.113595 S    
C6    H3    1.082700 S    
C20   C21   1.407092 A    
O4    C2    1.293818 A    
C53   C54   1.406371 A    
C72   H37   1.110972 S    
C70   H33   1.113618 S    
C12   C13   1.428763 A    
C26   C27   1.407531 A    
C40   C47   1.403542 A    
C27   C32   1.412333 A    
C32   C33   1.415957 A    
O14   V3    2.000120 S    
O2    C1    1.297941 A    
C49   C50   1.406370 A    
C36   C37   1.403045 A    
C52   H23   1.082702 S    
C25   H10   1.083727 S    
C28   C29   1.411814 A    
C19   H8    1.084510 S    
C34   H12   1.084328 S    
C21   H9    1.084302 S    
C63   C64   1.391912 A    
C32   O21   1.383816 S    
C43   C48   1.417779 A    
C64   H27   1.081926 S    
N1    O25   1.300848 A    
C69   H28   1.113715 S    
O18   V4    2.003513 S    
O3    C4    1.296332 A    
C21   C22   1.404356 A    
C55   C57   1.436236 A    
C39   C40   1.414065 A    
O6    V2    1.991893 S    
C48   O23   1.384944 S    
O13   C68   1.298519 A    
O22   C70   1.412667 S    
C22   C25   1.402397 A    
C9    C11   1.422517 A    
C5    H2    1.082568 S    
C51   C56   1.415730 A    
C71   H34   1.113127 S    
O2    V1    2.000179 S    
C47   H20   1.083630 S    
C58   C59   1.423113 A    
C33   C34   1.406396 A    
C27   C28   1.412748 A    
C29   C30   1.404106 A    
C70   H32   1.113808 S    
O1    C2    1.295686 A    
C65   O16   1.297792 A    
C25   C26   1.398455 A    
C50   H18   1.084852 S    
C46   C47   1.400437 A    
C71   H35   1.111375 S    
O5    V1    1.997862 S    
O8    C3    1.299313 A    
O14   C66   1.296715 A    
C24   C31   1.403601 A    
C8    H5    1.081723 S    
C30   H13   1.083667 S    
C31   H14   1.083437 S    
C38   C39   1.411484 A    
C3    C20   1.482664 S    
O9    V2    2.003690 S    
O23   C71   1.412804 S    
O7    V2    1.711647 S    
C51   H22   1.081928 S    
C19   C24   1.404230 A    
O3    V1    2.001445 S    
V1    O10   1.706223 S    
C58   C61   1.419784 A    
O17   V4    1.709753 S    
C57   C58   1.426471 A    
C45   C50   1.403386 A    
C5    C10   1.415332 A    
H21   C63   1.082652 S    
C59   C60   1.413066 A    
O19   V4    1.989213 S    
C23   C28   1.414353 A    
C56   C60   1.415889 A    
C43   C44   1.413943 A    
C69   H29   1.112469 S    
O15   C67   1.302736 A    
C37   C38   1.406068 A    
C18   H7    1.081718 S    
O4    V1    1.999558 S    
C45   C46   1.404609 A    
C7    C8    1.393859 A    
C11   C67   1.499088 S    
C30   C31   1.399234 A    
C23   C24   1.411779 A    
C9    C10   1.424745 A    
O9    C4    1.294264 A    
C39   C44   1.416206 A    
C37   H16   1.083882 S    
