data_str_m9_o11_o16_f0_sra.sym.63
_audit_creation_date              2012-12-11T14:17:47-0500
_audit_creation_method            fapswitch 2.2
_symmetry_space_group_name_H-M    P1
_symmetry_Int_Tables_number       1
_space_group_crystal_system       triclinic
_cell_length_a                    6.944117
_cell_length_b                    13.629812
_cell_length_c                    20.406812
_cell_angle_alpha                 102.122737
_cell_angle_beta                  90.114861
_cell_angle_gamma                 90.714556
_cell_volume                      1888.20451117

loop_
_atom_site_label
_atom_site_type_symbol
_atom_type_description
_atom_site_fract_x
_atom_site_fract_y
_atom_site_fract_z
_atom_type_partial_charge
O1    O     O_R   0.506860 0.599390 0.449240 -0.538890
O2    O     O_R   0.180220 0.594600 0.586780 -0.542432
O3    O     O_R   0.004500 0.400610 0.550760 -0.538462
C1    C     C_R   0.349268 0.616136 0.613442 0.742968
O4    O     O_R   0.177490 0.611290 0.451970 -0.539981
O5    O     O_R   0.001750 0.417420 0.414990 -0.540063
C2    C     C_R   0.346893 0.638011 0.435281 0.701680
O6    O     O_R   0.509610 0.582580 0.585010 -0.542307
O7    O     O_3   0.337420 0.436370 0.488020 -0.372564
V1    V     V_3+5 0.064680 0.511800 0.502220 1.439053
O8    O     O_R   0.671710 0.405400 0.413220 -0.547901
C3    C     C_R   0.839453 0.383525 0.386716 0.758253
O9    O     O_R   0.674440 0.388710 0.548030 -0.540349
C4    C     C_R   0.842633 0.362030 0.564821 0.687349
V2    V     V_3+5 0.564010 0.488200 0.497780 1.433022
O10   O     O_3   0.841140 0.563630 0.511980 -0.370406
C5    C     C_R   0.849405 0.107718 0.610848 -0.106694
C6    C     C_R   0.849461 0.282262 0.603030 -0.122375
C7    C     C_R   0.866153 0.314895 0.927295 -0.154142
C8    C     C_R   0.863884 0.390382 0.891047 -0.124522
C9    C     C_R   0.859980 0.366682 0.821227 -0.143812
C10   C     C_R   0.858221 0.265472 0.785403 0.092639
C11   C     C_R   0.859755 0.188469 0.823022 0.025970
C12   C     C_R   0.855339 0.238346 0.713766 0.009304
C13   C     C_R   0.853353 0.135107 0.681345 0.020856
C14   C     C_R   0.855066 0.060010 0.719228 0.352533
C15   C     C_R   0.858391 0.087279 0.789301 -0.277647
C16   C     C_R   0.853998 0.310490 0.673018 -0.236949
C17   C     C_R   0.847091 0.179678 0.571354 0.317018
C18   C     C_R   0.863710 0.214279 0.894108 -0.057593
H1    H     H_    0.865657 0.468184 0.917292 0.122077
C19   C     C_2   0.006088 0.286286 0.286977 -0.223079
C20   C     C_2   0.841934 0.312705 0.320858 -0.337951
H2    H     H_    0.140910 0.318212 0.309428 0.139777
C21   C     C_2   0.019518 0.212786 0.220984 0.392612
C22   C     C_2   0.864187 0.184833 0.180473 -0.310981
C23   C     C_2   0.204448 0.791123 0.781986 -0.130027
C24   C     C_2   0.363313 0.815925 0.819872 -0.298938
H3    H     H_    0.066734 0.821277 0.801133 0.123946
H4    H     H_    0.501832 0.786145 0.801987 0.126025
C25   C     C_2   0.203151 0.722744 0.714438 -0.116551
C26   C     C_2   0.361418 0.684521 0.680172 -0.299761
H5    H     H_    0.061953 0.703931 0.691994 0.137691
C27   C     C_R   0.399698 0.887893 0.387173 -0.135110
H6    H     H_    0.396427 0.837758 0.480044 0.120654
H7    H     H_    0.423507 0.012609 0.303827 0.129369
H8    H     H_    0.420900 0.965738 0.412081 0.136540
C28   C     C_R   0.358144 0.714787 0.395100 -0.039847
C29   C     C_R   0.327303 0.685254 0.071262 -0.270371
C30   C     C_R   0.311180 0.608416 0.107014 0.414761
C31   C     C_R   0.322199 0.631824 0.176902 -0.159764
C32   C     C_R   0.349251 0.731975 0.212920 0.002248
C33   C     C_R   0.365789 0.809289 0.175773 0.055590
C34   C     C_R   0.360079 0.757980 0.284509 0.094367
C35   C     C_R   0.387448 0.860310 0.316990 0.132704
C36   C     C_R   0.402865 0.934504 0.279372 -0.186646
C37   C     C_R   0.392240 0.909617 0.209960 -0.167629
C38   C     C_R   0.345173 0.686128 0.325285 -0.212374
C39   C     C_R   0.385628 0.815437 0.425970 -0.160000
C40   C     C_R   0.354619 0.784770 0.104926 -0.111350
H9    H     H_    0.308508 0.569329 0.201293 0.132937
H10   H     H_    0.405156 0.970139 0.183269 0.139677
O11   O     O_R   0.203230 0.917310 0.915020 -0.543526
O12   O     O_R   0.535500 0.888690 0.048040 -0.544334
O13   O     O_R   0.711080 0.082610 0.085000 -0.547697
C41   C     C_R   0.366142 0.862181 0.064908 0.711655
O14   O     O_R   0.532630 0.905370 0.913230 -0.551079
O15   O     O_R   0.708190 0.099410 0.949230 -0.539799
C42   C     C_R   0.364177 0.884298 0.886499 0.732639
O16   O     O_R   0.206120 0.900510 0.050790 -0.538330
O17   O     O_3   0.375360 0.063570 0.011990 -0.360716
V3    V     V_3+5 0.648170 0.988200 0.997780 1.431868
O18   O     O_R   0.038240 0.111390 0.951940 -0.541682
C43   C     C_R   0.870092 0.137585 0.934830 0.685808
O19   O     O_R   0.041120 0.094710 0.086750 -0.503111
C44   C     C_R   0.873469 0.115369 0.113835 0.782832
V4    V     V_3+5 0.148810 0.011930 0.002180 1.485048
O20   O     O_3   0.871750 0.936430 0.988010 -0.382370
O21   O     O_3   0.842529 0.145849 0.502559 -0.646624
H11   H     H_    0.844808 0.203356 0.479991 0.273542
H12   H     H_    0.704625 0.280665 0.301321 0.127030
O22   O     O_3   0.197513 0.173594 0.200173 -0.635586
H13   H     H_    0.294299 0.198996 0.235640 0.269441
H14   H     H_    0.723147 0.214217 0.195507 0.093802
H15   H     H_    0.504544 0.702973 0.700516 0.127078
O23   O     O_3   0.853478 0.960074 0.686748 -0.652425
H16   H     H_    0.854525 0.917072 0.720378 0.280663
H17   H     H_    0.324656 0.607192 0.304718 0.095541
H18   H     H_    0.318061 0.667636 0.017000 0.098122
O24   O     O_3   0.283863 0.509397 0.075151 -0.644042
H19   H     H_    0.278378 0.505077 0.026049 0.284427
H20   H     H_    0.847680 0.029404 0.585551 0.183785
H21   H     H_    0.855129 0.389914 0.693924 0.110737
H22   H     H_    0.870137 0.334981 0.981569 0.121896
H23   H     H_    0.858691 0.429725 0.797142 0.103850
H24   H     H_    0.859894 0.028095 0.817337 0.107402

loop_
_geom_bond_atom_site_label_1
_geom_bond_atom_site_label_2
_ccdc_geom_bond_type
C35   C36   A    
C5    C17   A    
C25   C26   D    
C4    C6    S    
C21   C22   D    
C31   H9    S    
C1    O6    A    
C37   H10   S    
V4    O20   S    
C14   C15   A    
C29   C40   A    
O5    C3    A    
C18   C43   S    
C27   C39   A    
O15   C43   A    
V2    O10   S    
C36   C37   A    
O14   V3    S    
O18   C43   A    
V3    O20   S    
C22   C44   S    
O8    V2    S    
C33   C40   A    
O11   C42   A    
C30   O24   S    
O1    V2    S    
C11   C15   A    
O7    V1    S    
C27   H8    S    
O15   V3    S    
O11   V4    S    
C24   C42   S    
C40   C41   S    
O9    C4    A    
O16   V4    S    
C25   H5    S    
C15   H24   S    
C5    H20   S    
C21   O22   S    
C32   C34   A    
C31   C32   A    
C19   C21   S    
C6    C16   A    
C12   C13   A    
C26   H15   S    
O4    C2    A    
C33   C37   A    
O23   H16   S    
C7    H22   S    
C9    H23   S    
C13   C14   A    
C16   H21   S    
O14   C42   A    
O12   C41   A    
O2    C1    A    
O19   C44   A    
C11   C18   A    
C23   C24   D    
O19   V4    S    
C17   O21   S    
C14   O23   S    
C30   C31   A    
C6    C17   A    
O13   C44   A    
O3    C4    A    
O22   H13   S    
O6    V2    S    
O9    V2    S    
C10   C12   A    
O2    V1    S    
O17   V4    S    
C32   C33   A    
C28   C39   A    
C34   C38   A    
C34   C35   A    
H6    C39   S    
O1    C2    A    
C12   C16   A    
C29   H18   S    
C38   H17   S    
O5    V1    S    
O8    C3    A    
C28   C38   A    
O13   V3    S    
C5    C13   A    
C19   C20   D    
C7    C8    A    
O7    V2    S    
O4    V1    S    
C23   H3    S    
O3    V1    S    
V1    O10   S    
C2    C28   S    
C24   H4    S    
C27   C35   A    
O24   H19   S    
C41   O16   A    
C1    C26   S    
C22   H14   S    
O12   V3    S    
C23   C25   S    
O21   H11   S    
O17   V3    S    
C8    C9    A    
C29   C30   A    
H7    C36   S    
O18   V4    S    
C10   C11   A    
C3    C20   S    
C9    C10   A    
C7    C18   A    
C20   H12   S    
C19   H2    S    
C8    H1    S    
