data_str_m2_o10_o26_f0_pcu.sym.113
_audit_creation_date              2012-12-10T16:48:44-0500
_audit_creation_method            fapswitch 2.2
_symmetry_space_group_name_H-M    P1
_symmetry_Int_Tables_number       1
_space_group_crystal_system       triclinic
_cell_length_a                    17.304119
_cell_length_b                    8.639766
_cell_length_c                    7.446582
_cell_angle_alpha                 103.015514
_cell_angle_beta                  90.813328
_cell_angle_gamma                 93.529426
_cell_volume                      1082.18087335

loop_
_atom_site_label
_atom_site_type_symbol
_atom_type_description
_atom_site_fract_x
_atom_site_fract_y
_atom_site_fract_z
_atom_type_partial_charge
C1    C     C_R   0.487838 0.199570 0.455578 0.856924
C2    C     C_R   0.490814 0.797729 0.547969 0.819002
C3    C     C_2   0.463567 0.030842 0.432300 -0.040676
C4    C     C_2   0.468395 0.961482 0.577094 -0.084418
C5    C     C_R   0.350568 0.497639 0.523898 0.761280
C6    C     C_R   0.648288 0.501022 0.475356 0.796000
C7    C     C_R   0.265910 0.504445 0.540372 -0.070098
C8    C     C_R   0.731461 0.502272 0.462854 -0.040829
C9    C     C_R   0.212544 0.463209 0.385756 0.157410
C10   C     C_R   0.779102 0.640071 0.542546 0.137950
C11   C     C_R   0.135676 0.499284 0.414326 -0.157425
C12   C     C_R   0.858921 0.626767 0.556738 -0.151832
C13   C     C_R   0.107885 0.551937 0.591375 0.147407
C14   C     C_R   0.890679 0.479030 0.494685 0.145531
C15   C     C_R   0.159181 0.587427 0.742880 -0.178148
C16   C     C_R   0.842835 0.345769 0.408532 -0.170313
C17   C     C_R   0.237620 0.565714 0.717396 -0.239594
C18   C     C_R   0.763608 0.357328 0.392697 -0.230121
C19   C     C_2   0.024446 0.565963 0.615497 -0.226950
C20   C     C_2   0.974143 0.461318 0.504643 -0.218041
Cu1   Cu    Cu3+1 0.508700 0.517250 0.683000 0.931820
Cu2   Cu    Cu3+1 0.491300 0.482750 0.317000 0.919502
H1    H     H_    0.726913 0.251525 0.332589 0.139539
H2    H     H_    0.276325 0.598347 0.837455 0.162057
H3    H     H_    0.995571 0.357359 0.412830 0.148223
H4    H     H_    0.005017 0.660936 0.723440 0.145566
H5    H     H_    0.138556 0.631088 0.880586 0.131362
H6    H     H_    0.866674 0.231682 0.356415 0.131991
H7    H     H_    0.895671 0.732502 0.615264 0.128656
H8    H     H_    0.096174 0.481530 0.296182 0.136749
H9    H     H_    0.434716 0.387945 0.960790 0.226968
H10   H     H_    0.563717 0.616410 0.040595 0.227849
N1    N     N_2   0.478180 0.456750 0.041980 -0.233274
N2    N     N_2   0.521820 0.543250 0.958020 -0.219065
O1    O     O_R   0.505650 0.286040 0.618880 -0.584125
O2    O     O_R   0.494350 0.713960 0.381120 -0.600744
O3    O     O_R   0.490960 0.256910 0.309800 -0.582857
O4    O     O_R   0.509040 0.743090 0.690200 -0.593609
O5    O     O_R   0.394600 0.516230 0.672450 -0.594349
O6    O     O_R   0.605400 0.483770 0.327550 -0.574902
O7    O     O_R   0.379910 0.487100 0.363380 -0.609897
O8    O     O_R   0.620090 0.512900 0.636620 -0.576991
C21   C     C_3   0.230472 0.379019 0.188976 -0.411129
C22   C     C_3   0.182689 0.219955 0.126914 -0.870166
H11   H     H_    0.190270 0.144651 0.227798 0.260471
H12   H     H_    0.120218 0.238213 0.112221 0.248149
H13   H     H_    0.202074 0.155427 0.990507 0.248237
H14   H     H_    0.217024 0.457171 0.094419 0.199629
H15   H     H_    0.290784 0.350570 0.166684 0.228874
C23   C     C_3   0.747241 0.801615 0.613807 -0.415384
C24   C     C_3   0.766902 0.913567 0.486524 -0.854339
H16   H     H_    0.830613 0.934510 0.478911 0.250013
H17   H     H_    0.742019 0.862167 0.345833 0.251423
H18   H     H_    0.741977 0.029841 0.540571 0.246002
H19   H     H_    0.683435 0.793272 0.626451 0.206871
H20   H     H_    0.772046 0.854829 0.754246 0.202120
C25   C     C_3   0.422381 0.944620 0.251072 -0.368253
C26   C     C_3   0.348923 0.023619 0.215638 -0.884706
H21   H     H_    0.309668 0.030031 0.333417 0.253268
H22   H     H_    0.362700 0.144885 0.195765 0.274261
H23   H     H_    0.318050 0.952444 0.089247 0.246540
H24   H     H_    0.463210 0.941112 0.137361 0.201680
H25   H     H_    0.400785 0.821218 0.249596 0.245164
C27   C     C_3   0.438806 0.039354 0.765583 -0.370342
C28   C     C_3   0.357983 0.099726 0.750948 -0.842659
H26   H     H_    0.358098 0.191674 0.668469 0.255241
H27   H     H_    0.316125 0.999184 0.686473 0.250295
H28   H     H_    0.338006 0.154338 0.889823 0.229314
H29   H     H_    0.432499 0.950636 0.851394 0.217564
H30   H     H_    0.480536 0.134545 0.841682 0.228336

loop_
_geom_bond_atom_site_label_1
_geom_bond_atom_site_label_2
_ccdc_geom_bond_type
C16   H6    S    
C7    C17   A    
C2    C4    S    
C21   C22   S    
H9    N1    S    
C15   C17   A    
Cu1   O1    S    
C27   H30   S    
C12   H7    S    
C11   C13   A    
C21   H14   S    
C4    C27   S    
C15   H5    S    
C23   H19   S    
Cu1   O5    S    
C22   H13   S    
C1    O3    A    
C23   H20   S    
C28   H28   S    
Cu2   O6    S    
C27   C28   S    
C24   H18   S    
C26   H23   S    
C5    O5    A    
C23   C24   S    
C3    C4    D    
C25   H24   S    
C10   C23   S    
C27   H29   S    
C2    O4    A    
C19   H4    S    
C9    C11   A    
C25   C26   S    
C10   C12   A    
Cu2   O2    S    
C3    C25   S    
C16   C18   A    
C22   H12   S    
C25   H25   S    
C6    O6    A    
C13   C15   A    
C24   H16   S    
C14   C16   A    
C9    C21   S    
C17   H2    S    
C28   H27   S    
C20   H3    S    
C13   C19   S    
C26   H22   S    
C18   H1    S    
Cu2   O7    S    
C7    C9    A    
N1    N2    D    
C22   H11   S    
C1    O1    A    
C14   C20   S    
C8    C10   A    
C28   H26   S    
C6    O8    A    
C2    O2    A    
C5    C7    S    
Cu2   N1    S    
C5    O7    A    
C21   H15   S    
C6    C8    S    
Cu1   O8    S    
C1    C3    S    
C26   H21   S    
Cu1   Cu2   S    
Cu2   O3    S    
Cu1   N2    S    
C8    C18   A    
Cu1   O4    S    
C19   C20   D    
C11   H8    S    
C12   C14   A    
C24   H17   S    
H10   N2    S    
