data_str_m3_o10_o28_f0_pcu.sym.61
_audit_creation_date              2012-12-10T16:58:30-0500
_audit_creation_method            fapswitch 2.2
_symmetry_space_group_name_H-M    P1
_symmetry_Int_Tables_number       1
_space_group_crystal_system       triclinic
_cell_length_a                    7.735706
_cell_length_b                    8.558252
_cell_length_c                    23.43728
_cell_angle_alpha                 90.829544
_cell_angle_beta                  86.306607
_cell_angle_gamma                 93.600701
_cell_volume                      1545.28042079

loop_
_atom_site_label
_atom_site_type_symbol
_atom_type_description
_atom_site_fract_x
_atom_site_fract_y
_atom_site_fract_z
_atom_type_partial_charge
C1    C     C_R   0.545867 0.794836 0.498576 0.972202
C2    C     C_R   0.610434 0.419161 0.294965 -0.248420
C3    C     C_R   0.384181 0.585200 0.763852 -0.065188
C4    C     C_R   0.612024 0.416883 0.235871 -0.064016
C5    C     C_R   0.504480 0.504437 0.791644 0.226783
C6    C     C_R   0.494271 0.501922 0.208522 0.235100
C7    C     C_2   0.570139 0.958234 0.497647 -0.300760
C8    C     C_2   0.429822 0.041752 0.502211 -0.315791
C9    C     C_R   0.502584 0.496313 0.610584 0.912580
C10   C     C_R   0.497539 0.504154 0.389463 0.930009
C11   C     C_R   0.453581 0.365441 0.119460 0.515574
C12   C     C_R   0.454119 0.205161 0.501367 0.970875
C13   C     C_R   0.542263 0.641690 0.880689 0.518917
C14   C     C_R   0.542387 0.638463 0.119421 0.522004
C15   C     C_R   0.454581 0.368431 0.880721 0.523580
C16   C     C_R   0.542255 0.642410 0.059926 -0.019277
C17   C     C_R   0.453630 0.364716 0.940235 -0.018920
C18   C     C_R   0.497862 0.503175 0.030034 -0.017837
C19   C     C_R   0.497618 0.504051 0.970133 -0.018300
C20   C     C_R   0.453818 0.363049 0.059890 -0.018516
C21   C     C_R   0.541585 0.644201 0.940273 -0.018915
C22   C     C_R   0.585301 0.781588 0.029832 -0.160722
C23   C     C_R   0.627115 0.419133 0.760525 -0.155931
C24   C     C_R   0.410280 0.225606 0.970333 -0.160722
C25   C     C_R   0.584846 0.782501 0.970475 -0.164818
C26   C     C_R   0.410362 0.224781 0.029694 -0.164986
C27   C     C_R   0.375552 0.590350 0.240134 -0.173260
C28   C     C_R   0.629528 0.410885 0.701039 0.345587
C29   C     C_R   0.374538 0.597205 0.299602 0.346674
C30   C     C_R   0.508279 0.495024 0.672713 -0.179118
C31   C     C_R   0.492111 0.507776 0.327414 -0.157885
C32   C     C_R   0.386447 0.581056 0.704756 -0.215158
H1    H     H_    0.619379 0.890044 0.051985 0.196755
H2    H     H_    0.704793 0.349224 0.211226 0.168452
H3    H     H_    0.702658 0.009261 0.493268 0.198405
H4    H     H_    0.297303 0.990725 0.506590 0.195414
H5    H     H_    0.013923 0.382100 0.457294 0.204433
H6    H     H_    0.986061 0.617834 0.542727 0.206302
H7    H     H_    0.578420 0.121453 0.637036 0.342780
H8    H     H_    0.008844 0.560741 0.338187 0.344496
H9    H     H_    0.376372 0.117116 0.948177 0.196755
H10   H     H_    0.618766 0.891570 0.948403 0.195768
H11   H     H_    0.376347 0.115727 0.051767 0.195839
H12   H     H_    0.718547 0.357099 0.783352 0.193321
H13   H     H_    0.286091 0.655811 0.217731 0.192279
H14   H     H_    0.292811 0.646055 0.684009 0.193324
H15   H     H_    0.701603 0.350642 0.315408 0.184544
H16   H     H_    0.288608 0.650615 0.788158 0.168645
N1    N     N_R   0.497446 0.501696 0.147714 -0.352905
N2    N     N_R   0.499564 0.505177 0.852447 -0.352210
N3    N     N_2   0.950330 0.457950 0.484560 -0.119200
N4    N     N_2   0.049670 0.542050 0.515440 -0.116733
O1    O     O_R   0.389250 0.738570 0.503790 -0.600360
O2    O     O_2   0.586904 0.773762 0.851042 -0.521091
O3    O     O_2   0.587921 0.769730 0.148908 -0.516379
O4    O     O_2   0.410315 0.236926 0.851177 -0.519735
O5    O     O_2   0.924399 0.386456 0.636211 -0.265448
O6    O     O_2   0.852524 0.181679 0.706825 -0.268741
O7    O     O_3   0.678820 0.176193 0.615825 -0.537605
O8    O     O_2   0.328054 0.820291 0.379966 -0.273433
O9    O     O_2   0.162968 0.835727 0.295073 -0.265824
O10   O     O_3   0.064861 0.620912 0.369152 -0.525470
O11   O     O_R   0.610750 0.261430 0.496210 -0.592041
O12   O     O_R   0.678390 0.711620 0.493890 -0.624893
O13   O     O_R   0.321610 0.288380 0.506110 -0.628314
O14   O     O_R   0.355400 0.513520 0.588790 -0.611153
O15   O     O_R   0.644600 0.486480 0.411210 -0.622603
O16   O     O_R   0.644550 0.486570 0.578900 -0.562386
O17   O     O_R   0.355450 0.513430 0.421100 -0.566806
O18   O     O_2   0.408330 0.233434 0.149082 -0.519156
S1    S     S_3+6 0.778277 0.287243 0.665199 0.051166
S2    S     S_3+6 0.232427 0.725572 0.336151 0.053181
Zn1   Zn    Zn3+2 0.306930 0.518000 0.506610 1.051429
Zn2   Zn    Zn3+2 0.693070 0.482000 0.493390 1.047852

loop_
_geom_bond_atom_site_label_1
_geom_bond_atom_site_label_2
_ccdc_geom_bond_type
C25   H10   S    
C2    C4    A    
C1    O12   A    
O17   Zn1   S    
C11   N1    A    
O11   Zn2   S    
C2    H15   S    
C27   C29   A    
C12   O13   A    
C6    C27   A    
C5    C23   A    
N3    Zn2   S    
C8    C12   S    
C29   S2    S    
H7    O7    S    
C15   O4    S    
C27   H13   S    
C28   C30   A    
C14   O3    S    
C11   O18   S    
O10   S2    S    
C7    C8    D    
C29   C31   A    
O15   Zn2   S    
C1    C7    S    
C10   O15   A    
O5    S1    D    
C30   C32   A    
C24   H9    S    
O14   Zn1   S    
C21   C25   A    
C20   C26   A    
C9    C30   S    
C22   H1    S    
C10   C31   S    
O9    S2    D    
H8    O10   S    
C17   C19   A    
C24   C26   A    
C26   H11   S    
N4    Zn1   S    
C18   C20   A    
C6    N1    S    
C3    C32   A    
H5    N3    S    
C4    H2    S    
C5    N2    S    
C9    O16   A    
C14   N1    A    
H6    N4    S    
O6    S1    D    
O8    S2    D    
C32   H14   S    
O16   Zn2   S    
C13   N2    A    
C17   C24   A    
C10   O17   A    
C3    H16   S    
C13   C21   A    
O13   Zn1   S    
C28   S1    S    
C16   C18   A    
C13   O2    S    
C8    H4    S    
C15   N2    A    
O7    S1    S    
C15   C17   A    
C12   O11   A    
O12   Zn2   S    
C9    O14   A    
C18   C19   A    
C1    O1    A    
C19   C21   A    
C14   C16   A    
C23   C28   A    
C4    C6    A    
C7    H3    S    
C11   C20   A    
O1    Zn1   S    
C23   H12   S    
N3    N4    D    
C16   C22   A    
C2    C31   A    
C3    C5    A    
C22   C25   A    
