data_str_m3_o10_o16_f0_pcu.sym.58
_audit_creation_date              2012-12-10T16:51:32-0500
_audit_creation_method            fapswitch 2.2
_symmetry_space_group_name_H-M    P1
_symmetry_Int_Tables_number       1
_space_group_crystal_system       triclinic
_cell_length_a                    7.825838
_cell_length_b                    8.556805
_cell_length_c                    12.080068
_cell_angle_alpha                 92.363366
_cell_angle_beta                  101.474677
_cell_angle_gamma                 94.049289
_cell_volume                      789.518802398

loop_
_atom_site_label
_atom_site_type_symbol
_atom_type_description
_atom_site_fract_x
_atom_site_fract_y
_atom_site_fract_z
_atom_type_partial_charge
C1    C     C_R   0.047633 0.794835 0.505019 1.010159
C2    C     C_R   0.159681 0.508059 0.832860 -0.116614
C3    C     C_2   0.071795 0.959417 0.509030 -0.397223
C4    C     C_R   0.106630 0.505451 0.710558 0.864745
C5    C     C_2   0.951959 0.048085 0.540799 -0.194060
C6    C     C_R   0.958924 0.205978 0.509920 0.849638
C7    C     C_R   0.892252 0.488706 0.289375 0.889245
C8    C     C_R   0.797739 0.270108 0.008448 -0.186493
C9    C     C_R   0.829700 0.454205 0.169408 -0.062644
C10   C     C_R   0.077786 0.605267 0.898703 -0.205044
C11   C     C_R   0.141417 0.627755 0.014110 -0.113215
C12   C     C_R   0.388000 0.475431 0.995299 -0.015389
C13   C     C_R   0.295144 0.562685 0.064603 -0.026738
C14   C     C_2   0.830104 0.000765 0.616517 0.429268
C15   C     C_2   0.340245 0.569954 0.189842 0.381098
C16   C     C_R   0.304250 0.429509 0.883294 0.079610
C17   C     C_R   0.561971 0.434870 0.030442 0.075771
C18   C     C_R   0.629539 0.317701 0.968312 0.180757
C19   C     C_R   0.528447 0.250956 0.867287 -0.235280
C20   C     C_R   0.368949 0.308621 0.823754 -0.181828
C21   C     C_R   0.674609 0.514781 0.121795 -0.285544
C22   C     C_R   0.895431 0.334453 0.111541 -0.190873
H1    H     H_    0.017157 0.286533 0.148096 0.149764
H2    H     H_    0.964356 0.664347 0.860774 0.199334
H3    H     H_    0.410733 0.478272 0.233152 0.069970
H4    H     H_    0.173846 0.006043 0.467239 0.169464
H5    H     H_    0.849729 0.178929 0.962966 0.151626
H6    H     H_    0.639859 0.619899 0.161771 0.157560
H7    H     H_    0.069434 0.695718 0.064181 0.177981
H8    H     H_    0.295981 0.256797 0.743513 0.167387
H9    H     H_    0.707960 0.055488 0.611166 0.061423
H10   H     H_    0.470026 0.371858 0.418731 0.176250
H11   H     H_    0.530269 0.626975 0.582333 0.205704
H12   H     H_    0.575871 0.159228 0.819555 0.153897
N1    N     N_2   0.434800 0.456690 0.470850 -0.162542
N2    N     N_2   0.565200 0.543310 0.529150 -0.154664
O1    O     O_R   0.893060 0.738880 0.507150 -0.574621
O2    O     O_2   0.300001 0.678571 0.245648 -0.560884
O3    O     O_R   0.172250 0.711130 0.488470 -0.598867
O4    O     O_R   0.944700 0.520730 0.667600 -0.595387
O5    O     O_R   0.223890 0.492980 0.648920 -0.625872
O6    O     O_R   0.827750 0.288870 0.511530 -0.640603
O7    O     O_R   0.106940 0.261120 0.492850 -0.620255
O8    O     O_R   0.776110 0.507020 0.351080 -0.625077
O9    O     O_R   0.055300 0.479270 0.332400 -0.585335
O10   O     O_2   0.869933 0.908117 0.689802 -0.587738
Zn1   Zn    Zn3+2 0.813580 0.518530 0.512470 0.974310
Zn2   Zn    Zn3+2 0.186420 0.481470 0.487530 0.967823

loop_
_geom_bond_atom_site_label_1
_geom_bond_atom_site_label_2
_ccdc_geom_bond_type
C12   C17   A    
O4    Zn1   S    
C8    C22   A    
C15   O2    D    
O1    Zn1   S    
C2    C16   A    
O7    Zn2   S    
C2    C4    S    
N1    N2    D    
O8    Zn1   S    
C1    O1    A    
C14   H9    S    
C16   C20   A    
C3    C5    D    
C17   C18   A    
C14   O10   D    
C20   H8    S    
C7    O8    A    
C11   C13   A    
C9    C21   A    
C5    C14   S    
C12   C16   A    
N1    Zn2   S    
C7    O9    A    
C21   H6    S    
O6    Zn1   S    
C13   C15   S    
C6    O6    A    
C5    C6    S    
C17   C21   A    
C9    C22   A    
C15   H3    S    
C4    O5    A    
C1    O3    A    
C2    C10   A    
H10   N1    S    
C4    O4    A    
H11   N2    S    
C12   C13   A    
C11   H7    S    
N2    Zn1   S    
C18   C19   A    
C10   C11   A    
O9    Zn2   S    
C7    C9    S    
C8    H5    S    
C6    O7    A    
C10   H2    S    
C22   H1    S    
O5    Zn2   S    
C3    H4    S    
C8    C18   A    
C19   C20   A    
O3    Zn2   S    
C1    C3    S    
C19   H12   S    
