data_str_m9_o18_o22_f0_sra.sym.172
_audit_creation_date              2013-03-05T15:52:17-0500
_audit_creation_method            fapswitch 2.2
_symmetry_space_group_name_H-M    P1
_symmetry_Int_Tables_number       1
_space_group_crystal_system       triclinic
_cell_length_a                    21.423599
_cell_length_b                    7.24932
_cell_length_c                    14.799287
_cell_angle_alpha                 90.006363
_cell_angle_beta                  74.19823
_cell_angle_gamma                 89.998788
_cell_volume                      2211.56734163

loop_
_atom_site_label
_atom_site_type_symbol
_atom_site_description
_atom_site_fract_x
_atom_site_fract_y
_atom_site_fract_z
_atom_type_partial_charge
O1    O     O_R   0.464160 0.506670 0.130070 -0.584007
O2    O     O_R   0.535840 0.006670 0.869930 -0.583995
O3    O     O_R   0.589710 0.179080 0.006710 -0.600140
O4    O     O_R   0.410290 0.679080 0.993290 -0.600130
C1    C     C_R   0.616025 0.344590 0.003353 0.873268
C2    C     C_R   0.383976 0.844592 0.996638 0.873275
O5    O     O_R   0.467940 0.177220 0.138010 -0.589217
O6    O     O_R   0.532060 0.677220 0.861990 -0.589211
O7    O     O_R   0.413200 0.002810 0.002170 -0.591790
O8    O     O_R   0.586800 0.502810 0.997830 -0.591791
C3    C     C_R   0.456204 0.345775 0.174316 0.905346
C4    C     C_R   0.543798 0.845750 0.825685 0.905346
O9    O     O_3   0.482180 0.337850 0.955280 -0.285307
O10   O     O_3   0.517820 0.837850 0.044720 -0.285335
V1    V     V_3+5 0.503310 0.064600 0.008300 1.151379
V2    V     V_3+5 0.496690 0.564600 0.991700 1.151406
C5    C     C_R   0.571849 0.856464 0.724267 -0.077834
C6    C     C_R   0.428164 0.356610 0.275739 -0.078032
C7    C     C_R   0.929103 0.860929 0.276188 -0.107526
C8    C     C_R   0.070895 0.360784 0.723811 -0.107690
C9    C     C_R   0.561017 0.926522 0.570000 -0.168366
C10   C     C_R   0.438914 0.428222 0.429894 -0.168298
C11   C     C_R   0.533030 0.902447 0.665768 -0.175757
C12   C     C_R   0.466924 0.403711 0.334158 -0.175679
C13   C     C_R   0.638758 0.834156 0.687210 -0.243255
C14   C     C_R   0.361288 0.333653 0.312849 -0.243248
C15   C     C_R   0.668704 0.859160 0.590173 0.105380
C16   C     C_R   0.331310 0.359210 0.409844 0.105337
C17   C     C_R   0.628301 0.907066 0.531974 0.173219
C18   C     C_R   0.371657 0.408195 0.467959 0.173182
C19   C     C_R   0.737143 0.840746 0.549410 0.065970
C20   C     C_R   0.262889 0.340397 0.450634 0.065917
C21   C     C_R   0.764105 0.876012 0.451331 0.051246
C22   C     C_R   0.235886 0.376264 0.548652 0.051370
C23   C     C_R   0.721532 0.922504 0.396709 -0.135776
C24   C     C_R   0.278408 0.423778 0.603195 -0.135592
C25   C     C_R   0.655165 0.936856 0.436372 -0.232001
C26   C     C_R   0.344759 0.438558 0.563509 -0.231954
C27   C     C_R   0.779396 0.786257 0.603162 -0.198082
C28   C     C_R   0.220693 0.284998 0.396961 -0.198084
C29   C     C_R   0.845495 0.765873 0.562834 -0.240679
C30   C     C_R   0.154610 0.264322 0.437306 -0.240596
C31   C     C_R   0.872504 0.799980 0.467665 0.188327
C32   C     C_R   0.127562 0.298972 0.532417 0.188227
C33   C     C_R   0.832599 0.859018 0.410731 0.088497
C34   C     C_R   0.167408 0.358877 0.589275 0.088513
C35   C     C_R   0.939309 0.772255 0.428587 -0.170122
C36   C     C_R   0.060782 0.270886 0.571520 -0.170070
C37   C     C_R   0.967164 0.799039 0.332971 -0.195188
C38   C     C_R   0.032897 0.298096 0.667098 -0.195083
C39   C     C_R   0.863010 0.895257 0.314858 -0.166542
C40   C     C_R   0.136957 0.395505 0.685105 -0.166161
H1    H     H_    0.624504 0.972655 0.391548 0.137981
H2    H     H_    0.375378 0.475189 0.608269 0.137931
H3    H     H_    0.836799 0.946530 0.267585 0.146289
H4    H     H_    0.163122 0.447263 0.732337 0.146031
H5    H     H_    0.018306 0.770710 0.303104 0.106178
H6    H     H_    0.981785 0.269413 0.696999 0.106253
H7    H     H_    0.875772 0.721178 0.606686 0.129716
H8    H     H_    0.124379 0.218946 0.393516 0.129705
H9    H     H_    0.530111 0.963083 0.525688 0.124488
H10   H     H_    0.469777 0.465647 0.474140 0.124489
H11   H     H_    0.481244 0.921712 0.694485 0.112796
H12   H     H_    0.518679 0.423537 0.305397 0.112881
H13   H     H_    0.665871 0.802826 0.736801 0.096883
H14   H     H_    0.334213 0.301495 0.263312 0.096970
H15   H     H_    0.737609 0.946469 0.322204 0.158507
H16   H     H_    0.262302 0.448311 0.677652 0.158074
H17   H     H_    0.762985 0.754354 0.676843 0.124638
H18   H     H_    0.237138 0.252620 0.323334 0.124642
H19   H     H_    0.969760 0.725442 0.471726 0.121453
H20   H     H_    0.030379 0.223412 0.528442 0.121468
C41   C     C_3   0.225455 0.716000 0.927640 -0.269428
C42   C     C_3   0.774530 0.216213 0.072437 -0.269511
H21   H     H_    0.205725 0.577481 0.952136 0.196130
H22   H     H_    0.794245 0.077633 0.048019 0.196310
H23   H     H_    0.218147 0.734591 0.856767 0.183973
H24   H     H_    0.781841 0.235001 0.143298 0.184007
C43   C     C_3   0.298871 0.718432 0.922108 -0.365415
C44   C     C_3   0.701114 0.218661 0.077967 -0.365510
H25   H     H_    0.327249 0.760634 0.850411 0.166567
H26   H     H_    0.672741 0.261083 0.149635 0.166630
H27   H     H_    0.314334 0.575908 0.933808 0.166389
H28   H     H_    0.685634 0.076104 0.066362 0.166388
H29   H     H_    0.171489 0.677416 0.118878 0.174572
H30   H     H_    0.828500 0.177073 0.881222 0.174612
H31   H     H_    0.279562 0.656649 0.112249 0.156342
H32   H     H_    0.720425 0.156295 0.887868 0.156327
C45   C     C_3   0.195500 0.812144 0.095914 -0.459197
C46   C     C_3   0.804500 0.311862 0.904102 -0.459207
C47   C     C_3   0.221771 0.057236 0.970906 0.303250
C48   C     C_3   0.778249 0.557313 0.028958 0.303400
C49   C     C_3   0.188070 0.864599 0.997561 -0.050623
C50   C     C_3   0.811931 0.364606 0.002424 -0.050620
H33   H     H_    0.197053 0.157839 0.026128 0.055447
H34   H     H_    0.802982 0.657766 0.973682 0.055386
C51   C     C_3   0.313015 0.852955 0.996149 0.078695
C52   C     C_3   0.686987 0.352956 0.003836 0.078739
C53   C     C_3   0.268326 0.799630 0.094191 -0.338642
C54   C     C_3   0.731673 0.299335 0.905831 -0.338644
C55   C     C_3   0.293972 0.050167 0.972084 -0.469422
C56   C     C_3   0.706051 0.550244 0.027769 -0.469425
H35   H     H_    0.326575 0.094504 0.903374 0.188874
H36   H     H_    0.673447 0.594799 0.096444 0.188873
H37   H     H_    0.301424 0.150086 0.025379 0.142531
H38   H     H_    0.698616 0.649990 0.974399 0.142492
H39   H     H_    0.170824 0.916773 0.148631 0.145107
H40   H     H_    0.829184 0.416343 0.851321 0.145114
H41   H     H_    0.277761 0.892781 0.148801 0.142095
H42   H     H_    0.722247 0.392313 0.851158 0.142155
O11   O     O_R   0.913210 0.208550 0.002110 -0.587340
O12   O     O_R   0.086790 0.708550 0.997890 -0.587396
O13   O     O_R   0.032060 0.539960 0.861980 -0.603061
O14   O     O_R   0.967940 0.039960 0.138020 -0.602996
C57   C     C_R   0.043518 0.372279 0.825422 0.968174
C58   C     C_R   0.956483 0.872305 0.174578 0.968187
O15   O     O_R   0.910290 0.538020 0.993280 -0.574898
O16   O     O_R   0.089710 0.038020 0.006720 -0.575002
O17   O     O_R   0.964160 0.712340 0.130090 -0.563522
O18   O     O_R   0.035840 0.212340 0.869910 -0.563528
C59   C     C_R   0.883663 0.370367 0.999789 0.864600
C60   C     C_R   0.116338 0.870364 0.000203 0.864639
O19   O     O_3   0.017820 0.379210 0.044690 -0.284399
O20   O     O_3   0.982180 0.879210 0.955310 -0.284344
V3    V     V_3+5 0.996690 0.652500 0.991710 1.208617
V4    V     V_3+5 0.003310 0.152500 0.008290 1.208623
N1    N     N_R   0.215795 0.125558 0.880126 0.228037
O21   O     O_R   0.181602 0.272588 0.877515 -0.461918
O22   O     O_R   0.248264 0.050688 0.801409 -0.441455
N2    N     N_R   0.784221 0.625871 0.119706 0.227954
O23   O     O_R   0.818467 0.772822 0.122235 -0.462090
O24   O     O_R   0.751721 0.551251 0.198463 -0.441681

loop_
_geom_bond_atom_site_label_1
_geom_bond_atom_site_label_2
_geom_bond_distance
_ccdc_geom_bond_type
C32   C36   1.404382 A    
C3    C6    1.459079 S    
C54   H42   1.113048 S    
O11   C59   1.337823 A    
C21   C33   1.431493 A    
C42   C50   1.555949 S    
N2    O24   1.301575 A    
O1    C3    1.325768 A    
C41   C49   1.555967 S    
C44   H28   1.112875 S    
O2    C4    1.325785 A    
C2    O7    1.319903 A    
C27   C29   1.386737 A    
O5    C3    1.330877 A    
C5    C11   1.394423 A    
C47   N1    1.469853 S    
C45   C53   1.556094 S    
C6    C12   1.394459 A    
C23   C25   1.386511 A    
C36   H20   1.084082 S    
C36   C38   1.391504 A    
O14   V4    2.033196 S    
O18   V4    2.022569 S    
O13   V3    2.033012 S    
C33   C39   1.415369 A    
C53   H41   1.113052 S    
C34   C40   1.415428 A    
C48   H34   1.115500 S    
C37   H5    1.083610 S    
C15   C17   1.420473 A    
C18   C26   1.391488 A    
O16   C60   1.334876 A    
O15   C59   1.334892 A    
C8    C38   1.394874 A    
C6    C14   1.397690 A    
C4    C5    1.459021 S    
C19   C21   1.431546 A    
C22   C34   1.431508 A    
C9    H9    1.084081 S    
C48   C56   1.552466 S    
C25   H1    1.084527 S    
C11   H11   1.083596 S    
O6    V2    2.033181 S    
C42   C44   1.552635 S    
C29   C31   1.391356 A    
C30   C32   1.391350 A    
C47   C55   1.552486 S    
C46   C54   1.556103 S    
C51   C53   1.553991 S    
C32   C34   1.420028 A    
C46   C50   1.553993 S    
H31   C53   1.113017 S    
C55   H37   1.113879 S    
C15   C19   1.431708 A    
C14   H14   1.076941 S    
C2    C51   1.523453 S    
C16   C20   1.431701 A    
C13   H13   1.076931 S    
C49   C60   1.527152 S    
C29   H7    1.084513 S    
C44   H26   1.112568 S    
H30   C46   1.113060 S    
C30   H8    1.084517 S    
C43   H25   1.112571 S    
H29   C45   1.113056 S    
O19   V4    1.782952 S    
C52   C56   1.554486 S    
C9    C17   1.404492 A    
C47   C49   1.572288 S    
C38   H6    1.083612 S    
O4    V2    2.022795 S    
C48   N2    1.469847 S    
N1    O22   1.301574 A    
O12   C60   1.337813 A    
C10   H10   1.084118 S    
C7    C37   1.394854 A    
C26   H2    1.084539 S    
C23   H15   1.076004 S    
O6    C4    1.330825 A    
C45   H39   1.112956 S    
O11   V4    1.998879 S    
C48   C50   1.572260 S    
C27   H17   1.075815 S    
O1    V2    2.019504 S    
C56   H36   1.112859 S    
O2    V1    2.019406 S    
C31   C33   1.420007 A    
C35   H19   1.084067 S    
O12   V3    1.998891 S    
H32   C54   1.113015 S    
C42   H22   1.111303 S    
O17   V3    2.022465 S    
O4    C2    1.320842 A    
C52   C54   1.553997 S    
C9    C11   1.391390 A    
C10   C12   1.391379 A    
C13   C15   1.416001 A    
C41   H21   1.111345 S    
N1    O21   1.299834 A    
O3    V1    2.022826 S    
C55   H35   1.112857 S    
C10   C18   1.404469 A    
C44   C52   1.556930 S    
C43   C51   1.556954 S    
C28   C30   1.386700 A    
O3    C1    1.320863 A    
C8    C57   1.460096 S    
O14   C58   1.325883 A    
C24   H16   1.075998 S    
C35   C37   1.391536 A    
C41   C43   1.552627 S    
C28   H18   1.075813 S    
C14   C16   1.416040 A    
C58   O17   1.321414 A    
C5    C13   1.397677 A    
C16   C18   1.420488 A    
N2    O23   1.299819 A    
O7    V1    2.007747 S    
C46   H40   1.112951 S    
C1    O8    1.319899 A    
C8    C40   1.397510 A    
O8    V2    2.007729 S    
C24   C26   1.386494 A    
C43   H27   1.112877 S    
C31   C35   1.404412 A    
C7    C58   1.460066 S    
O5    V1    2.032996 S    
C21   C23   1.414399 A    
C22   C24   1.414408 A    
C19   C27   1.414369 A    
C56   H38   1.113868 S    
C39   H3    1.075607 S    
C20   C28   1.414367 A    
C45   C49   1.553985 S    
C47   H33   1.115503 S    
C50   C59   1.527168 S    
C7    C39   1.397486 A    
C1    C52   1.523445 S    
C12   H12   1.083597 S    
C57   O18   1.321384 A    
C42   H24   1.110082 S    
O9    V2    1.783324 S    
C17   C25   1.391487 A    
C41   H23   1.110081 S    
O10   V1    1.783420 S    
O16   V4    2.022867 S    
O15   V3    2.022901 S    
C51   C55   1.554481 S    
C40   H4    1.075630 S    
C20   C22   1.431576 A    
O20   V3    1.783050 S    
O13   C57   1.325934 A    
