data_str_m9_o11_o18_f0_sra.sym.137
_audit_creation_date              2012-12-11T14:21:05-0500
_audit_creation_method            fapswitch 2.2
_symmetry_space_group_name_H-M    P1
_symmetry_Int_Tables_number       1
_space_group_crystal_system       triclinic
_cell_length_a                    21.97818
_cell_length_b                    7.206781
_cell_length_c                    14.937576
_cell_angle_alpha                 89.939844
_cell_angle_beta                  107.222345
_cell_angle_gamma                 89.978177
_cell_volume                      2259.90561153

loop_
_atom_site_label
_atom_site_type_symbol
_atom_type_description
_atom_site_fract_x
_atom_site_fract_y
_atom_site_fract_z
_atom_type_partial_charge
O1    O     O_R   0.584770 0.505770 0.002090 -0.538298
O2    O     O_R   0.415230 0.005770 0.997910 -0.538381
O3    O     O_R   0.467060 0.173340 0.861950 -0.536381
O4    O     O_R   0.532940 0.673340 0.138050 -0.536473
C1    C     C_R   0.454958 0.344122 0.825924 0.675032
C2    C     C_R   0.545049 0.843877 0.174106 0.675168
O5    O     O_R   0.587510 0.175890 0.993210 -0.540722
O6    O     O_R   0.412490 0.675890 0.006790 -0.540663
O7    O     O_R   0.536540 0.008150 0.130100 -0.537458
O8    O     O_R   0.463460 0.508150 0.869900 -0.537379
C3    C     C_R   0.612527 0.345046 0.995857 0.706313
C4    C     C_R   0.387472 0.845089 0.004147 0.706565
O9    O     O_3   0.483140 0.340040 0.044760 -0.377180
O10   O     O_3   0.516860 0.840040 0.955240 -0.377107
V1    V     V_3+5 0.503130 0.064190 0.991700 1.436895
V2    V     V_3+5 0.496870 0.564190 0.008300 1.437063
C5    C     C_2   0.216751 0.738604 0.016019 -0.130312
C6    C     C_2   0.783320 0.238604 0.984174 -0.129487
C7    C     C_2   0.177692 0.884736 0.983083 0.206781
C8    C     C_2   0.822290 0.384813 0.016878 0.206433
H1    H     H_    0.199335 0.622997 0.048184 0.102856
H2    H     H_    0.800812 0.122946 0.952211 0.102566
C9    C     C_2   0.282472 0.718102 0.007598 -0.106582
C10   C     C_2   0.717605 0.218055 0.992606 -0.107496
C11   C     C_2   0.321946 0.862530 0.011060 -0.252302
C12   C     C_2   0.678043 0.362451 0.988917 -0.252171
H3    H     H_    0.299606 0.577944 0.003541 0.135113
H4    H     H_    0.700553 0.077895 0.996874 0.134902
H5    H     H_    0.306650 0.001612 0.021840 0.189152
H6    H     H_    0.693264 0.501528 0.977947 0.188970
C13   C     C_R   0.927401 0.886696 0.723749 -0.036785
C14   C     C_R   0.072723 0.385153 0.276145 -0.035773
C15   C     C_R   0.574034 0.846704 0.275717 -0.030606
C16   C     C_R   0.425973 0.348117 0.724363 -0.029246
C17   C     C_R   0.938205 0.916032 0.568244 -0.166988
C18   C     C_R   0.061395 0.397755 0.431818 -0.166963
C19   C     C_R   0.965515 0.915685 0.665101 -0.169574
C20   C     C_R   0.034168 0.402569 0.334964 -0.170124
C21   C     C_R   0.862088 0.854928 0.685473 -0.230954
C22   C     C_R   0.138393 0.359529 0.314140 -0.231392
C23   C     C_R   0.833794 0.843150 0.587423 0.081627
C24   C     C_R   0.166685 0.341571 0.411935 0.081961
C25   C     C_R   0.872619 0.884327 0.529161 0.147118
C26   C     C_R   0.127318 0.371442 0.470623 0.147361
C27   C     C_R   0.767482 0.804783 0.545657 -0.049899
C28   C     C_R   0.233327 0.307206 0.453270 -0.049979
C29   C     C_R   0.739312 0.842733 0.447984 0.022372
C30   C     C_R   0.260960 0.338619 0.551602 0.022136
C31   C     C_R   0.779969 0.886032 0.393091 -0.154817
C32   C     C_R   0.219766 0.370915 0.606983 -0.154679
C33   C     C_R   0.845420 0.900231 0.432705 -0.199029
C34   C     C_R   0.154211 0.380856 0.567344 -0.198969
C35   C     C_R   0.728094 0.729008 0.597249 0.322384
C36   C     C_R   0.273545 0.241327 0.400648 0.322277
C37   C     C_R   0.662243 0.730719 0.559320 -0.188634
C38   C     C_R   0.339344 0.246818 0.438981 -0.189119
C39   C     C_R   0.633625 0.781813 0.466437 0.056035
C40   C     C_R   0.367318 0.292274 0.532741 0.056232
C41   C     C_R   0.671615 0.832619 0.408296 0.079131
C42   C     C_R   0.328708 0.333014 0.591388 0.079276
C43   C     C_R   0.567100 0.769801 0.429619 -0.143693
C44   C     C_R   0.433937 0.285032 0.569677 -0.143763
C45   C     C_R   0.537634 0.799528 0.334606 -0.163087
C46   C     C_R   0.462979 0.310416 0.665120 -0.164136
C47   C     C_R   0.640063 0.867678 0.312308 -0.185759
C48   C     C_R   0.359759 0.363585 0.687865 -0.185446
H7    H     H_    0.874725 0.932143 0.387698 0.123160
H8    H     H_    0.124491 0.404003 0.612707 0.122948
H9    H     H_    0.665290 0.903338 0.262927 0.096653
H10   H     H_    0.334106 0.392650 0.737510 0.096079
H11   H     H_    0.486634 0.780116 0.306389 0.108393
H12   H     H_    0.514179 0.295592 0.693248 0.107742
H13   H     H_    0.633295 0.678541 0.601364 0.145240
H14   H     H_    0.368879 0.202241 0.396278 0.145481
H15   H     H_    0.968166 0.944705 0.523825 0.118261
H16   H     H_    0.031031 0.417415 0.476511 0.118111
H17   H     H_    0.016079 0.941697 0.694379 0.108510
H18   H     H_    0.983271 0.423125 0.305888 0.108197
H19   H     H_    0.833882 0.849187 0.733571 0.154560
H20   H     H_    0.166703 0.362103 0.266133 0.154003
H21   H     H_    0.762982 0.908067 0.318569 0.125666
H22   H     H_    0.236412 0.386871 0.681901 0.126019
H23   H     H_    0.538027 0.729748 0.473748 0.117100
H24   H     H_    0.463498 0.252668 0.525142 0.117021
O11   O     O_R   0.036450 0.233070 0.130130 -0.534652
O12   O     O_R   0.963550 0.733070 0.869870 -0.534630
O13   O     O_R   0.912470 0.560570 0.006790 -0.541367
O14   O     O_R   0.087530 0.060570 0.993210 -0.541269
C49   C     C_R   0.887544 0.391786 0.005317 0.624672
C50   C     C_R   0.112452 0.891747 0.994677 0.623986
O15   O     O_R   0.032920 0.562940 0.138050 -0.539695
O16   O     O_R   0.967080 0.062940 0.861950 -0.539698
O17   O     O_R   0.084790 0.730500 0.002090 -0.544886
O18   O     O_R   0.915210 0.230500 0.997910 -0.544890
C51   C     C_R   0.044934 0.394326 0.174513 0.687325
C52   C     C_R   0.955054 0.894587 0.825461 0.687414
O19   O     O_3   0.016820 0.396170 0.955260 -0.375551
O20   O     O_3   0.983180 0.896170 0.044740 -0.375593
V3    V     V_3+5 0.996880 0.672090 0.008300 1.427514
V4    V     V_3+5 0.003120 0.172090 0.991700 1.427574
O21   O     O_3   0.751660 0.634263 0.680519 -0.650778
H25   H     H_    0.790295 0.566411 0.677620 0.289594
O22   O     O_3   0.251010 0.152342 0.315655 -0.650853
H26   H     H_    0.213026 0.079566 0.317107 0.289269
O23   O     O_3   0.197595 0.023611 0.934101 -0.649525
H27   H     H_    0.161725 0.109630 0.906859 0.289168
O24   O     O_3   0.802290 0.523752 0.065623 -0.649601
H28   H     H_    0.838099 0.609848 0.092727 0.289412

loop_
_geom_bond_atom_site_label_1
_geom_bond_atom_site_label_2
_ccdc_geom_bond_type
C40   C44   A    
O21   H25   S    
O1    C3    A    
C46   H12   S    
O2    C4    A    
C16   C48   A    
C2    O7    A    
C15   C47   A    
C29   C31   A    
O5    C3    A    
C17   H15   S    
C14   C51   S    
C5    C9    S    
C6    C10   S    
C17   C19   A    
C10   C12   D    
C39   C41   A    
C40   C42   A    
C13   C52   S    
O16   C52   A    
C24   C28   A    
C27   C29   A    
C31   H21   S    
C49   O18   A    
C43   C45   A    
C44   C46   A    
C18   H16   S    
C7    C50   S    
C35   O21   S    
C31   C33   A    
C32   C34   A    
O24   H28   S    
C22   H20   S    
C9    H3    S    
C17   C25   A    
O17   V3    S    
C34   H8    S    
C15   C45   A    
C8    O24   S    
C26   C34   A    
C30   C32   A    
C42   C48   A    
O6    V2    S    
C23   C25   A    
C24   C26   A    
C30   C42   A    
O13   V3    S    
C35   C37   A    
C11   H5    S    
C36   C38   A    
C38   H14   S    
C32   H22   S    
C36   O22   S    
O4    C2    A    
C43   H23   S    
O5    V1    S    
C20   H18   S    
C3    C12   S    
C19   H17   S    
C27   C35   A    
C5    H1    S    
C13   C19   A    
C21   H19   S    
O4    V2    S    
O2    V1    S    
O18   V4    S    
O6    C4    A    
C1    C16   S    
C28   C36   A    
C16   C46   A    
O1    V2    S    
C33   H7    S    
O12   V3    S    
O14   V4    S    
O12   C52   A    
C7    O23   S    
O14   C50   A    
C12   H6    S    
C14   C20   A    
C37   C39   A    
C18   C26   A    
O19   V4    S    
O3    V1    S    
O16   V4    S    
C50   O17   A    
C8    C49   S    
C44   H24   S    
C6    H2    S    
C10   H4    S    
C45   H11   S    
O3    C1    A    
C39   C43   A    
O23   H27   S    
C2    C15   S    
C4    C11   S    
C18   C20   A    
O7    V1    S    
C1    O8    A    
O11   V4    S    
O8    V2    S    
C41   C47   A    
O11   C51   A    
C25   C33   A    
C48   H10   S    
C47   H9    S    
C22   C24   A    
C5    C7    D    
C38   C40   A    
C6    C8    D    
C14   C22   A    
C29   C41   A    
C37   H13   S    
C28   C30   A    
C9    C11   D    
C21   C23   A    
O15   C51   A    
O20   V3    S    
O9    V2    S    
O22   H26   S    
C13   C21   A    
O13   C49   A    
C23   C27   A    
O10   V1    S    
O15   V3    S    
