data_str_m4_o4_o24_f0_acs.sym.145
_audit_creation_date              2012-12-11T15:50:30-0500
_audit_creation_method            fapswitch 2.2
_symmetry_space_group_name_H-M    P1
_symmetry_Int_Tables_number       1
_space_group_crystal_system       triclinic
_cell_length_a                    19.200141
_cell_length_b                    11.357432
_cell_length_c                    18.808076
_cell_angle_alpha                 90.000432
_cell_angle_beta                  91.346412
_cell_angle_gamma                 89.999836
_cell_volume                      4100.23747478

loop_
_atom_site_label
_atom_site_type_symbol
_atom_type_description
_atom_site_fract_x
_atom_site_fract_y
_atom_site_fract_z
_atom_type_partial_charge
C1    C     C_R   0.275882 0.040614 0.854517 0.538632
C2    C     C_R   0.724100 0.040581 0.145459 0.538292
C3    C     C_R   0.775899 0.540582 0.854541 0.538290
C4    C     C_R   0.224118 0.540613 0.145483 0.538633
C5    C     C_3   0.528460 0.725065 0.971754 -0.111119
C6    C     C_3   0.471495 0.725152 0.028299 -0.111131
C7    C     C_3   0.028507 0.225150 0.971700 -0.111129
C8    C     C_3   0.971541 0.225065 0.028245 -0.111118
C9    C     C_R   0.234149 0.595566 0.075559 0.020321
C10   C     C_R   0.765898 0.595458 0.924508 0.020415
C11   C     C_R   0.734101 0.095459 0.075493 0.020418
C12   C     C_R   0.265850 0.095566 0.924440 0.020320
C13   C     C_R   0.298920 0.591508 0.046428 -0.007385
C14   C     C_R   0.701137 0.591338 0.953657 -0.007510
C15   C     C_R   0.798863 0.091343 0.046346 -0.007506
C16   C     C_R   0.201079 0.091503 0.953573 -0.007390
C17   C     C_R   0.308036 0.612466 0.974701 0.001930
C18   C     C_R   0.692036 0.612101 0.025405 0.001970
C19   C     C_R   0.807966 0.112111 0.974600 0.001960
C20   C     C_R   0.191964 0.112459 0.025300 0.001928
C21   C     C_R   0.186817 0.652157 0.958993 -0.175379
C22   C     C_R   0.813260 0.651654 0.041137 -0.175259
C23   C     C_R   0.686743 0.151667 0.958866 -0.175261
C24   C     C_R   0.313181 0.152158 0.041007 -0.175376
C25   C     C_R   0.177280 0.644338 0.032027 -0.043619
C26   C     C_R   0.822772 0.644127 0.968091 -0.043570
C27   C     C_R   0.677227 0.144132 0.031911 -0.043567
C28   C     C_R   0.322718 0.144339 0.967972 -0.043620
C29   C     C_3   0.345380 0.489699 0.046815 -0.289478
C30   C     C_3   0.654652 0.489573 0.953166 -0.289357
C31   C     C_3   0.845348 0.989576 0.046834 -0.289357
C32   C     C_3   0.154621 0.989691 0.953185 -0.289474
C33   C     C_3   0.357749 0.516817 0.968936 -0.276410
C34   C     C_3   0.642286 0.516468 0.031068 -0.276197
C35   C     C_3   0.857715 0.016477 0.968933 -0.276201
C36   C     C_3   0.142252 0.016808 0.031064 -0.276405
C37   C     C_R   0.251603 0.626490 0.929211 0.003070
C38   C     C_R   0.748477 0.625995 0.070903 0.003167
C39   C     C_R   0.751527 0.126012 0.929101 0.003161
C40   C     C_R   0.248397 0.126487 0.070789 0.003072
C41   C     C_R   0.498339 0.829700 0.421876 0.018514
C42   C     C_R   0.480906 0.827572 0.570011 0.018558
C43   C     C_R   0.019110 0.327571 0.429994 0.018534
C44   C     C_R   0.001669 0.329705 0.578129 0.018544
C45   C     C_R   0.469319 0.820308 0.855323 0.521136
C46   C     C_R   0.530679 0.820308 0.144694 0.521107
C47   C     C_R   0.969322 0.320309 0.855306 0.521092
C48   C     C_R   0.030682 0.320307 0.144677 0.521144
C49   C     C_R   0.475385 0.727661 0.456273 0.028223
C50   C     C_R   0.470675 0.726403 0.529194 0.037898
C51   C     C_R   0.029359 0.226413 0.470816 0.037943
C52   C     C_R   0.024646 0.227675 0.543737 0.028227
C53   C     C_R   0.488894 0.934411 0.534115 -0.170605
C54   C     C_R   0.501032 0.934818 0.461181 -0.162141
C55   C     C_R   0.998960 0.434816 0.538820 -0.162110
C56   C     C_R   0.011099 0.434408 0.465886 -0.170661
C57   C     C_3   0.503928 0.605049 0.456434 -0.270985
C58   C     C_3   0.503770 0.608249 0.536709 -0.274839
C59   C     C_3   0.996296 0.108232 0.463306 -0.274804
C60   C     C_3   0.996139 0.105039 0.543581 -0.270988
C61   C     C_R   0.254049 0.610165 0.416009 0.013362
C62   C     C_R   0.746250 0.608387 0.584032 0.014645
C63   C     C_R   0.753749 0.108406 0.415963 0.014654
C64   C     C_R   0.245947 0.110149 0.583990 0.013358
C65   C     C_R   0.212091 0.696998 0.446477 0.008269
C66   C     C_R   0.787136 0.696934 0.553778 0.007029
C67   C     C_R   0.712845 0.196921 0.446227 0.007037
C68   C     C_R   0.287874 0.197038 0.553537 0.008252
C69   C     C_R   0.220674 0.728178 0.517194 0.008411
C70   C     C_R   0.779172 0.726167 0.482552 0.009178
C71   C     C_R   0.720812 0.226154 0.517452 0.009184
C72   C     C_R   0.279293 0.228218 0.482818 0.008392
C73   C     C_R   0.320384 0.599619 0.526634 -0.159022
C74   C     C_R   0.686986 0.582065 0.470994 -0.175651
C75   C     C_R   0.813041 0.082129 0.528991 -0.175623
C76   C     C_R   0.179650 0.099515 0.473345 -0.158999
C77   C     C_R   0.312521 0.570906 0.454601 -0.166705
C78   C     C_R   0.691859 0.559964 0.543633 -0.182590
C79   C     C_R   0.808164 0.060030 0.456350 -0.182568
C80   C     C_R   0.187510 0.070804 0.545377 -0.166715
C81   C     C_3   0.134272 0.705133 0.448303 -0.255438
C82   C     C_3   0.864955 0.706035 0.552841 -0.255178
C83   C     C_3   0.635025 0.205968 0.447174 -0.255171
C84   C     C_3   0.365691 0.205263 0.551727 -0.255445
C85   C     C_3   0.142690 0.737986 0.525560 -0.123310
C86   C     C_3   0.857383 0.736047 0.475344 -0.123287
C87   C     C_3   0.642599 0.235985 0.524670 -0.123296
C88   C     C_3   0.357275 0.238111 0.474469 -0.123313
C89   C     C_R   0.262143 0.646753 0.853973 0.552765
C90   C     C_R   0.737919 0.646492 0.146107 0.553008
C91   C     C_R   0.762086 0.146510 0.853898 0.553025
C92   C     C_R   0.237857 0.146752 0.146027 0.552762
C93   C     C_R   0.272219 0.673586 0.559877 0.003426
C94   C     C_R   0.730387 0.665677 0.439455 0.013494
C95   C     C_R   0.769617 0.165695 0.560541 0.013487
C96   C     C_R   0.227779 0.173570 0.440121 0.003445
C97   C     C_R   0.271075 0.046874 0.646953 0.542683
C98   C     C_R   0.729010 0.047206 0.352584 0.545205
C99   C     C_R   0.770990 0.547202 0.647415 0.545213
C100  C     C_R   0.228925 0.546877 0.353047 0.542675
C101  C     C_R   0.464538 0.822322 0.645005 0.532580
C102  C     C_R   0.531571 0.822605 0.352977 0.532342
C103  C     C_R   0.968430 0.322605 0.647024 0.532362
C104  C     C_R   0.035467 0.322322 0.354998 0.532576
C105  C     C_R   0.274285 0.689513 0.637092 0.567143
C106  C     C_R   0.726474 0.686958 0.363200 0.568399
C107  C     C_R   0.773527 0.186962 0.636799 0.568403
C108  C     C_R   0.225715 0.189512 0.362909 0.567134
C109  C     C_3   0.470778 0.917509 0.028003 -0.156592
C110  C     C_3   0.529357 0.917430 0.972047 -0.156479
C111  C     C_3   0.970648 0.417430 0.027955 -0.156478
C112  C     C_3   0.029227 0.417507 0.972000 -0.156593
C113  C     C_3   0.431650 0.820845 0.986176 -0.112562
C114  C     C_3   0.568392 0.820674 0.013875 -0.112360
C115  C     C_3   0.931611 0.320676 0.986125 -0.112360
C116  C     C_3   0.068353 0.320840 0.013825 -0.112562
C117  C     C_3   0.489851 0.822366 0.931020 0.048965
C118  C     C_3   0.510190 0.822361 0.069015 0.049145
C119  C     C_3   0.989813 0.322361 0.930985 0.049140
C120  C     C_3   0.010152 0.322364 0.068981 0.048969
Cr1   Cr    Cr6+3 0.229640 0.835880 0.747370 0.993746
Cr2   Cr    Cr6+3 0.770360 0.835880 0.252630 0.993076
Cr3   Cr    Cr6+3 0.729640 0.335880 0.747370 0.993066
Cr4   Cr    Cr6+3 0.270360 0.335880 0.252630 0.993756
Cr5   Cr    Cr6+3 0.387390 0.989720 0.750850 0.982335
Cr6   Cr    Cr6+3 0.612610 0.989720 0.249150 0.981797
Cr7   Cr    Cr6+3 0.887390 0.489720 0.750850 0.981789
Cr8   Cr    Cr6+3 0.112610 0.489720 0.249150 0.982336
Cr9   Cr    Cr6+3 0.385770 0.677220 0.749340 1.005467
Cr10  Cr    Cr6+3 0.614230 0.677220 0.250660 1.003738
Cr11  Cr    Cr6+3 0.885770 0.177220 0.749340 1.003739
Cr12  Cr    Cr6+3 0.114230 0.177220 0.250660 1.005470
H1    H     H_    0.374972 0.823431 0.973334 0.113702
H2    H     H_    0.625070 0.823116 0.026734 0.113835
H3    H     H_    0.874933 0.323122 0.973267 0.113829
H4    H     H_    0.125031 0.323424 0.026669 0.113702
H5    H     H_    0.489991 0.016307 0.562782 0.142343
H6    H     H_    0.514385 0.016480 0.436099 0.140004
H7    H     H_    0.985583 0.516471 0.563895 0.139986
H8    H     H_    0.009978 0.516297 0.437215 0.142361
H9    H     H_    0.029227 0.039374 0.439679 0.126693
H10   H     H_    0.944092 0.100529 0.565403 0.165770
H11   H     H_    0.555976 0.600592 0.434612 0.165811
H12   H     H_    0.470854 0.539368 0.560337 0.126684
H13   H     H_    0.466763 0.540351 0.432864 0.119881
H14   H     H_    0.556464 0.614940 0.561666 0.142277
H15   H     H_    0.943600 0.114881 0.438350 0.142248
H16   H     H_    0.033326 0.040377 0.567153 0.119910
H17   H     H_    0.347299 0.508166 0.431341 0.119160
H18   H     H_    0.658847 0.494630 0.566667 0.123042
H19   H     H_    0.841191 0.994726 0.433306 0.123002
H20   H     H_    0.152769 0.007988 0.568614 0.119179
H21   H     H_    0.108173 0.619339 0.439750 0.156393
H22   H     H_    0.891471 0.621112 0.562441 0.155230
H23   H     H_    0.608532 0.121023 0.437577 0.155243
H24   H     H_    0.391831 0.119504 0.560283 0.156380
H25   H     H_    0.113578 0.778206 0.414605 0.122492
H26   H     H_    0.884888 0.780363 0.585995 0.121348
H27   H     H_    0.615069 0.280282 0.414022 0.121352
H28   H     H_    0.386347 0.278360 0.585429 0.122500
H29   H     H_    0.440746 0.992000 0.049245 0.108269
H30   H     H_    0.559499 0.991847 0.950889 0.108228
H31   H     H_    0.940508 0.491848 0.049117 0.108228
H32   H     H_    0.059263 0.491996 0.950764 0.108266
H33   H     H_    0.548177 0.648803 0.942832 0.115700
H34   H     H_    0.451707 0.649007 0.057275 0.115922
H35   H     H_    0.048295 0.149003 0.942725 0.115921
H36   H     H_    0.951824 0.148804 0.057168 0.115701
H37   H     H_    0.142693 0.676463 0.925296 0.135776
H38   H     H_    0.857388 0.675843 0.074860 0.135629
H39   H     H_    0.642616 0.175856 0.925142 0.135630
H40   H     H_    0.357306 0.176468 0.074703 0.135779
H41   H     H_    0.815784 0.906395 0.054524 0.158849
H42   H     H_    0.184197 0.906504 0.945573 0.158688
H43   H     H_    0.315805 0.406510 0.054426 0.158684
H44   H     H_    0.684216 0.406392 0.945474 0.158849
H45   H     H_    0.390663 0.499731 0.083685 0.122757
H46   H     H_    0.609366 0.499740 0.916312 0.122620
H47   H     H_    0.890633 0.999741 0.083690 0.122623
H48   H     H_    0.109337 0.999722 0.916317 0.122753
H49   H     H_    0.410254 0.550211 0.957047 0.148706
H50   H     H_    0.589815 0.549983 0.042984 0.148865
H51   H     H_    0.910187 0.049986 0.957018 0.148859
H52   H     H_    0.089747 0.050201 0.042954 0.148707
H53   H     H_    0.336618 0.449787 0.931076 0.159326
H54   H     H_    0.663361 0.449283 0.068859 0.159386
H55   H     H_    0.836639 0.949295 0.931141 0.159388
H56   H     H_    0.163384 0.949776 0.068923 0.159328
O1    O     O_R   0.214300 0.709080 0.827500 -0.540968
O2    O     O_R   0.785700 0.709080 0.172500 -0.541218
O3    O     O_R   0.714300 0.209080 0.827500 -0.541223
O4    O     O_R   0.285700 0.209080 0.172500 -0.540969
O5    O     O_R   0.445900 0.919370 0.676500 -0.515307
O6    O     O_R   0.554100 0.919370 0.323500 -0.514341
O7    O     O_R   0.945900 0.419370 0.676500 -0.514340
O8    O     O_R   0.054100 0.419370 0.323500 -0.515312
O9    O     O_R   0.456660 0.717710 0.669820 -0.528990
O10   O     O_R   0.543340 0.717710 0.330180 -0.534425
O11   O     O_R   0.956660 0.217710 0.669820 -0.534430
O12   O     O_R   0.043340 0.217710 0.330180 -0.528979
O13   O     O_R   0.320590 0.625770 0.672930 -0.509844
O14   O     O_R   0.679410 0.625770 0.327070 -0.512102
O15   O     O_R   0.820590 0.125770 0.672930 -0.512083
O16   O     O_R   0.179410 0.125770 0.327070 -0.509854
O17   O     O_3   0.334270 0.834280 0.749190 -0.286399
O18   O     O_3   0.665730 0.834280 0.250810 -0.282962
O19   O     O_3   0.834270 0.334280 0.749190 -0.282969
O20   O     O_3   0.165730 0.334280 0.250810 -0.286401
O21   O     O_R   0.236190 0.958390 0.823150 -0.508995
O22   O     O_R   0.763810 0.958390 0.176850 -0.509374
O23   O     O_R   0.736190 0.458390 0.823150 -0.509379
O24   O     O_R   0.263810 0.458390 0.176850 -0.508994
O25   O     O_R   0.332090 0.075280 0.831290 -0.523688
O26   O     O_R   0.667910 0.075280 0.168710 -0.524201
O27   O     O_R   0.832090 0.575280 0.831290 -0.524194
O28   O     O_R   0.167910 0.575280 0.168710 -0.523692
O29   O     O_R   0.446280 0.918040 0.826620 -0.544626
O30   O     O_R   0.553720 0.918040 0.173380 -0.545240
O31   O     O_R   0.946280 0.418040 0.826620 -0.545233
O32   O     O_R   0.053720 0.418040 0.173380 -0.544633
O33   O     O_R   0.457080 0.716270 0.831760 -0.519836
O34   O     O_R   0.542920 0.716270 0.168240 -0.519587
O35   O     O_R   0.957080 0.216270 0.831760 -0.519590
O36   O     O_R   0.042920 0.216270 0.168240 -0.519834
O37   O     O_R   0.320980 0.624440 0.823040 -0.491611
O38   O     O_R   0.679020 0.624440 0.176960 -0.491271
O39   O     O_R   0.820980 0.124440 0.823040 -0.491272
O40   O     O_R   0.179020 0.124440 0.176960 -0.491611
O41   O     O_R   0.213880 0.710510 0.665560 -0.499406
O42   O     O_R   0.786120 0.710510 0.334440 -0.499418
O43   O     O_R   0.713880 0.210510 0.665560 -0.499427
O44   O     O_R   0.286120 0.210510 0.334440 -0.499387
O45   O     O_R   0.235800 0.959720 0.673040 -0.523867
O46   O     O_R   0.764200 0.959720 0.326960 -0.524460
O47   O     O_R   0.735800 0.459720 0.673040 -0.524470
O48   O     O_R   0.264200 0.459720 0.326960 -0.523855
O49   O     O_R   0.331670 0.076720 0.669350 -0.523169
O50   O     O_R   0.668330 0.076720 0.330650 -0.524652
O51   O     O_R   0.831670 0.576720 0.669350 -0.524657
O52   O     O_R   0.168330 0.576720 0.330650 -0.523162
H57   H     H_    0.359649 0.554424 0.557780 0.138978
H58   H     H_    0.654586 0.524613 0.438741 0.129084
H59   H     H_    0.845454 0.024693 0.561238 0.129060
H60   H     H_    0.140428 0.054242 0.442186 0.138956
H61   H     H_    0.125914 0.829810 0.534680 0.102578
H62   H     H_    0.875030 0.826890 0.465912 0.103202
H63   H     H_    0.624930 0.326816 0.534104 0.103187
H64   H     H_    0.374014 0.329955 0.465352 0.102620
C121  C     C_R   0.111530 0.650590 0.576876 0.058203
C122  C     C_R   0.138891 0.535665 0.584908 -0.060794
C123  C     C_R   0.127258 0.471880 0.647052 -0.092549
C124  C     C_R   0.084641 0.518422 0.699232 -0.059078
C125  C     C_R   0.051612 0.626861 0.688186 -0.077685
C126  C     C_R   0.065279 0.693126 0.627636 -0.091029
H65   H     H_    0.173076 0.498883 0.545716 0.115089
H66   H     H_    0.151030 0.386219 0.654557 0.109577
H67   H     H_    0.075417 0.468455 0.747065 0.110138
H68   H     H_    0.016422 0.661212 0.726981 0.100072
H69   H     H_    0.042915 0.780352 0.622439 0.076203
C127  C     C_R   0.888988 0.647859 0.424804 0.053205
C128  C     C_R   0.864535 0.530706 0.420098 -0.074369
C129  C     C_R   0.876579 0.463842 0.359239 -0.101258
C130  C     C_R   0.915845 0.510827 0.304472 -0.057495
C131  C     C_R   0.946316 0.622043 0.312254 -0.074112
C132  C     C_R   0.932901 0.690499 0.371932 -0.088019
H70   H     H_    0.832351 0.493988 0.461042 0.118063
H71   H     H_    0.855109 0.376002 0.354382 0.109005
H72   H     H_    0.924792 0.459209 0.257190 0.114154
H73   H     H_    0.979348 0.656753 0.271682 0.098082
H74   H     H_    0.953240 0.779388 0.374646 0.078134
C133  C     C_R   0.611019 0.147776 0.575211 0.053219
C134  C     C_R   0.635489 0.030633 0.579907 -0.074350
C135  C     C_R   0.623457 0.963751 0.640760 -0.101270
C136  C     C_R   0.584189 0.010711 0.695534 -0.057514
C137  C     C_R   0.553705 0.121919 0.687765 -0.074070
C138  C     C_R   0.567106 0.190390 0.628091 -0.088009
H75   H     H_    0.667676 0.993937 0.538959 0.118044
H76   H     H_    0.644937 0.875919 0.645609 0.109002
H77   H     H_    0.575250 0.959081 0.742813 0.114141
H78   H     H_    0.520671 0.156609 0.728340 0.098098
H79   H     H_    0.546754 0.279272 0.625385 0.078134
C139  C     C_R   0.388477 0.150747 0.423157 0.058171
C140  C     C_R   0.361151 0.035799 0.415117 -0.060813
C141  C     C_R   0.372804 0.972034 0.352969 -0.092520
C142  C     C_R   0.415414 0.018615 0.300797 -0.059044
C143  C     C_R   0.448416 0.127077 0.311850 -0.077752
C144  C     C_R   0.434725 0.193326 0.372405 -0.091037
H80   H     H_    0.326975 0.998981 0.454305 0.115108
H81   H     H_    0.349055 0.886356 0.345456 0.109566
H82   H     H_    0.424652 0.968658 0.252961 0.110157
H83   H     H_    0.483595 0.161460 0.273054 0.100038
H84   H     H_    0.457061 0.280572 0.377608 0.076205
C145  C     C_R   0.106925 0.682891 0.058097 0.032484
C146  C     C_R   0.062511 0.606175 0.089043 -0.013869
C147  C     C_R   0.004806 0.643961 0.127896 -0.097316
C148  C     C_R   0.987921 0.762897 0.128400 -0.141201
C149  C     C_R   0.023408 0.837100 0.083126 -0.115122
C150  C     C_R   0.077688 0.790750 0.043073 -0.109863
H85   H     H_    0.078853 0.518721 0.082468 0.160215
H86   H     H_    0.972393 0.582214 0.155545 0.108317
H87   H     H_    0.943645 0.794514 0.157442 0.111536
H88   H     H_    0.004231 0.925126 0.073544 0.095728
H89   H     H_    0.091466 0.829763 0.995082 0.120512
C151  C     C_R   0.893100 0.682934 0.942084 0.032189
C152  C     C_R   0.937474 0.606463 0.910887 -0.014122
C153  C     C_R   0.995121 0.644549 0.872073 -0.097770
C154  C     C_R   0.012092 0.763446 0.871990 -0.141227
C155  C     C_R   0.976733 0.837225 0.917613 -0.115229
C156  C     C_R   0.922454 0.790578 0.957551 -0.109897
H90   H     H_    0.921193 0.518962 0.917364 0.160642
H91   H     H_    0.027443 0.583059 0.844185 0.107976
H92   H     H_    0.056343 0.795277 0.842991 0.112150
H93   H     H_    0.995981 0.925115 0.927497 0.095638
H94   H     H_    0.908646 0.829346 0.005624 0.120591
C157  C     C_R   0.606898 0.182940 0.057916 0.032181
C158  C     C_R   0.562525 0.106475 0.089120 -0.014126
C159  C     C_R   0.504881 0.144568 0.127935 -0.097767
C160  C     C_R   0.487906 0.263464 0.128007 -0.141229
C161  C     C_R   0.523261 0.337232 0.082376 -0.115230
C162  C     C_R   0.577540 0.290578 0.042439 -0.109901
H95   H     H_    0.578805 0.018973 0.082643 0.160650
H96   H     H_    0.472561 0.083084 0.155831 0.107974
H97   H     H_    0.443656 0.295300 0.157005 0.112149
H98   H     H_    0.504011 0.425117 0.072484 0.095637
H99   H     H_    0.591347 0.329341 0.994364 0.120591
C163  C     C_R   0.393073 0.182889 0.941901 0.032491
C164  C     C_R   0.437489 0.106168 0.910961 -0.013866
C165  C     C_R   0.495196 0.143948 0.872110 -0.097313
C166  C     C_R   0.512077 0.262885 0.871596 -0.141201
C167  C     C_R   0.476587 0.337098 0.916863 -0.115123
C168  C     C_R   0.422306 0.290753 0.956918 -0.109864
H100  H     H_    0.421147 0.018715 0.917538 0.160207
H101  H     H_    0.527614 0.082195 0.844470 0.108318
H102  H     H_    0.556354 0.294497 0.842555 0.111536
H103  H     H_    0.495762 0.425126 0.926439 0.095731
H104  H     H_    0.408528 0.329770 0.004907 0.120512

loop_
_geom_bond_atom_site_label_1
_geom_bond_atom_site_label_2
_ccdc_geom_bond_type
C131  H73   S    
C107  O43   A    
Cr2   O18   S    
C73   C93   A    
C75   C95   A    
C48   C120  S    
C139  C140  A    
C160  H97   S    
C53   H5    S    
C141  C142  A    
C63   C98   S    
C69   C93   A    
C5    C6    S    
C20   C40   A    
C71   C95   A    
C35   H51   S    
C133  C134  A    
C22   C38   A    
C29   C33   S    
C55   H7    S    
C136  C137  A    
C34   H54   S    
C9    C13   A    
C8    H36   S    
Cr5   O25   S    
C125  H68   S    
C12   C16   A    
C134  C135  A    
C149  H88   S    
C163  C164  A    
Cr10  O14   S    
C96   C108  S    
C59   C60   S    
C29   H45   S    
Cr4   O20   S    
C29   H43   S    
C102  O6    A    
C30   H44   S    
C109  C118  S    
C112  H32   S    
C167  C168  A    
C9    C25   A    
C51   C52   A    
C7    C119  S    
C123  C124  A    
C30   C34   S    
C91   O3    A    
C106  O42   A    
C158  C159  A    
C36   H56   S    
C15   C19   A    
C132  H74   S    
C165  H101  S    
Cr4   O48   S    
Cr7   O7    S    
C66   C82   S    
C57   H13   S    
Cr5   O5    S    
C68   C72   A    
C73   H57   S    
C153  C154  A    
C22   H38   S    
C98   O50   A    
C143  H83   S    
C148  C149  A    
Cr2   O46   S    
C2    O26   A    
C100  O48   A    
Cr6   O50   S    
C47   O35   A    
C25   C145  S    
C140  H80   S    
C90   O38   A    
C84   C88   S    
C88   C139  S    
C87   H63   S    
C97   O49   A    
C38   C90   S    
C135  H76   S    
C46   O34   A    
C137  H78   S    
C18   C38   A    
C128  H70   S    
C19   C35   S    
C76   C96   A    
C84   H24   S    
C44   C55   A    
Cr7   O27   S    
C123  H66   S    
C66   C70   A    
C126  H69   S    
C56   H8    S    
Cr5   O17   S    
C155  H93   S    
C62   C99   S    
C72   C96   A    
C61   C65   A    
C23   H39   S    
Cr10  O38   S    
C73   C77   A    
C32   H48   S    
Cr8   O20   S    
C75   C79   A    
Cr9   O9    S    
C152  H90   S    
C124  C125  A    
C59   H15   S    
C67   C83   S    
C4    O28   A    
C111  C112  S    
Cr11  O19   S    
C110  H30   S    
C7    C8    S    
C53   C54   A    
C121  C122  A    
C64   C68   A    
C42   C53   A    
Cr1   O1    S    
C125  C126  A    
C82   H26   S    
C101  O9    A    
C83   H23   S    
Cr12  O12   S    
C49   C57   S    
C41   C102  S    
C154  H92   S    
C145  C150  A    
C43   C104  S    
Cr7   O19   S    
C52   C60   S    
C159  H96   S    
C61   C77   A    
C131  C132  A    
C11   C27   A    
Cr6   O30   S    
Cr2   O22   S    
C168  H104  S    
Cr8   O32   S    
Cr9   O13   S    
C44   C52   A    
C139  C144  A    
C27   C157  S    
C85   H61   S    
C104  O12   A    
C1    C12   S    
C11   C15   A    
C2    C11   S    
C44   C103  S    
C3    O23   A    
C133  C138  A    
Cr1   O41   S    
C62   C66   A    
C1    O21   A    
C136  H77   S    
C10   C14   A    
C129  H71   S    
C17   C37   A    
C48   O36   A    
C116  C120  S    
C74   H58   S    
C7    C116  S    
C107  O15   A    
C145  C146  A    
Cr10  O18   S    
C88   H64   S    
C105  O13   A    
C98   O46   A    
C166  H102  S    
C30   H46   S    
C50   C58   S    
Cr3   O43   S    
C16   C20   A    
C86   C127  S    
Cr8   O28   S    
C113  C117  S    
C42   C50   A    
C115  C119  S    
C167  H103  S    
C74   C78   A    
C61   C100  S    
C42   C101  S    
C112  C116  S    
C69   C85   S    
C108  O44   A    
C45   C117  S    
C21   C25   A    
C62   C78   A    
C76   C80   A    
C127  C128  A    
C15   C31   S    
C129  C130  A    
C16   C32   S    
C60   H16   S    
C153  H91   S    
C13   C17   A    
C45   O33   A    
C146  H85   S    
C57   C58   S    
C115  H3    S    
C21   H37   S    
C114  H2    S    
C100  O52   A    
C150  H89   S    
C24   H40   S    
C58   H12   S    
C157  C158  A    
C59   H9    S    
C49   C50   A    
Cr9   O37   S    
C140  C141  A    
C144  H84   S    
Cr11  O35   S    
C4    C9    S    
C81   C85   S    
C83   C87   S    
C55   C56   A    
C6    H34   S    
Cr7   O51   S    
C128  C129  A    
C46   O30   A    
C74   C94   A    
C137  C138  A    
Cr1   O17   S    
C113  H1    S    
C84   H28   S    
Cr7   O31   S    
C130  C131  A    
C85   C121  S    
C78   H18   S    
C17   C33   S    
C12   C28   A    
C13   C29   S    
C70   C94   A    
Cr12  O40   S    
C90   O2    A    
C146  C147  A    
C46   C118  S    
C149  C150  A    
C39   C91   S    
C7    H35   S    
Cr6   O26   S    
C60   H10   S    
C94   C106  S    
Cr11  O15   S    
C99   O51   A    
C121  C126  A    
C64   C80   A    
C151  C156  A    
C103  O7    A    
C110  C117  S    
C101  O5    A    
C124  H67   S    
Cr2   O2    S    
C3    O27   A    
C130  H72   S    
Cr12  O16   S    
C81   H25   S    
C154  C155  A    
C68   C84   S    
C24   C28   A    
Cr10  O34   S    
C77   H17   S    
C147  C148  A    
C165  C166  A    
Cr4   O24   S    
C122  C123  A    
C82   C86   S    
C32   H42   S    
C31   H47   S    
C105  O41   A    
C142  C143  A    
Cr9   O17   S    
Cr6   O6    S    
C65   C81   S    
C157  C162  A    
C162  H99   S    
C95   C107  S    
C71   C87   S    
C141  H81   S    
Cr1   O45   S    
C1    O25   A    
C31   C35   S    
Cr3   O3    S    
C32   C36   S    
Cr4   O4    S    
Cr5   O49   S    
C48   O32   A    
C161  H98   S    
C91   O39   A    
Cr12  O36   S    
C89   O37   A    
C112  C119  S    
C156  H94   S    
C147  H86   S    
C116  H4    S    
Cr8   O52   S    
C37   C89   S    
C164  C165  A    
C109  C110  S    
C43   C51   A    
C164  H100  S    
Cr6   O18   S    
C65   C69   A    
C67   C71   A    
C161  C162  A    
C20   C36   S    
Cr11  O39   S    
C21   C37   A    
C92   O40   A    
C35   H55   S    
C152  C153  A    
C22   C26   A    
C89   O1    A    
C33   H53   S    
C127  C132  A    
C92   O4    A    
Cr5   O29   S    
C134  H75   S    
C5    C114  S    
C45   O29   A    
C166  C167  A    
C14   C18   A    
C81   H21   S    
C63   C79   A    
C76   H60   S    
C102  O10   A    
C143  C144  A    
C138  H79   S    
C8    C115  S    
C87   C133  S    
C41   C49   A    
C28   C163  S    
Cr3   O23   S    
C36   H52   S    
C5    H33   S    
C109  C113  S    
C93   C105  S    
C10   C26   A    
C47   C119  S    
C86   H62   S    
C14   C30   S    
C72   C88   S    
C104  O8    A    
C148  H87   S    
Cr2   O42   S    
C63   C67   A    
C2    O22   A    
C57   H11   S    
Cr1   O21   S    
C111  H31   S    
Cr9   O33   S    
C47   O31   A    
C142  H82   S    
C5    C117  S    
C111  C120  S    
Cr11  O11   S    
C6    C113  S    
C160  C161  A    
C106  O14   A    
C99   O47   A    
C97   O45   A    
C135  C136  A    
Cr3   O19   S    
C103  O11   A    
C40   C92   S    
C18   C34   S    
C114  C118  S    
C19   C39   A    
C151  C152  A    
Cr12  O20   S    
C23   C27   A    
Cr3   O47   S    
C51   C59   S    
C70   C86   S    
C155  C156  A    
C8    C120  S    
C79   H19   S    
C31   H41   S    
C122  H65   S    
C80   H20   S    
C110  C114  S    
C64   C97   S    
Cr8   O8    S    
C158  H95   S    
C58   H14   S    
Cr4   O44   S    
C4    O24   A    
C26   C151  S    
C108  O16   A    
C3    C10   S    
C109  H29   S    
C33   H49   S    
C54   H6    S    
C23   C39   A    
C24   C40   A    
C34   H50   S    
C159  C160  A    
C41   C54   A    
C75   H59   S    
C82   H22   S    
C43   C56   A    
C83   H27   S    
C163  C168  A    
C111  C115  S    
Cr10  O10   S    
C6    C118  S    
