data_str_m9_o1_o2_f0_sra.sym.29
_audit_creation_date              2012-12-11T15:54:39-0500
_audit_creation_method            fapswitch 2.2
_symmetry_space_group_name_H-M    P1
_symmetry_Int_Tables_number       1
_space_group_crystal_system       triclinic
_cell_length_a                    6.931002
_cell_length_b                    14.523086
_cell_length_c                    16.086272
_cell_angle_alpha                 89.936375
_cell_angle_beta                  89.95226
_cell_angle_gamma                 90.012995
_cell_volume                      1619.23510703

loop_
_atom_site_label
_atom_site_type_symbol
_atom_type_description
_atom_site_fract_x
_atom_site_fract_y
_atom_site_fract_z
_atom_type_partial_charge
O1    O     O_R   0.638180 0.333920 0.163320 -0.540497
O2    O     O_R   0.361820 0.666080 0.836680 -0.540497
O3    O     O_R   0.308470 0.344960 0.336080 -0.541793
O4    O     O_R   0.691530 0.655040 0.663920 -0.541793
O5    O     O_R   0.138140 0.166110 0.336680 -0.535758
O6    O     O_R   0.861860 0.833890 0.663320 -0.535758
C1    C     C_R   0.477476 0.367092 0.365134 0.713004
C2    C     C_R   0.522524 0.632908 0.634866 0.713004
O7    O     O_R   0.308460 0.344950 0.163930 -0.543019
O8    O     O_R   0.691540 0.655050 0.836070 -0.543020
O9    O     O_R   0.138140 0.166100 0.163310 -0.543120
O10   O     O_R   0.861860 0.833900 0.836690 -0.543120
C3    C     C_R   0.477559 0.367223 0.135018 0.696018
C4    C     C_R   0.522441 0.632777 0.864981 0.696018
O11   O     O_R   0.638180 0.333930 0.336700 -0.538618
O12   O     O_R   0.361820 0.666070 0.663300 -0.538618
O13   O     O_3   0.471670 0.191340 0.250000 -0.370115
O14   O     O_3   0.528330 0.808660 0.750000 -0.370115
V1    V     V_3+5 0.196830 0.260900 0.250000 1.441091
V2    V     V_3+5 0.803170 0.739100 0.750000 1.441090
O15   O     O_R   0.808420 0.155070 0.163920 -0.547168
O16   O     O_R   0.191580 0.844930 0.836080 -0.547168
C5    C     C_R   0.977519 0.132743 0.135032 0.671391
C6    C     C_R   0.022480 0.867257 0.864968 0.671392
O17   O     O_R   0.808420 0.155080 0.336070 -0.538334
O18   O     O_R   0.191580 0.844920 0.663930 -0.538334
C7    C     C_R   0.977221 0.133075 0.364620 0.695241
C8    C     C_R   0.022779 0.866925 0.635379 0.695241
V3    V     V_3+5 0.696830 0.239130 0.250000 1.437125
V4    V     V_3+5 0.303170 0.760870 0.750000 1.437125
O19   O     O_3   0.971850 0.308690 0.250010 -0.365371
O20   O     O_3   0.028150 0.691310 0.749990 -0.365371
C9    C     C_R   0.037972 0.190336 0.534734 -0.182964
C10   C     C_R   0.962028 0.809664 0.465266 -0.182964
C11   C     C_R   0.067890 0.220369 0.616029 0.325249
C12   C     C_R   0.932110 0.779631 0.383970 0.325249
C13   C     C_R   0.080838 0.156774 0.680535 -0.129965
C14   C     C_R   0.919162 0.843226 0.319465 -0.129965
C15   C     C_R   0.063426 0.062893 0.664327 -0.198585
C16   C     C_R   0.936573 0.937107 0.335673 -0.198585
C17   C     C_R   0.032822 0.030396 0.582529 0.072622
C18   C     C_R   0.967178 0.969604 0.417471 0.072622
C19   C     C_R   0.020059 0.095428 0.516338 0.019986
C20   C     C_R   0.979941 0.904572 0.483662 0.019986
C21   C     C_R   0.012619 0.934946 0.566248 -0.146580
C22   C     C_R   0.987381 0.065054 0.433752 -0.146581
H1    H     H_    0.027711 0.242200 0.486577 0.123444
H2    H     H_    0.972289 0.757800 0.513423 0.123444
H3    H     H_    0.073285 0.016264 0.716669 0.112576
H4    H     H_    0.926715 0.983736 0.283331 0.112575
C23   C     C_R   0.179367 0.975489 0.966873 -0.154472
C24   C     C_R   0.820633 0.024511 0.033127 -0.154472
H5    H     H_    0.320057 0.957674 0.942412 0.117480
H6    H     H_    0.679943 0.042326 0.057588 0.117480
C25   C     C_R   0.168268 0.038955 0.032180 -0.145010
C26   C     C_R   0.831732 0.961045 0.967820 -0.145010
H7    H     H_    0.300955 0.068246 0.055840 0.118743
H8    H     H_    0.699045 0.931754 0.944160 0.118743
C27   C     C_R   0.988741 0.064370 0.066233 -0.045568
C28   C     C_R   0.011259 0.935630 0.933767 -0.045567
C29   C     C_R   0.322042 0.480141 0.463192 -0.078739
C30   C     C_R   0.677958 0.519859 0.536807 -0.078739
H9    H     H_    0.182467 0.466015 0.435812 0.147591
H10   H     H_    0.817533 0.533985 0.564188 0.147591
C31   C     C_R   0.333239 0.544002 0.528178 -0.068936
C32   C     C_R   0.666761 0.455998 0.471822 -0.068936
H11   H     H_    0.201746 0.577303 0.548646 0.135553
H12   H     H_    0.798254 0.422697 0.451354 0.135553
C33   C     C_R   0.511326 0.564657 0.565981 -0.069992
C34   C     C_R   0.488674 0.435343 0.434019 -0.069992
C35   C     C_R   0.320450 0.474581 0.032453 -0.140501
C36   C     C_R   0.679549 0.525418 0.967547 -0.140501
H13   H     H_    0.179643 0.456012 0.056378 0.120483
H14   H     H_    0.820357 0.543988 0.943622 0.120483
C37   C     C_R   0.331541 0.538153 0.967168 -0.133642
C38   C     C_R   0.668458 0.461847 0.032832 -0.133642
H15   H     H_    0.198738 0.566789 0.942952 0.121175
H16   H     H_    0.801261 0.433211 0.057048 0.121175
C39   C     C_R   0.511243 0.564431 0.933802 -0.046089
C40   C     C_R   0.488757 0.435569 0.066197 -0.046089
H17   H     H_    0.896285 0.819916 0.256332 0.150395
H18   H     H_    0.103715 0.180084 0.743668 0.150395
Br1   Br    Br    0.089195 0.349034 0.639032 -0.614330
Br2   Br    Br    0.910805 0.650966 0.360968 -0.614330

loop_
_geom_bond_atom_site_label_1
_geom_bond_atom_site_label_2
_ccdc_geom_bond_type
C29   C34   A    
C32   H12   S    
C25   C27   A    
O13   V3    S    
O4    C2    A    
V1    O19   S    
C1    C34   S    
C15   C17   A    
C5    C27   S    
O9    V1    S    
C2    C33   S    
C11   C13   A    
C38   H16   S    
C36   C39   A    
O3    C1    A    
C31   C33   A    
O12   V4    S    
C18   C22   A    
C29   H9    S    
O7    C3    A    
C30   H10   S    
O13   V1    S    
O5    C7    A    
O7    V1    S    
O6    C8    A    
O8    V2    S    
C31   H11   S    
O3    V1    S    
O14   V4    S    
V4    O20   S    
C23   C25   A    
C36   C38   A    
C16   C18   A    
C3    C40   S    
C2    O12   A    
C17   C19   A    
C18   C20   A    
C35   C40   A    
C24   H6    S    
O11   V3    S    
O17   V3    S    
C8    C21   S    
C35   C37   A    
C30   C32   A    
C9    C19   A    
C10   C20   A    
C36   H14   S    
O8    C4    A    
C35   H13   S    
C11   Br1   S    
C1    O11   A    
O15   V3    S    
C26   C28   A    
C30   C33   A    
C23   H5    S    
C24   C27   A    
C6    C28   S    
O10   V2    S    
O1    V3    S    
C4    C39   S    
C37   H15   S    
C7    C22   S    
C15   H3    S    
O18   V4    S    
C25   H7    S    
C14   H17   S    
C9    H1    S    
O16   C6    A    
C13   H18   S    
O1    C3    A    
C12   C14   A    
C20   C21   A    
V2    O20   S    
O16   V4    S    
C38   C40   A    
O5    V1    S    
O17   C7    A    
O6    V2    S    
O10   C6    A    
O18   C8    A    
O2    V4    S    
O15   C5    A    
V3    O19   S    
C14   C16   A    
C32   C34   A    
C12   Br2   S    
C16   H4    S    
O9    C5    A    
C9    C11   A    
C10   C12   A    
C26   H8    S    
O14   V2    S    
O2    C4    A    
C19   C22   A    
O4    V2    S    
C29   C31   A    
C10   H2    S    
C13   C15   A    
C17   C21   A    
C23   C28   A    
C37   C39   A    
C24   C26   A    
