data_str_m4_o15_o24_f0_acs.sym.91
_audit_creation_date              2012-12-11T14:28:33-0500
_audit_creation_method            fapswitch 2.2
_symmetry_space_group_name_H-M    P1
_symmetry_Int_Tables_number       1
_space_group_crystal_system       triclinic
_cell_length_a                    10.886743
_cell_length_b                    19.201794
_cell_length_c                    18.784716
_cell_angle_alpha                 90.023945
_cell_angle_beta                  90.184282
_cell_angle_gamma                 89.913261
_cell_volume                      3926.82574295

loop_
_atom_site_label
_atom_site_type_symbol
_atom_type_description
_atom_site_fract_x
_atom_site_fract_y
_atom_site_fract_z
_atom_type_partial_charge
C1    C     C_R   0.319044 0.962451 0.643535 0.542792
C2    C     C_R   0.319347 0.963097 0.856050 0.542708
C3    C     C_R   0.318810 0.036344 0.355620 0.543450
C4    C     C_R   0.319250 0.036894 0.143978 0.542068
C5    C     C_R   0.819044 0.462451 0.643535 0.542781
C6    C     C_R   0.818603 0.462866 0.856127 0.544693
C7    C     C_R   0.818810 0.536344 0.355620 0.543399
C8    C     C_R   0.818501 0.537054 0.143939 0.543886
C9    C     C_3   0.149588 0.701334 0.473874 -0.096671
C10   C     C_3   0.150384 0.702355 0.026457 -0.096708
C11   C     C_3   0.155071 0.263631 0.538575 -0.108092
C12   C     C_3   0.149906 0.298193 0.974121 -0.096679
C13   C     C_3   0.649587 0.201333 0.473874 -0.096679
C14   C     C_3   0.654138 0.233847 0.038254 -0.106455
C15   C     C_3   0.655070 0.763630 0.538575 -0.108045
C16   C     C_3   0.653987 0.766204 0.962079 -0.106781
C17   C     C_3   0.032079 0.727878 0.437392 0.059987
C18   C     C_3   0.032895 0.728879 0.062565 0.060562
C19   C     C_3   0.022140 0.272128 0.562245 0.052571
C20   C     C_3   0.033166 0.271283 0.937272 0.060617
C21   C     C_3   0.532078 0.227878 0.437392 0.060072
C22   C     C_3   0.521050 0.226669 0.062048 0.051858
C23   C     C_3   0.522139 0.772128 0.562246 0.052646
C24   C     C_3   0.520899 0.773517 0.937821 0.051994
C25   C     C_R   0.321156 0.013863 0.427769 -0.024167
C26   C     C_R   0.323824 0.016214 0.071125 -0.028694
C27   C     C_R   0.322871 0.982028 0.570130 -0.029330
C28   C     C_R   0.323916 0.983821 0.928929 -0.029197
C29   C     C_R   0.821155 0.513863 0.427769 -0.024140
C30   C     C_R   0.820171 0.515853 0.071241 -0.024620
C31   C     C_R   0.822870 0.482027 0.570130 -0.029308
C32   C     C_R   0.820288 0.483947 0.928901 -0.024763
C33   C     C_R   0.545623 0.987802 0.424928 -0.077150
C34   C     C_R   0.549478 0.990581 0.073699 -0.078540
C35   C     C_R   0.549743 0.003883 0.571526 -0.091734
C36   C     C_R   0.549275 0.009483 0.927015 -0.079162
C37   C     C_R   0.045622 0.487801 0.424928 -0.077189
C38   C     C_R   0.046543 0.493891 0.073666 -0.088940
C39   C     C_R   0.049742 0.503883 0.571525 -0.091751
C40   C     C_R   0.046340 0.506086 0.927193 -0.089529
C41   C     C_R   0.656962 0.989452 0.460848 -0.138017
C42   C     C_R   0.659929 0.993676 0.036963 -0.137975
C43   C     C_R   0.659194 0.001431 0.533754 -0.139606
C44   C     C_R   0.659796 0.006528 0.964100 -0.138163
C45   C     C_R   0.156961 0.489452 0.460847 -0.138009
C46   C     C_R   0.156855 0.494701 0.037073 -0.140537
C47   C     C_R   0.159194 0.501431 0.533753 -0.139577
C48   C     C_R   0.156713 0.505460 0.964147 -0.141375
C49   C     C_R   0.435442 0.997501 0.535994 -0.020453
C50   C     C_R   0.436790 0.999397 0.962956 -0.023940
C51   C     C_R   0.434296 0.999539 0.461705 -0.012697
C52   C     C_R   0.436826 0.000696 0.037431 -0.023300
C53   C     C_R   0.935442 0.497500 0.535994 -0.020438
C54   C     C_R   0.933148 0.498188 0.963244 -0.009125
C55   C     C_R   0.934295 0.499538 0.461705 -0.012670
C56   C     C_R   0.933166 0.501658 0.037261 -0.008976
C57   C     C_R   0.211777 0.977910 0.529988 -0.000333
C58   C     C_R   0.213314 0.981668 0.968954 0.001390
C59   C     C_R   0.208661 0.012508 0.466688 -0.000199
C60   C     C_R   0.213236 0.018430 0.030784 0.001206
C61   C     C_R   0.711776 0.477910 0.529989 -0.000302
C62   C     C_R   0.707056 0.483531 0.967605 -0.001674
C63   C     C_R   0.708661 0.512507 0.466688 -0.000163
C64   C     C_R   0.706967 0.516302 0.032193 -0.001893
C65   C     C_R   0.101740 0.943775 0.550599 -0.081708
C66   C     C_R   0.101282 0.948393 0.949873 -0.083963
C67   C     C_R   0.092104 0.041062 0.445838 -0.085115
C68   C     C_R   0.101023 0.051588 0.049649 -0.084431
C69   C     C_R   0.601739 0.443776 0.550600 -0.081670
C70   C     C_R   0.592403 0.453921 0.945044 -0.080813
C71   C     C_R   0.592103 0.541061 0.445837 -0.085037
C72   C     C_R   0.592192 0.545921 0.054402 -0.081153
C73   C     C_R   0.988300 0.965023 0.525047 -0.137236
C74   C     C_R   0.989944 0.971612 0.976839 -0.141165
C75   C     C_R   0.983900 0.019158 0.476959 -0.140681
C76   C     C_R   0.989787 0.028308 0.022346 -0.141350
C77   C     C_R   0.488299 0.465023 0.525047 -0.137169
C78   C     C_R   0.481911 0.473858 0.974481 -0.136448
C79   C     C_R   0.483899 0.519158 0.476959 -0.140596
C80   C     C_R   0.481784 0.526013 0.024532 -0.136723
C81   C     C_R   0.132962 0.758155 0.643528 0.531826
C82   C     C_R   0.133395 0.758338 0.856565 0.532564
C83   C     C_R   0.137315 0.241057 0.358118 0.538879
C84   C     C_R   0.133105 0.241724 0.143516 0.533002
C85   C     C_R   0.632962 0.258155 0.643528 0.532682
C86   C     C_R   0.637040 0.258835 0.858095 0.538292
C87   C     C_R   0.637315 0.741057 0.358118 0.539693
C88   C     C_R   0.636873 0.741205 0.141964 0.538943
C89   C     C_R   0.496340 0.787216 0.637407 0.560226
C90   C     C_R   0.495624 0.787735 0.862375 0.561629
C91   C     C_R   0.499664 0.213382 0.362959 0.562469
C92   C     C_R   0.495678 0.212409 0.137454 0.561296
C93   C     C_R   0.996340 0.287216 0.637407 0.560240
C94   C     C_R   0.000422 0.286299 0.863002 0.561785
C95   C     C_R   0.999664 0.713382 0.362959 0.562482
C96   C     C_R   0.000302 0.713803 0.136844 0.561629
C97   C     C_3   0.048467 0.800333 0.470177 -0.117712
C98   C     C_3   0.049129 0.801359 0.029703 -0.118048
C99   C     C_3   0.982563 0.208981 0.517619 -0.113037
C100  C     C_3   0.050379 0.198781 0.970011 -0.117831
C101  C     C_3   0.548467 0.300333 0.470176 -0.117639
C102  C     C_3   0.483120 0.290497 0.018046 -0.113068
C103  C     C_3   0.482562 0.708981 0.517620 -0.112991
C104  C     C_3   0.483137 0.709675 0.981644 -0.112479
C105  C     C_3   0.165810 0.773877 0.507719 -0.130766
C106  C     C_3   0.166447 0.774868 0.992558 -0.130371
C107  C     C_3   0.116956 0.200997 0.492946 -0.130859
C108  C     C_3   0.166957 0.225658 0.007912 -0.130055
C109  C     C_3   0.665810 0.273876 0.507719 -0.130891
C110  C     C_3   0.617636 0.297287 0.993444 -0.132085
C111  C     C_3   0.616955 0.700997 0.492946 -0.130956
C112  C     C_3   0.617677 0.702783 0.006727 -0.131833
C113  C     C_3   0.087106 0.750099 0.570643 0.042050
C114  C     C_3   0.087833 0.750846 0.929435 0.042177
C115  C     C_3   0.090444 0.250804 0.430758 0.048111
C116  C     C_3   0.087432 0.249204 0.070593 0.042203
C117  C     C_3   0.587105 0.250099 0.570643 0.041834
C118  C     C_3   0.589648 0.248507 0.930636 0.047273
C119  C     C_3   0.590444 0.750804 0.430759 0.047895
C120  C     C_3   0.589489 0.751579 0.069378 0.047275
C121  C     C_3   0.970400 0.777374 0.534739 -0.138158
C122  C     C_3   0.971142 0.778260 0.964847 -0.137457
C123  C     C_3   0.956907 0.258594 0.453989 -0.151379
C124  C     C_3   0.971472 0.221419 0.034407 -0.137355
C125  C     C_3   0.470400 0.277375 0.534739 -0.138159
C126  C     C_3   0.455982 0.241713 0.953917 -0.150898
C127  C     C_3   0.456907 0.758594 0.453989 -0.151324
C128  C     C_3   0.455854 0.758480 0.045659 -0.151391
C129  C     C_3   0.953119 0.704551 0.500480 -0.132570
C130  C     C_3   0.953903 0.705503 0.999154 -0.132064
C131  C     C_3   0.995345 0.321732 0.500331 -0.132133
C132  C     C_3   0.953287 0.294186 0.000194 -0.132304
C133  C     C_3   0.453118 0.204551 0.500480 -0.132536
C134  C     C_3   0.492842 0.177745 0.999662 -0.133219
C135  C     C_3   0.495345 0.821733 0.500331 -0.132096
C136  C     C_3   0.492516 0.822437 0.000081 -0.133461
C137  C     C_3   0.070905 0.678212 0.537478 -0.104495
C138  C     C_3   0.071641 0.679131 0.962642 -0.105241
C139  C     C_3   0.129678 0.313507 0.476173 -0.090660
C140  C     C_3   0.070256 0.320942 0.037487 -0.105422
C141  C     C_3   0.570904 0.178212 0.537479 -0.104513
C142  C     C_3   0.627235 0.184874 0.975320 -0.090363
C143  C     C_3   0.629678 0.813507 0.476174 -0.090710
C144  C     C_3   0.626923 0.815206 0.024880 -0.090252
Cr1   Cr    Cr6+3 0.488160 0.884660 0.750000 0.992829
Cr2   Cr    Cr6+3 0.488160 0.115340 0.250000 0.994482
Cr3   Cr    Cr6+3 0.988160 0.384660 0.750000 0.992807
Cr4   Cr    Cr6+3 0.988160 0.615340 0.250000 0.994475
Cr5   Cr    Cr6+3 0.173480 0.883120 0.750000 0.992162
Cr6   Cr    Cr6+3 0.173480 0.116880 0.250000 0.990382
Cr7   Cr    Cr6+3 0.673480 0.383120 0.750000 0.992035
Cr8   Cr    Cr6+3 0.673480 0.616880 0.250000 0.990248
Cr9   Cr    Cr6+3 0.333410 0.727260 0.750000 1.015659
Cr10  Cr    Cr6+3 0.333410 0.272740 0.250000 1.014029
Cr11  Cr    Cr6+3 0.833410 0.227260 0.750000 1.015662
Cr12  Cr    Cr6+3 0.833410 0.772740 0.250000 1.013962
H1    H     H_    0.905732 0.940300 0.543999 0.103078
H2    H     H_    0.905601 0.946769 0.960512 0.104103
H3    H     H_    0.898330 0.043155 0.461606 0.101792
H4    H     H_    0.905280 0.053042 0.038465 0.103884
H5    H     H_    0.405731 0.440300 0.543999 0.103040
H6    H     H_    0.398231 0.449513 0.956570 0.100460
H7    H     H_    0.398329 0.543155 0.461606 0.101758
H8    H     H_    0.397957 0.550357 0.042088 0.100236
H9    H     H_    0.039712 0.849419 0.439450 0.144553
H10   H     H_    0.040297 0.850732 0.059964 0.142669
H11   H     H_    0.921612 0.166331 0.535894 0.130877
H12   H     H_    0.042692 0.149459 0.939547 0.143190
H13   H     H_    0.539713 0.349419 0.439449 0.144676
H14   H     H_    0.423185 0.333501 0.036843 0.132338
H15   H     H_    0.421611 0.666331 0.535894 0.130933
H16   H     H_    0.423267 0.666748 0.962612 0.132818
H17   H     H_    0.905080 0.812521 0.561885 0.103470
H18   H     H_    0.906428 0.813725 0.937406 0.103759
H19   H     H_    0.878353 0.256979 0.416292 0.119865
H20   H     H_    0.906753 0.185777 0.061215 0.103381
H21   H     H_    0.405080 0.312522 0.561884 0.103471
H22   H     H_    0.377536 0.244431 0.916220 0.120260
H23   H     H_    0.378353 0.756980 0.416292 0.119896
H24   H     H_    0.377759 0.755857 0.083292 0.119724
H25   H     H_    0.869442 0.672762 0.495625 0.098648
H26   H     H_    0.870598 0.673472 0.003614 0.097907
H27   H     H_    0.938708 0.368717 0.504582 0.119094
H28   H     H_    0.869585 0.325926 0.994996 0.097446
H29   H     H_    0.369441 0.172763 0.495625 0.098667
H30   H     H_    0.436013 0.130778 0.003484 0.119080
H31   H     H_    0.438708 0.868717 0.504583 0.119101
H32   H     H_    0.435479 0.869405 0.996066 0.118769
H33   H     H_    0.081944 0.631741 0.570774 0.133536
H34   H     H_    0.082671 0.633106 0.928850 0.133668
H35   H     H_    0.194702 0.354267 0.458821 0.135792
H36   H     H_    0.079938 0.366877 0.071532 0.133632
H37   H     H_    0.581941 0.131741 0.570774 0.133632
H38   H     H_    0.690452 0.143288 0.957390 0.135680
H39   H     H_    0.694702 0.854267 0.458822 0.135779
H40   H     H_    0.690002 0.856758 0.043030 0.136188
H41   H     H_    0.222191 0.669147 0.448644 0.123986
H42   H     H_    0.222839 0.670019 0.051864 0.123502
H43   H     H_    0.230512 0.262550 0.577944 0.128895
H44   H     H_    0.222035 0.330785 0.949178 0.123567
H45   H     H_    0.722189 0.169146 0.448645 0.124026
H46   H     H_    0.730074 0.233562 0.077302 0.129385
H47   H     H_    0.730511 0.762549 0.577945 0.128958
H48   H     H_    0.729663 0.766341 0.923185 0.129563
H49   H     H_    0.740432 0.980605 0.431451 0.105056
H50   H     H_    0.744961 0.986261 0.065655 0.106219
H51   H     H_    0.744819 0.008071 0.561879 0.110226
H52   H     H_    0.744665 0.014077 0.935664 0.106256
H53   H     H_    0.240431 0.480604 0.431449 0.105015
H54   H     H_    0.241059 0.486564 0.066159 0.109472
H55   H     H_    0.244818 0.508071 0.561878 0.110196
H56   H     H_    0.240708 0.513928 0.935350 0.109283
H57   H     H_    0.548394 0.975186 0.368930 0.139637
H58   H     H_    0.554212 0.978828 0.129831 0.141755
H59   H     H_    0.557265 0.014822 0.627685 0.140128
H60   H     H_    0.553798 0.021159 0.870880 0.142110
H61   H     H_    0.048392 0.475185 0.368929 0.139282
H62   H     H_    0.052533 0.481905 0.129672 0.136855
H63   H     H_    0.057265 0.514822 0.627684 0.139833
H64   H     H_    0.052087 0.518026 0.871196 0.137218
O1    O     O_R   0.575450 0.828820 0.667950 -0.514950
O2    O     O_R   0.575450 0.828820 0.832050 -0.515121
O3    O     O_R   0.575450 0.171180 0.332050 -0.517013
O4    O     O_R   0.575450 0.171180 0.167950 -0.515087
O5    O     O_R   0.075450 0.328820 0.667950 -0.514935
O6    O     O_R   0.075450 0.328820 0.832050 -0.517351
O7    O     O_R   0.075450 0.671180 0.332050 -0.516977
O8    O     O_R   0.075450 0.671180 0.167950 -0.517243
O9    O     O_R   0.416860 0.942890 0.674680 -0.529429
O10   O     O_R   0.416860 0.942890 0.825320 -0.528273
O11   O     O_R   0.416860 0.057110 0.325320 -0.525642
O12   O     O_R   0.416860 0.057110 0.174680 -0.529084
O13   O     O_R   0.916860 0.442890 0.674680 -0.529590
O14   O     O_R   0.916860 0.442890 0.825320 -0.526302
O15   O     O_R   0.916860 0.557110 0.325320 -0.525824
O16   O     O_R   0.916860 0.557110 0.174680 -0.527092
O17   O     O_R   0.213790 0.953680 0.668330 -0.523456
O18   O     O_R   0.213790 0.953680 0.831670 -0.524935
O19   O     O_R   0.213790 0.046320 0.331670 -0.532362
O20   O     O_R   0.213790 0.046320 0.168330 -0.525683
O21   O     O_R   0.713790 0.453680 0.668330 -0.523382
O22   O     O_R   0.713790 0.453680 0.831670 -0.530283
O23   O     O_R   0.713790 0.546320 0.331670 -0.532322
O24   O     O_R   0.713790 0.546320 0.168330 -0.531073
O25   O     O_R   0.121360 0.817890 0.672660 -0.532018
O26   O     O_R   0.121360 0.817890 0.827340 -0.529635
O27   O     O_R   0.121360 0.182110 0.327340 -0.525384
O28   O     O_R   0.121360 0.182110 0.172660 -0.529147
O29   O     O_R   0.621360 0.317890 0.672660 -0.531952
O30   O     O_R   0.621360 0.317890 0.827340 -0.528508
O31   O     O_R   0.621360 0.682110 0.327340 -0.525267
O32   O     O_R   0.621360 0.682110 0.172660 -0.527913
O33   O     O_R   0.206850 0.711370 0.665820 -0.531625
O34   O     O_R   0.206850 0.711370 0.834180 -0.532852
O35   O     O_R   0.206850 0.288630 0.334180 -0.532596
O36   O     O_R   0.206850 0.288630 0.165820 -0.532232
O37   O     O_R   0.706850 0.211370 0.665820 -0.531000
O38   O     O_R   0.706850 0.211370 0.834180 -0.531258
O39   O     O_R   0.706850 0.788630 0.334180 -0.531893
O40   O     O_R   0.706850 0.788630 0.165820 -0.531160
O41   O     O_R   0.457710 0.733190 0.672630 -0.494766
O42   O     O_R   0.457710 0.733190 0.827370 -0.495065
O43   O     O_R   0.457710 0.266810 0.327370 -0.500163
O44   O     O_R   0.457710 0.266810 0.172630 -0.495274
O45   O     O_R   0.957710 0.233190 0.672630 -0.495215
O46   O     O_R   0.957710 0.233190 0.827370 -0.499607
O47   O     O_R   0.957710 0.766810 0.327370 -0.500561
O48   O     O_R   0.957710 0.766810 0.172630 -0.499898
O49   O     O_3   0.331690 0.831680 0.750000 -0.299038
O50   O     O_3   0.331690 0.168320 0.250000 -0.296561
O51   O     O_3   0.831690 0.331680 0.750000 -0.296313
O52   O     O_3   0.831690 0.668320 0.250000 -0.293938
H65   H     H_    0.249480 0.805552 0.514567 0.101100
H66   H     H_    0.249483 0.806885 0.985685 0.102078
H67   H     H_    0.172713 0.153372 0.493264 0.106589
H68   H     H_    0.250603 0.194057 0.015306 0.102011
H69   H     H_    0.749480 0.305551 0.514566 0.101086
H70   H     H_    0.674601 0.344244 0.995246 0.105879
H71   H     H_    0.672712 0.653372 0.493265 0.106601
H72   H     H_    0.675086 0.655881 0.005495 0.105664
H73   H     H_    0.080533 0.083268 0.408920 0.173801
H74   H     H_    0.097091 0.095601 0.084414 0.174845
H75   H     H_    0.101145 0.900536 0.585836 0.177819
H76   H     H_    0.097560 0.904325 0.915198 0.175009
H77   H     H_    0.580532 0.583267 0.408919 0.173720
H78   H     H_    0.583581 0.587694 0.091831 0.176290
H79   H     H_    0.601144 0.400537 0.585836 0.177729
H80   H     H_    0.583985 0.412110 0.907660 0.176684

loop_
_geom_bond_atom_site_label_1
_geom_bond_atom_site_label_2
_ccdc_geom_bond_type
C6    C32   S    
Cr1   O10   S    
C7    C29   S    
C119  C143  S    
Cr4   O52   S    
C120  C144  S    
C110  C118  S    
C36   C50   A    
C4    O12   A    
C16   C144  S    
Cr8   O24   S    
C57   C59   A    
Cr1   O1    S    
C8    O24   A    
C58   C60   A    
C81   O33   A    
C62   C70   A    
C61   C63   A    
C38   H62   S    
C20   C94   S    
Cr10  O43   S    
C121  H17   S    
C48   H56   S    
C49   C51   A    
C34   C42   A    
C84   O36   A    
C50   C52   A    
C23   C89   S    
C128  H24   S    
C107  H67   S    
C88   O32   A    
C97   C105  S    
C40   H64   S    
C41   C43   A    
C42   C44   A    
C20   C132  S    
C21   C133  S    
C116  C140  S    
Cr3   O6    S    
C99   H11   S    
Cr10  O35   S    
C45   C47   A    
C46   C48   A    
C115  C123  S    
C92   O4    A    
C27   C57   A    
C87   O39   A    
C112  C120  S    
Cr11  O38   S    
C33   H57   S    
C29   C55   A    
C46   H54   S    
C30   C56   A    
C100  C124  S    
C111  H71   S    
C15   C111  S    
Cr11  O51   S    
C104  C128  S    
C12   C20   S    
C142  H38   S    
C13   C21   S    
C85   C117  S    
Cr11  O45   S    
C115  C139  S    
C113  C137  S    
C36   C44   A    
C33   C51   A    
C37   C45   A    
C130  C138  S    
C91   O43   A    
C39   C47   A    
C40   C48   A    
Cr9   O33   S    
C133  C141  S    
C24   C90   S    
C15   H47   S    
C28   C58   A    
C98   C106  S    
C61   C69   A    
C33   C41   A    
C10   C18   S    
C126  H22   S    
C95   O7    A    
Cr5   O49   S    
C93   O5    A    
C129  C137  S    
C126  C134  S    
Cr6   O19   S    
C83   O27   A    
C10   C138  S    
C85   O37   A    
Cr10  O50   S    
C101  C109  S    
C102  H14   S    
C14   C142  S    
C85   O29   A    
Cr5   O26   S    
C47   H55   S    
C134  H30   S    
C69   C77   A    
Cr4   O8    S    
C67   H73   S    
Cr6   O50   S    
C71   C79   A    
Cr6   O28   S    
C74   C76   A    
C96   O8    A    
C105  C113  S    
C89   O1    A    
C78   C80   A    
C9    C105  S    
C66   C74   A    
C73   H1    S    
C124  C132  S    
C111  C119  S    
C97   C121  S    
C59   C67   A    
C86   O38   A    
C35   C49   A    
C62   C64   A    
C35   C43   A    
C133  H29   S    
C24   C136  S    
C135  C143  S    
C6    O14   A    
C84   C116  S    
C136  H32   S    
C103  H15   S    
C131  H27   S    
C135  H31   S    
C9    H41   S    
Cr7   O30   S    
C68   H74   S    
Cr2   O11   S    
C23   C103  S    
C100  C108  S    
C82   O26   A    
C83   C115  S    
C3    O11   A    
C104  C112  S    
C94   O6    A    
C1    O17   A    
C122  H18   S    
C45   H53   S    
C112  H72   S    
C87   C119  S    
Cr7   O21   S    
Cr2   O4    S    
C95   O47   A    
Cr12  O48   S    
C57   C65   A    
C12   H44   S    
C141  H37   S    
C98   H10   S    
C15   C143  S    
C40   C54   A    
C10   C106  S    
C67   C75   A    
C81   C113  S    
Cr8   O32   S    
C14   C110  S    
Cr1   O9    S    
C102  C126  S    
C109  H69   S    
C144  H40   S    
C118  C126  S    
C68   C76   A    
C84   O28   A    
Cr4   O15   S    
C105  H65   S    
C14   C22   S    
C72   C80   A    
C16   H48   S    
C36   H60   S    
C125  H21   S    
C71   H77   S    
C14   H46   S    
C114  C138  S    
C90   O42   A    
C38   C46   A    
Cr10  O44   S    
C2    O10   A    
C37   C55   A    
Cr3   O14   S    
C38   C56   A    
C22   C92   S    
C6    O22   A    
C25   C59   A    
C17   C97   S    
C27   C49   A    
C119  C127  S    
C29   C63   A    
C96   O48   A    
C30   C64   A    
C73   C75   A    
C31   C61   A    
C37   H61   S    
Cr3   O5    S    
C109  C117  S    
Cr10  O36   S    
C11   C19   S    
C127  C135  S    
C139  H35   S    
C128  C136  S    
Cr11  O37   S    
C93   O45   A    
C125  C133  S    
C103  C111  S    
C11   C139  S    
C80   H8    S    
Cr3   O51   S    
C9    C137  S    
C12   C140  S    
C101  H13   S    
C17   C95   S    
C13   C141  S    
C88   C120  S    
C19   C93   S    
C104  H16   S    
Cr12  O39   S    
C77   C79   A    
Cr5   O25   S    
C32   C54   A    
C77   H5    S    
C7    O15   A    
C74   H2    S    
C43   H51   S    
C3    C25   S    
C72   H78   S    
Cr8   O23   S    
C35   H59   S    
C34   H58   S    
C79   H7    S    
Cr1   O2    S    
C83   O35   A    
C117  C141  S    
C134  C142  S    
C123  H19   S    
C20   C100  S    
Cr2   O50   S    
C143  H39   S    
Cr5   O18   S    
C4    O20   A    
C86   C118  S    
C124  H20   S    
C8    O16   A    
C69   H79   S    
C22   C134  S    
C70   H80   S    
C102  C110  S    
C91   O3    A    
C16   C112  S    
C12   C108  S    
C21   C91   S    
C39   H63   S    
C19   C99   S    
C116  C124  S    
C123  C131  S    
C121  C129  S    
C108  H68   S    
C4    C26   S    
C120  C128  S    
Cr12  O52   S    
C132  C140  S    
C99   C107  S    
C34   C52   A    
C23   C135  S    
C8    C30   S    
Cr9   O41   S    
C108  C116  S    
C127  H23   S    
C136  C144  S    
C132  H28   S    
C39   C53   A    
C97   H9    S    
C42   H50   S    
C11   H43   S    
Cr11  O46   S    
C88   O40   A    
C60   C68   A    
Cr4   O16   S    
Cr5   O17   S    
C82   O34   A    
C3    O19   A    
C110  H70   S    
C86   O30   A    
Cr9   O34   S    
C70   C78   A    
C18   C96   S    
C106  H66   S    
Cr7   O29   S    
Cr2   O12   S    
C106  C114  S    
C90   O2    A    
C44   H52   S    
C65   C73   A    
Cr1   O49   S    
C28   C50   A    
C58   C66   A    
C13   C109  S    
C21   C101  S    
C15   C23   S    
C16   C24   S    
C5    O13   A    
Cr12  O40   S    
C138  H34   S    
Cr4   O7    S    
C10   H42   S    
C53   C55   A    
C19   C131  S    
Cr6   O27   S    
C94   O46   A    
C54   C56   A    
C17   C129  S    
C81   O25   A    
C131  C139  S    
C82   C114  S    
C130  H26   S    
C2    O18   A    
C24   C104  S    
C25   C51   A    
C26   C52   A    
C101  C125  S    
C113  C121  S    
C65   H75   S    
C92   O44   A    
C31   C53   A    
C66   H76   S    
Cr9   O42   S    
C107  C115  S    
C137  H33   S    
Cr3   O13   S    
C9    C17   S    
C78   H6    S    
C11   C107  S    
C140  H36   S    
C103  C127  S    
C99   C123  S    
C75   H3    S    
C129  H25   S    
C76   H4    S    
Cr9   O49   S    
C63   C71   A    
C118  C142  S    
C18   C98   S    
Cr6   O20   S    
C22   C102  S    
C100  H12   S    
C87   O31   A    
Cr7   O22   S    
Cr2   O3    S    
Cr7   O51   S    
Cr12  O47   S    
C26   C60   A    
Cr8   O52   S    
C13   H45   S    
C64   C72   A    
C41   H49   S    
C18   C130  S    
C114  C122  S    
C1    O9    A    
C89   O41   A    
C98   C122  S    
C7    O23   A    
C1    C27   S    
C2    C28   S    
C32   C62   A    
C5    O21   A    
C117  C125  S    
C122  C130  S    
Cr8   O31   S    
C5    C31   S    
