data_str_m9_o8_o16_f0_sra.sym.31
_audit_creation_date              2012-12-11T17:43:58-0500
_audit_creation_method            fapswitch 2.2
_symmetry_space_group_name_H-M    P1
_symmetry_Int_Tables_number       1
_space_group_crystal_system       triclinic
_cell_length_a                    20.25034
_cell_length_b                    22.720847
_cell_length_c                    6.944061
_cell_angle_alpha                 90.000794
_cell_angle_beta                  86.766913
_cell_angle_gamma                 90.000385
_cell_volume                      3189.91105343

loop_
_atom_site_label
_atom_site_type_symbol
_atom_type_description
_atom_site_fract_x
_atom_site_fract_y
_atom_site_fract_z
_atom_type_partial_charge
O1    O     O_R   0.751270 0.447300 0.600030 -0.495821
O2    O     O_R   0.248730 0.947300 0.399970 -0.495822
O3    O     O_R   0.613530 0.440160 0.952150 -0.545001
O4    O     O_R   0.386470 0.940160 0.047850 -0.545009
O5    O     O_R   0.613050 0.552700 0.122560 -0.543132
O6    O     O_R   0.386950 0.052700 0.877440 -0.543132
C1    C     C_R   0.591489 0.425430 0.787182 0.671147
C2    C     C_R   0.408512 0.925430 0.212812 0.671135
O7    O     O_R   0.750780 0.440350 0.929820 -0.540688
O8    O     O_R   0.249220 0.940350 0.070180 -0.540686
O9    O     O_R   0.751280 0.552900 0.100070 -0.542919
O10   O     O_R   0.248720 0.052900 0.899930 -0.542912
C3    C     C_R   0.774164 0.426300 0.757149 0.777982
C4    C     C_R   0.225836 0.926300 0.242850 0.777979
O11   O     O_R   0.613040 0.447100 0.622520 -0.543261
O12   O     O_R   0.386960 0.947100 0.377480 -0.543263
O13   O     O_3   0.682160 0.536920 0.777780 -0.370249
O14   O     O_3   0.317840 0.036920 0.222220 -0.370236
V1    V     V_3+5 0.682160 0.493150 0.052630 1.491999
V2    V     V_3+5 0.317840 0.993150 0.947370 1.492008
O15   O     O_R   0.750790 0.559840 0.429870 -0.499461
O16   O     O_R   0.249210 0.059840 0.570130 -0.499459
C5    C     C_R   0.773814 0.574193 0.257508 0.781658
C6    C     C_R   0.226186 0.074193 0.742493 0.781647
O17   O     O_R   0.613540 0.559650 0.452200 -0.544507
O18   O     O_R   0.386460 0.059650 0.547800 -0.544501
C7    C     C_R   0.591631 0.574429 0.287187 0.671469
C8    C     C_R   0.408368 0.074428 0.712819 0.671473
V3    V     V_3+5 0.682160 0.506850 0.552630 1.549064
V4    V     V_3+5 0.317840 0.006850 0.447370 1.549078
O19   O     O_3   0.682150 0.463080 0.277610 -0.363035
O20   O     O_3   0.317850 0.963080 0.722390 -0.363039
C9    C     C_R   0.578969 0.860734 0.141234 -0.089889
C10   C     C_R   0.421005 0.360760 0.858237 -0.089855
H1    H     H_    0.536003 0.946109 0.109930 0.126216
H2    H     H_    0.463966 0.446139 0.889540 0.126223
H3    H     H_    0.626573 0.877403 0.089082 0.182107
H4    H     H_    0.373380 0.377443 0.910148 0.182110
C11   C     C_R   0.463278 0.882492 0.210287 -0.044332
C12   C     C_R   0.536726 0.382492 0.789667 -0.044323
C13   C     C_R   0.473118 0.596483 0.334377 -0.152958
C14   C     C_R   0.526894 0.096466 0.665965 -0.152981
C15   C     C_R   0.419000 0.634704 0.347291 0.026708
C16   C     C_R   0.581021 0.134679 0.653202 0.026703
C17   C     C_R   0.428780 0.695077 0.316747 -0.242944
C18   C     C_R   0.571239 0.195057 0.683608 -0.242940
C19   C     C_R   0.492588 0.718780 0.272736 0.085989
C20   C     C_R   0.507419 0.218775 0.727330 0.085993
C21   C     C_R   0.547126 0.678895 0.257617 0.073235
C22   C     C_R   0.452871 0.178899 0.742278 0.073234
C23   C     C_R   0.503667 0.780561 0.240917 0.062349
C24   C     C_R   0.496338 0.280561 0.759027 0.062357
C25   C     C_R   0.569195 0.800893 0.190766 0.096424
C26   C     C_R   0.430793 0.300909 0.808856 0.096404
C27   C     C_R   0.622944 0.760658 0.184892 -0.037742
C28   C     C_R   0.377038 0.260681 0.814559 -0.037734
C29   C     C_R   0.610962 0.700748 0.214354 -0.262730
C30   C     C_R   0.389023 0.200765 0.785246 -0.262684
C31   C     C_R   0.451659 0.823011 0.254867 -0.201806
C32   C     C_R   0.548359 0.323001 0.745254 -0.201789
C33   C     C_R   0.526768 0.900651 0.150385 -0.173902
C34   C     C_R   0.473213 0.400670 0.849238 -0.173919
C35   C     C_R   0.536881 0.617620 0.289543 -0.110595
C36   C     C_R   0.463119 0.117618 0.710498 -0.110575
H5    H     H_    0.401344 0.811492 0.297080 0.096215
H6    H     H_    0.598689 0.311471 0.703277 0.096188
H7    H     H_    0.465803 0.549783 0.359839 0.147724
H8    H     H_    0.534211 0.049759 0.640629 0.147708
H9    H     H_    0.385230 0.722285 0.327611 0.101611
H10   H     H_    0.614796 0.222258 0.672868 0.101611
H11   H     H_    0.652857 0.670969 0.206655 0.094896
H12   H     H_    0.347120 0.170993 0.792814 0.094850
C37   C     C_R   0.170192 0.883085 0.261576 -0.186320
C38   C     C_R   0.829809 0.383086 0.738421 -0.186320
C39   C     C_R   0.148322 0.854038 0.097540 -0.271833
C40   C     C_R   0.851677 0.354038 0.902455 -0.271830
C41   C     C_R   0.095550 0.814031 0.112854 -0.128604
C42   C     C_R   0.904450 0.314031 0.887141 -0.128610
C43   C     C_R   0.063381 0.801783 0.294040 0.348378
C44   C     C_R   0.936622 0.301786 0.705959 0.348373
C45   C     C_R   0.085473 0.830230 0.457228 -0.248486
C46   C     C_R   0.914534 0.330236 0.542772 -0.248491
C47   C     C_R   0.137699 0.870636 0.442306 0.594095
C48   C     C_R   0.862306 0.370640 0.557693 0.594107
C49   C     C_R   0.916385 0.675136 0.378877 -0.207146
C50   C     C_R   0.083623 0.175143 0.621116 -0.207128
C51   C     C_R   0.864998 0.633906 0.398851 0.586737
C52   C     C_R   0.135009 0.133913 0.601143 0.586739
C53   C     C_R   0.932882 0.701811 0.198805 0.344603
C54   C     C_R   0.067116 0.201811 0.801196 0.344587
N1    N     N_2   0.010066 0.760787 0.320766 -0.273417
N2    N     N_2   0.989938 0.260792 0.679233 -0.273414
N3    N     N_2   0.985787 0.743234 0.169439 -0.269044
N4    N     N_2   0.014211 0.243233 0.830562 -0.269048
C55   C     C_R   0.828377 0.618352 0.239393 -0.193959
C56   C     C_R   0.171622 0.118351 0.760609 -0.193998
H13   H     H_    0.943623 0.685425 0.504343 0.163926
H14   H     H_    0.056392 0.185438 0.495642 0.163918
H15   H     H_    0.061512 0.821305 0.597632 0.154026
H16   H     H_    0.938497 0.321313 0.402370 0.154028
C57   C     C_R   0.844917 0.645214 0.060485 -0.259143
C58   C     C_R   0.155073 0.145206 0.939526 -0.259151
C59   C     C_R   0.896621 0.686113 0.040677 -0.144299
C60   C     C_R   0.103369 0.186106 0.959333 -0.144360
H17   H     H_    0.817630 0.634803 0.935319 0.220096
H18   H     H_    0.182354 0.134790 0.064699 0.220159
H19   H     H_    0.080546 0.792500 0.983285 0.160441
H20   H     H_    0.919451 0.292500 0.016710 0.160442
H21   H     H_    0.908393 0.705863 0.900969 0.158852
H22   H     H_    0.091591 0.205850 0.099048 0.158863
H23   H     H_    0.172233 0.861994 0.956719 0.224353
H24   H     H_    0.827762 0.361991 0.043275 0.224343
F1    F     F_    0.155515 0.897878 0.605308 -0.690290
F2    F     F_    0.844493 0.397884 0.394694 -0.690279
C61   C     C_2   0.693396 0.778274 0.153257 0.388240
H25   H     H_    0.728295 0.748224 0.080647 0.053530
O21   O     O_2   0.714213 0.824084 0.218778 -0.508693
C62   C     C_2   0.306579 0.278309 0.845853 0.388243
H26   H     H_    0.271639 0.248274 0.918359 0.053541
O22   O     O_2   0.285805 0.324110 0.780155 -0.508702
C63   C     C_2   0.351363 0.612200 0.393709 0.409114
H27   H     H_    0.309777 0.642414 0.403631 0.043568
O23   O     O_2   0.341139 0.559823 0.421430 -0.509284
C64   C     C_2   0.648671 0.112160 0.607100 0.409137
H28   H     H_    0.690263 0.142368 0.597293 0.043568
O24   O     O_2   0.658898 0.059778 0.579511 -0.509279
F3    F     F_    0.852461 0.608401 0.573753 -0.691262
F4    F     F_    0.147554 0.108415 0.426232 -0.691281

loop_
_geom_bond_atom_site_label_1
_geom_bond_atom_site_label_2
_ccdc_geom_bond_type
V4    O20   S    
C52   C56   A    
C21   C35   A    
C54   N4    S    
C56   C58   A    
C22   C36   A    
C47   F1    S    
O4    C2    A    
V1    O19   S    
C51   F3    S    
C21   C29   A    
C13   H7    S    
O9    V1    S    
C38   C40   A    
C12   C32   A    
C40   C42   A    
O3    C1    A    
C6    C56   S    
C42   C44   A    
O12   V4    S    
C61   H25   S    
C10   C34   A    
C12   C34   A    
C42   H20   S    
C17   C19   A    
O7    C3    A    
C62   H26   S    
C24   C32   A    
O5    C7    A    
O7    V1    S    
O6    C8    A    
O8    V2    S    
C61   O21   D    
C51   C55   A    
C1    C12   S    
O3    V1    S    
O14   V4    S    
C2    C11   S    
C28   C30   A    
C15   C63   S    
C43   N1    S    
C49   C51   A    
C32   H6    S    
C2    O12   A    
C53   C59   A    
O17   V3    S    
C13   C15   A    
C14   C16   A    
C52   F4    S    
H2    C34   S    
O1    V3    S    
O18   C8    A    
C45   C47   A    
C24   C26   A    
O11   V3    S    
C50   H14   S    
C18   C20   A    
C25   C27   A    
C9    C25   A    
C11   C33   A    
C26   C28   A    
C57   H17   S    
C63   O23   D    
C50   C52   A    
C17   H9    S    
C22   C30   A    
C4    C37   S    
C41   H19   S    
C44   C46   A    
C50   C54   A    
C43   C45   A    
C49   C53   A    
C19   C23   A    
C1    O11   A    
C45   H15   S    
O15   V3    S    
C16   C64   S    
C9    H3    S    
C23   C25   A    
C44   N2    S    
N1    N3    D    
C39   C41   A    
C20   C24   A    
C40   H24   S    
C11   C31   A    
O10   V2    S    
N2    N4    D    
C41   C43   A    
H1    C33   S    
C29   H11   S    
C58   C60   A    
C20   C22   A    
C15   C17   A    
C54   C60   A    
C63   H27   S    
C7    C35   S    
C8    C36   S    
C9    C33   A    
C10   C26   A    
C46   C48   A    
O15   C5    A    
O8    C4    A    
O17   C7    A    
O16   C6    A    
O1    C3    A    
C37   C39   A    
C14   C36   A    
C64   O24   D    
V2    O20   S    
C48   F2    S    
O16   V4    S    
C10   H4    S    
C46   H16   S    
C38   C48   A    
O18   V4    S    
O5    V1    S    
C19   C21   A    
O6    V2    S    
O10   C6    A    
C39   H23   S    
O2    V4    S    
C59   H21   S    
C27   C29   A    
V3    O19   S    
O13   V3    S    
C31   H5    S    
C60   H22   S    
C30   H12   S    
C27   C61   S    
O9    C5    A    
O13   V1    S    
C5    C55   S    
C58   H18   S    
O14   V2    S    
C14   H8    S    
C53   N3    S    
O2    C4    A    
C62   O22   D    
C18   H10   S    
C49   H13   S    
O4    V2    S    
C28   C62   S    
C23   C31   A    
C3    C38   S    
C57   C59   A    
C13   C35   A    
C37   C47   A    
C16   C18   A    
C55   C57   A    
C64   H28   S    
