data_str_m2_o10_o14_f0_pcu.sym.32
_audit_creation_date              2012-10-26T19:59:39-0400
_audit_creation_method            fapswitch 2.2
_symmetry_space_group_name_H-M    P1
_symmetry_Int_Tables_number       1
_space_group_crystal_system       triclinic
_cell_length_a                    10.738814
_cell_length_b                    8.679303
_cell_length_c                    7.483596
_cell_angle_alpha                 103.138001
_cell_angle_beta                  94.63235
_cell_angle_gamma                 92.838245
_cell_volume                      675.378549183

loop_
_atom_site_label
_atom_site_type_symbol
_atom_type_description
_atom_site_fract_x
_atom_site_fract_y
_atom_site_fract_z
_atom_type_partial_charge
C1    C     C_R   0.496047 0.199735 0.453121 0.548461
C2    C     C_R   0.503911 0.800260 0.546881 0.525960
C3    C     C_R   0.737376 0.506274 0.499342 0.533059
C4    C     C_R   0.153588 0.775073 0.729907 -0.102223
C5    C     C_R   0.099493 0.902998 0.836692 -0.119914
C6    C     C_R   0.969868 0.904744 0.832920 -0.120082
C7    C     C_R   0.893580 0.778609 0.722287 -0.104445
C8    C     C_R   0.946426 0.646464 0.614848 0.025293
C9    C     C_R   0.078086 0.644639 0.618766 0.024041
C10   C     C_R   0.129790 0.514525 0.505914 0.003830
C11   C     C_R   0.053381 0.393368 0.386368 -0.151434
C12   C     C_R   0.925028 0.395105 0.382696 -0.148974
C13   C     C_R   0.871501 0.518047 0.498555 0.005195
C14   C     C_2   0.493977 0.031554 0.427056 -0.156577
C15   C     C_2   0.505804 0.968400 0.572970 -0.160983
C16   C     C_R   0.263002 0.504349 0.502270 0.536853
Cu1   Cu    Cu3+1 0.513920 0.517380 0.684380 0.975650
Cu2   Cu    Cu3+1 0.486080 0.482620 0.315620 0.954014
H1    H     H_    0.093555 0.295333 0.297721 0.118365
H2    H     H_    0.391583 0.238699 0.943782 0.211727
H3    H     H_    0.288993 0.379987 0.967530 0.226943
H4    H     H_    0.599382 0.621517 0.051084 0.212276
H5    H     H_    0.254485 0.781374 0.733377 0.138978
H6    H     H_    0.158400 0.002077 0.920984 0.106768
H7    H     H_    0.928201 0.005186 0.914293 0.112016
H8    H     H_    0.793413 0.787576 0.719314 0.130525
H9    H     H_    0.867111 0.297789 0.292662 0.125032
H10   H     H_    0.482767 0.959414 0.286691 0.130055
H11   H     H_    0.517095 0.040486 0.713313 0.129627
N1    N     N_2   0.465100 0.456430 0.038520 -0.074844
N2    N     N_2   0.534900 0.543570 0.961480 -0.192654
N3    N     N_3   0.376265 0.351291 0.922291 -0.425356
O1    O     O_R   0.509050 0.286130 0.619770 -0.467222
O2    O     O_R   0.485540 0.256780 0.308360 -0.512304
O3    O     O_R   0.331410 0.514680 0.655740 -0.478739
O4    O     O_R   0.307900 0.485330 0.344330 -0.509811
O5    O     O_R   0.514460 0.743220 0.691640 -0.521796
O6    O     O_R   0.490950 0.713870 0.380230 -0.509486
O7    O     O_R   0.692100 0.514670 0.655670 -0.506348
O8    O     O_R   0.668590 0.485320 0.344260 -0.511477

loop_
_geom_bond_atom_site_label_1
_geom_bond_atom_site_label_2
_ccdc_geom_bond_type
C3    O8    A    
C11   C12   A    
C6    C7    A    
Cu2   N1    S    
C9    C10   A    
C2    O6    A    
C3    C13   S    
Cu1   Cu2   S    
Cu2   O6    S    
C3    O7    A    
C7    C8    A    
Cu1   O1    S    
Cu1   O5    S    
C16   O4    A    
N1    N3    S    
C2    C15   S    
Cu2   O2    S    
C2    O5    A    
C11   H1    S    
N1    N2    D    
C5    H6    S    
C7    H8    S    
C1    O2    A    
C15   H11   S    
C10   C11   A    
C16   O3    A    
Cu1   O7    S    
C5    C6    A    
Cu1   N2    S    
H3    N3    S    
C6    H7    S    
H4    N2    S    
C12   H9    S    
C1    O1    A    
C8    C13   A    
C12   C13   A    
H2    N3    S    
C4    H5    S    
Cu2   O8    S    
C14   C15   D    
C8    C9    A    
C10   C16   S    
C1    C14   S    
Cu1   O3    S    
C14   H10   S    
C4    C9    A    
Cu2   O4    S    
C4    C5    A    
