data_str_m3_o1_o12_f0_pcu.sym.54
_audit_creation_date              2012-12-10T18:43:47-0500
_audit_creation_method            fapswitch 2.2
_symmetry_space_group_name_H-M    P1
_symmetry_Int_Tables_number       1
_space_group_crystal_system       triclinic
_cell_length_a                    10.783369
_cell_length_b                    10.63639
_cell_length_c                    10.006363
_cell_angle_alpha                 89.291691
_cell_angle_beta                  105.290266
_cell_angle_gamma                 91.815483
_cell_volume                      1106.50003008

loop_
_atom_site_label
_atom_site_type_symbol
_atom_type_description
_atom_site_fract_x
_atom_site_fract_y
_atom_site_fract_z
_atom_type_partial_charge
C1    C     C_R   0.495708 0.260790 0.499438 0.813471
C2    C     C_2   0.879416 0.502106 0.597575 -0.360865
C3    C     C_2   0.058715 0.536591 0.493505 0.111005
C4    C     C_2   0.942320 0.463473 0.507054 0.080177
C5    C     C_R   0.389262 0.058748 0.416991 -0.029449
C6    C     C_R   0.610212 0.942346 0.582912 -0.012519
C7    C     C_R   0.397338 0.929304 0.417035 -0.211814
C8    C     C_R   0.601615 0.071302 0.583182 -0.280036
C9    C     C_R   0.505794 0.872281 0.499526 -0.073226
C10   C     C_R   0.493536 0.128116 0.500436 -0.072719
C11   C     C_3   0.895117 0.343978 0.422194 -0.361310
C12   C     C_R   0.503347 0.739375 0.500320 0.936084
C13   C     C_3   0.988219 0.235934 0.469456 -0.389471
C14   C     C_3   0.945403 0.121839 0.376313 -0.844286
C15   C     C_3   0.106526 0.655565 0.578984 -0.372866
C16   C     C_3   0.015842 0.764750 0.528629 -0.348289
C17   C     C_3   0.046296 0.872111 0.632699 -0.850542
C18   C     C_3   0.651783 0.691451 0.178312 -0.383093
C19   C     C_3   0.582384 0.816804 0.144744 -0.350677
C20   C     C_3   0.663864 0.925156 0.223942 -0.875170
C21   C     C_3   0.349055 0.307968 0.822170 -0.381654
C22   C     C_3   0.419873 0.183347 0.855803 -0.349340
C23   C     C_R   0.259260 0.503695 0.440149 0.876114
C24   C     C_3   0.338548 0.073911 0.778885 -0.879179
C25   C     C_2   0.665802 0.665349 0.896441 0.531228
C26   C     C_2   0.335337 0.333561 0.104453 0.481011
C27   C     C_2   0.270707 0.119182 0.335373 0.352207
C28   C     C_2   0.731306 0.887491 0.665670 0.310627
C29   C     C_R   0.740799 0.495944 0.559762 0.969958
C30   C     C_R   0.575192 0.585742 0.090274 0.107044
C31   C     C_R   0.424901 0.414166 0.909838 0.109634
C32   C     C_R   0.577217 0.582105 0.947620 -0.034362
C33   C     C_R   0.422882 0.417751 0.052550 -0.005877
C34   C     C_2   0.120747 0.498974 0.401980 -0.361230
H1    H     H_    0.922964 0.565910 0.681508 0.202279
H2    H     H_    0.800794 0.308181 0.434305 0.206901
H3    H     H_    0.879874 0.364772 0.310074 0.208158
H4    H     H_    0.042923 0.838147 0.737143 0.286468
H5    H     H_    0.143247 0.912616 0.637551 0.257370
H6    H     H_    0.974690 0.946480 0.600341 0.252830
H7    H     H_    0.027471 0.799676 0.427291 0.225428
H8    H     H_    0.913856 0.734278 0.511713 0.263576
H9    H     H_    0.119179 0.634702 0.690725 0.209601
H10   H     H_    0.202231 0.690245 0.570072 0.206907
H11   H     H_    0.692246 0.904215 0.336608 0.273914
H12   H     H_    0.076183 0.436948 0.316601 0.176975
H13   H     H_    0.751903 0.940360 0.187367 0.266317
H14   H     H_    0.608130 0.012637 0.206170 0.255119
H15   H     H_    0.561325 0.838671 0.032460 0.191238
H16   H     H_    0.488797 0.810763 0.171454 0.258784
H17   H     H_    0.671603 0.672354 0.289132 0.264937
H18   H     H_    0.749196 0.700660 0.160784 0.198094
H19   H     H_    0.251941 0.058337 0.817959 0.270121
H20   H     H_    0.307908 0.093817 0.666013 0.258371
H21   H     H_    0.395239 0.987016 0.796406 0.252935
H22   H     H_    0.512659 0.189794 0.827465 0.253006
H23   H     H_    0.317978 0.871957 0.355945 0.176961
H24   H     H_    0.442798 0.162346 0.968374 0.198238
H25   H     H_    0.251940 0.297813 0.840348 0.200697
H26   H     H_    0.328496 0.327135 0.711246 0.253774
H27   H     H_    0.632879 0.754345 0.848932 0.054427
H28   H     H_    0.368806 0.244192 0.150381 0.055613
H29   H     H_    0.255027 0.217560 0.350548 0.074355
H30   H     H_    0.800036 0.945219 0.740685 0.089131
H31   H     H_    0.680947 0.128575 0.644638 0.132857
H32   H     H_    0.852534 0.083419 0.389473 0.253937
H33   H     H_    0.934402 0.147823 0.265996 0.291074
H34   H     H_    0.018402 0.048300 0.404937 0.279528
H35   H     H_    0.087666 0.263714 0.467958 0.218651
H36   H     H_    0.990445 0.209004 0.577803 0.225215
N1    N     N_R   0.499970 0.499970 0.857200 -0.134563
N2    N     N_R   0.500030 0.500030 0.142800 -0.132761
O1    O     O_R   0.499990 0.316750 0.614620 -0.628203
O2    O     O_2   0.223981 0.361986 0.091208 -0.568052
O3    O     O_2   0.189382 0.059936 0.249018 -0.570454
O4    O     O_2   0.757830 0.779209 0.649630 -0.590148
O5    O     O_R   0.500010 0.683250 0.385380 -0.633901
O6    O     O_R   0.499990 0.316780 0.385290 -0.650057
O7    O     O_R   0.500010 0.683220 0.614710 -0.629339
O8    O     O_R   0.317810 0.500000 0.571850 -0.644788
O9    O     O_R   0.682190 0.500000 0.428150 -0.645102
O10   O     O_R   0.317810 0.500030 0.342520 -0.567122
O11   O     O_R   0.682190 0.499970 0.657480 -0.545611
O12   O     O_2   0.777506 0.636735 0.912464 -0.551044
Zn1   Zn    Zn3+2 0.500000 0.499980 0.653120 0.952538
Zn2   Zn    Zn3+2 0.500000 0.500020 0.346880 0.944235

loop_
_geom_bond_atom_site_label_1
_geom_bond_atom_site_label_2
_ccdc_geom_bond_type
C2    H1    S    
C23   O10   A    
C19   C20   S    
C6    C9    A    
C18   H18   S    
C24   H21   S    
C21   C31   S    
C2    C29   S    
C6    C8    A    
C11   H2    S    
C15   H10   S    
C21   H25   S    
C13   H36   S    
C24   H20   S    
C15   C16   S    
C12   O7    A    
C18   C19   S    
C17   H5    S    
C11   H3    S    
C33   N2    A    
N1    Zn1   S    
C6    C28   S    
C16   C17   S    
C25   O12   D    
C14   H33   S    
C31   C33   A    
C34   H12   S    
C23   O8    A    
C20   H11   S    
O6    Zn2   S    
C25   C32   S    
C31   N1    A    
C8    H31   S    
C5    C27   S    
C13   C14   S    
C1    O6    A    
C27   O3    D    
C18   H17   S    
C32   N1    A    
C21   H26   S    
C5    C7    A    
C22   H22   S    
C3    C34   D    
C24   H19   S    
O10   Zn2   S    
C17   H6    S    
C2    C4    D    
C29   O9    A    
O8    Zn1   S    
C19   H15   S    
C26   C33   S    
N2    Zn2   S    
C23   C34   S    
C12   O5    A    
C14   H32   S    
C25   H27   S    
C4    C11   S    
O1    Zn1   S    
C20   H14   S    
C27   H29   S    
C18   C30   S    
C28   H30   S    
O11   Zn1   S    
O5    Zn2   S    
C22   C24   S    
C3    C4    S    
C28   O4    D    
C16   H8    S    
O7    Zn1   S    
C3    C15   S    
C7    C9    A    
C1    C10   S    
O9    Zn2   S    
C22   H24   S    
C30   N2    A    
C29   O11   A    
C1    O1    A    
C26   H28   S    
C15   H9    S    
C5    C10   A    
C30   C32   A    
C11   C13   S    
C19   H16   S    
C13   H35   S    
C26   O2    D    
C17   H4    S    
C9    C12   S    
C20   H13   S    
C8    C10   A    
C14   H34   S    
C21   C22   S    
C16   H7    S    
C7    H23   S    
