data_str_m9_o18_o19_f0_sra.sym.78
_audit_creation_date              2012-12-11T15:27:43-0500
_audit_creation_method            fapswitch 2.2
_symmetry_space_group_name_H-M    P1
_symmetry_Int_Tables_number       1
_space_group_crystal_system       triclinic
_cell_length_a                    23.257072
_cell_length_b                    7.300465
_cell_length_c                    15.102527
_cell_angle_alpha                 90.340213
_cell_angle_beta                  108.268875
_cell_angle_gamma                 89.649306
_cell_volume                      2434.90482925

loop_
_atom_site_label
_atom_site_type_symbol
_atom_type_description
_atom_site_fract_x
_atom_site_fract_y
_atom_site_fract_z
_atom_type_partial_charge
O1    O     O_R   0.711000 0.648610 0.341170 -0.538566
O2    O     O_R   0.289000 0.351390 0.658830 -0.538554
O3    O     O_R   0.789000 0.148610 0.158830 -0.541461
O4    O     O_R   0.211000 0.851390 0.841170 -0.541468
O5    O     O_R   0.829650 0.322030 0.336650 -0.538435
O6    O     O_R   0.170350 0.677970 0.663350 -0.538435
O7    O     O_R   0.670350 0.822030 0.163350 -0.535330
O8    O     O_R   0.329650 0.177970 0.836650 -0.535333
C1    C     C_R   0.854264 0.485643 0.356823 0.738182
C2    C     C_R   0.145736 0.514357 0.643177 0.738192
C3    C     C_R   0.645736 0.985947 0.143168 0.737883
C4    C     C_R   0.354264 0.014052 0.856832 0.737875
O9    O     O_R   0.713950 0.319280 0.352070 -0.541034
O10   O     O_R   0.286050 0.680720 0.647930 -0.541027
O11   O     O_R   0.786050 0.819280 0.147930 -0.534099
O12   O     O_R   0.213950 0.180720 0.852070 -0.534100
O13   O     O_R   0.672470 0.142870 0.174360 -0.537059
O14   O     O_R   0.327530 0.857130 0.825640 -0.537064
O15   O     O_R   0.827530 0.642870 0.325640 -0.535296
O16   O     O_R   0.172470 0.357130 0.674360 -0.535292
C5    C     C_R   0.701968 0.488178 0.376122 0.750451
C6    C     C_R   0.298031 0.511821 0.623876 0.750468
C7    C     C_R   0.798030 0.986744 0.123757 0.751416
C8    C     C_R   0.201970 0.013256 0.876244 0.751401
O17   O     O_3   0.736530 0.478650 0.191680 -0.380948
O18   O     O_3   0.263470 0.521350 0.808320 -0.380958
O19   O     O_3   0.763470 0.978650 0.308320 -0.383283
O20   O     O_3   0.236530 0.021350 0.691680 -0.383264
V1    V     V_3+5 0.752500 0.206170 0.260820 1.445989
V2    V     V_3+5 0.247500 0.793830 0.739180 1.446046
V3    V     V_3+5 0.747500 0.706170 0.239180 1.463621
V4    V     V_3+5 0.252500 0.293830 0.760820 1.463676
C9    C     C_R   0.826853 0.990957 0.050580 -0.112999
C10   C     C_R   0.173148 0.009051 0.949422 -0.112997
C11   C     C_R   0.672888 0.499330 0.448772 -0.112454
C12   C     C_R   0.327109 0.500674 0.551223 -0.112415
C13   C     C_R   0.823295 0.947018 0.890370 -0.260533
C14   C     C_R   0.176703 0.053070 0.109625 -0.260601
C15   C     C_R   0.677037 0.544102 0.609114 -0.269247
C16   C     C_R   0.322960 0.455994 0.390875 -0.269350
C17   C     C_R   0.792640 0.962371 0.957045 0.458950
C18   C     C_R   0.207359 0.037687 0.042953 0.458964
C19   C     C_R   0.707112 0.533997 0.541624 0.457230
C20   C     C_R   0.292881 0.466064 0.458365 0.457322
C21   C     C_R   0.889652 0.011321 0.076724 -0.299088
C22   C     C_R   0.110349 0.988674 0.923278 -0.299094
C23   C     C_R   0.609966 0.483962 0.422700 -0.301762
C24   C     C_R   0.390032 0.516023 0.577298 -0.301764
C25   C     C_R   0.921103 0.997377 0.010649 0.090300
C26   C     C_R   0.078897 0.002659 0.989350 0.090306
C27   C     C_R   0.578713 0.501806 0.488817 0.092007
C28   C     C_R   0.421284 0.498236 0.511177 0.092009
C29   C     C_R   0.886517 0.964074 0.916471 0.084850
C30   C     C_R   0.113481 0.035996 0.083525 0.084861
C31   C     C_R   0.613718 0.530504 0.583256 0.081312
C32   C     C_R   0.386279 0.469579 0.416737 0.081361
C33   C     C_R   0.985625 0.010830 0.035248 0.071156
C34   C     C_R   0.014374 0.989216 0.964750 0.071148
C35   C     C_R   0.514154 0.491605 0.464389 0.072621
C36   C     C_R   0.485844 0.508454 0.535605 0.072618
C37   C     C_R   0.977632 0.955450 0.872058 -0.182691
C38   C     C_R   0.022366 0.044620 0.127937 -0.182695
C39   C     C_R   0.523049 0.534092 0.628822 -0.188229
C40   C     C_R   0.476948 0.466006 0.371169 -0.188238
C41   C     C_R   0.915183 0.944199 0.848735 -0.172507
C42   C     C_R   0.084815 0.055888 0.151259 -0.172562
C43   C     C_R   0.585490 0.545219 0.651740 -0.186554
C44   C     C_R   0.414507 0.454897 0.348250 -0.186555
H1    H     H_    0.889036 0.918162 0.776643 0.116483
H2    H     H_    0.110960 0.081948 0.223349 0.116474
H3    H     H_    0.612011 0.566012 0.724180 0.131254
H4    H     H_    0.387985 0.434142 0.275807 0.131245
H5    H     H_    0.798286 0.916736 0.818366 0.112491
H6    H     H_    0.201709 0.083393 0.181627 0.112500
H7    H     H_    0.702851 0.561694 0.681976 0.124201
H8    H     H_    0.297150 0.438443 0.318009 0.124144
H9    H     H_    0.995493 0.935847 0.815044 0.123158
H10   H     H_    0.004504 0.064246 0.184949 0.123160
H11   H     H_    0.505609 0.546116 0.686674 0.124613
H12   H     H_    0.494388 0.454024 0.313316 0.124613
C45   C     C_1   0.416752 0.006621 0.918790 -0.180236
C46   C     C_1   0.583248 0.993379 0.081210 -0.180239
C47   C     C_1   0.083245 0.507354 0.581202 -0.178726
C48   C     C_1   0.916755 0.492646 0.418798 -0.178748
C49   C     C_1   0.469138 0.002224 0.969989 0.001023
C50   C     C_1   0.530862 0.997776 0.030011 0.001022
C51   C     C_1   0.030862 0.502587 0.530008 0.003523
C52   C     C_1   0.969138 0.497413 0.469992 0.003520
H13   H     H_    0.087523 0.968220 0.850023 0.118509
H14   H     H_    0.912480 0.031728 0.149983 0.118507
H15   H     H_    0.412919 0.540851 0.650173 0.117764
H16   H     H_    0.587080 0.459068 0.349831 0.117774
O21   O     O_3   0.269428 0.065721 0.064423 -0.560606
C53   C     C_3   0.302469 0.979648 0.148658 -0.263866
H17   H     H_    0.284530 0.841332 0.156115 0.137378
H18   H     H_    0.303829 0.068444 0.209265 0.141566
H19   H     H_    0.349875 0.960710 0.148865 0.168464
O22   O     O_3   0.730571 0.934349 0.935571 -0.560609
C54   C     C_3   0.697533 0.020526 0.851365 -0.263858
H20   H     H_    0.696170 0.931814 0.790727 0.141566
H21   H     H_    0.715476 0.158861 0.843956 0.137392
H22   H     H_    0.650127 0.039445 0.851164 0.168461
O23   O     O_3   0.230163 0.457918 0.435542 -0.559309
C55   C     C_3   0.206241 0.310754 0.374215 -0.263520
H23   H     H_    0.234514 0.184317 0.392614 0.133135
H24   H     H_    0.199858 0.351010 0.300946 0.142812
H25   H     H_    0.160895 0.277311 0.379190 0.165475
O24   O     O_3   0.769827 0.542158 0.564464 -0.559310
C56   C     C_3   0.793697 0.689735 0.625531 -0.263436
H26   H     H_    0.800038 0.650038 0.698864 0.142700
H27   H     H_    0.765407 0.816090 0.606857 0.133195
H28   H     H_    0.839056 0.723029 0.620564 0.165463

loop_
_geom_bond_atom_site_label_1
_geom_bond_atom_site_label_2
_ccdc_geom_bond_type
O17   V3    S    
C47   C51   T    
C51   C52   S    
O1    C5    A    
O21   C53   S    
O19   V1    S    
C18   O21   S    
C9    C21   A    
C23   H16   S    
O3    C7    A    
C10   C18   A    
C11   C23   A    
C55   H24   S    
C25   C33   A    
C33   C38   A    
C22   H13   S    
C39   H11   S    
C49   C50   S    
O7    C3    A    
C35   C40   A    
C26   C30   A    
C36   C39   A    
C40   C44   A    
O9    V1    S    
C14   C18   A    
C56   H27   S    
C14   H6    S    
O4    C8    A    
C25   C29   A    
C2    C47   S    
O1    V3    S    
O13   V1    S    
O24   C56   S    
O2    V4    S    
O3    V1    S    
C28   C36   A    
C1    O15   A    
C15   C31   A    
C2    O16   A    
C16   C32   A    
C24   H15   S    
O2    C6    A    
C10   C22   A    
C15   H7    S    
C11   C19   A    
C16   C20   A    
C27   C31   A    
C44   H4    S    
C13   C29   A    
C34   C37   A    
O11   C7    A    
O15   V3    S    
C35   C36   A    
O12   C8    A    
C40   H12   S    
O10   V2    S    
C55   H23   S    
C20   O23   S    
O5    V1    S    
C3    C46   S    
C39   C43   A    
O7    V3    S    
C38   C42   A    
O8    V4    S    
C56   H28   S    
C37   H9    S    
O18   V4    S    
C15   C19   A    
C53   H19   S    
C7    C9    S    
C46   C50   T    
C8    C10   S    
C16   H8    S    
C26   C34   A    
O5    C1    A    
C31   C43   A    
C54   H20   S    
C14   C30   A    
C21   C25   A    
O8    C4    A    
O9    C5    A    
C53   H18   S    
C21   H14   S    
O14   V2    S    
C54   H21   S    
C12   C20   A    
C27   C35   A    
C29   C41   A    
O16   V4    S    
C13   H5    S    
C3    O13   A    
O6    V2    S    
C38   H10   S    
C48   C52   T    
O6    C2    A    
C23   C27   A    
O11   V3    S    
C30   C42   A    
O12   V4    S    
C6    C12   S    
C22   C26   A    
C9    C17   A    
O10   C6    A    
O20   V2    S    
C5    C11   S    
C32   C44   A    
C56   H26   S    
C33   C34   A    
C42   H2    S    
C41   H1    S    
C4    C45   S    
C12   C24   A    
C43   H3    S    
C19   O24   S    
C13   C17   A    
C53   H17   S    
O4    V2    S    
C1    C48   S    
C37   C41   A    
C24   C28   A    
C54   H22   S    
O22   C54   S    
C4    O14   A    
O23   C55   S    
C17   O22   S    
C55   H25   S    
C45   C49   T    
C28   C32   A    
