data_str_m9_o16_o25_f0_sra.sym.55
_audit_creation_date              2012-12-11T15:14:45-0500
_audit_creation_method            fapswitch 2.2
_symmetry_space_group_name_H-M    P1
_symmetry_Int_Tables_number       1
_space_group_crystal_system       triclinic
_cell_length_a                    22.196617
_cell_length_b                    7.236618
_cell_length_c                    19.501294
_cell_angle_alpha                 89.999493
_cell_angle_beta                  98.669536
_cell_angle_gamma                 89.996734
_cell_volume                      3096.67141456

loop_
_atom_site_label
_atom_site_type_symbol
_atom_type_description
_atom_site_fract_x
_atom_site_fract_y
_atom_site_fract_z
_atom_type_partial_charge
O1    O     O_R   0.448470 0.506130 0.415700 -0.529758
O2    O     O_R   0.551530 0.006130 0.584300 -0.529779
O3    O     O_R   0.436320 0.174490 0.555800 -0.536501
O4    O     O_R   0.563680 0.674490 0.444200 -0.536536
C1    C     C_R   0.423020 0.343834 0.577369 0.692279
C2    C     C_R   0.576979 0.843828 0.422630 0.692305
O5    O     O_R   0.441350 0.176340 0.414480 -0.542381
O6    O     O_R   0.558650 0.676340 0.585520 -0.542393
O7    O     O_R   0.556600 0.007100 0.441970 -0.519174
O8    O     O_R   0.443400 0.507100 0.558030 -0.519130
C3    C     C_R   0.426121 0.344885 0.390105 0.645427
C4    C     C_R   0.573881 0.844878 0.609894 0.645407
O9    O     O_3   0.537810 0.339550 0.509190 -0.366804
O10   O     O_3   0.462190 0.839550 0.490810 -0.366739
V1    V     V_3+5 0.492990 0.064280 0.498300 1.513189
V2    V     V_3+5 0.507010 0.564280 0.501700 1.513186
C5    C     C_R   0.871956 0.008757 0.698471 -0.114233
C6    C     C_R   0.128038 0.508696 0.301529 -0.114227
H1    H     H_    0.793465 0.017615 0.585320 0.181238
H2    H     H_    0.206537 0.517645 0.414674 0.181300
H3    H     H_    0.889837 0.047589 0.651724 0.165383
H4    H     H_    0.110156 0.547511 0.348277 0.165393
C7    C     C_R   0.887984 0.945578 0.821565 -0.109048
C8    C     C_R   0.112014 0.445554 0.178434 -0.109038
C9    C     C_R   0.593754 0.805862 0.735351 -0.133876
C10   C     C_R   0.406252 0.305877 0.264647 -0.133833
C11   C     C_R   0.630095 0.800780 0.799642 -0.120725
C12   C     C_R   0.369911 0.300781 0.200357 -0.120675
C13   C     C_R   0.692075 0.837981 0.806090 -0.147937
C14   C     C_R   0.307928 0.337976 0.193908 -0.147953
C15   C     C_R   0.720165 0.881919 0.747717 0.089381
C16   C     C_R   0.279838 0.381929 0.252280 0.089377
C17   C     C_R   0.682584 0.888977 0.680527 -0.013399
C18   C     C_R   0.317421 0.389012 0.319467 -0.013348
C19   C     C_R   0.784570 0.918575 0.754401 0.078088
C20   C     C_R   0.215431 0.418573 0.245597 0.078099
C21   C     C_R   0.809608 0.970481 0.694762 0.050904
C22   C     C_R   0.190390 0.470461 0.305235 0.050936
C23   C     C_R   0.772924 0.981277 0.630659 -0.155987
C24   C     C_R   0.227077 0.481295 0.369335 -0.156086
C25   C     C_R   0.711230 0.936435 0.622300 -0.066763
C26   C     C_R   0.288776 0.436500 0.377692 -0.066816
C27   C     C_R   0.825405 0.905974 0.818012 -0.200800
C28   C     C_R   0.174596 0.405977 0.181986 -0.200785
C29   C     C_R   0.911587 0.997326 0.761216 -0.040510
C30   C     C_R   0.088407 0.497260 0.238786 -0.040578
C31   C     C_R   0.618168 0.850061 0.675378 -0.085497
C32   C     C_R   0.381837 0.350087 0.324618 -0.085512
C33   C     C_3   0.777162 0.900658 0.315009 -0.047530
C34   C     C_3   0.222860 0.401258 0.684992 -0.047692
C35   C     C_3   0.778759 0.056334 0.261518 0.001025
C36   C     C_3   0.221358 0.556571 0.738639 0.001074
C37   C     C_1   0.875231 0.940443 0.120827 -0.152629
C38   C     C_1   0.124767 0.440415 0.879173 -0.152542
C39   C     C_1   0.622722 0.852735 0.376761 -0.084446
C40   C     C_1   0.377276 0.352763 0.623235 -0.084495
C41   C     C_3   0.790331 0.756037 0.260491 -0.266402
C42   C     C_3   0.209567 0.256361 0.739348 -0.266075
C43   C     C_3   0.791199 0.913352 0.206945 0.139814
C44   C     C_3   0.208796 0.413311 0.793053 0.139756
C45   C     C_3   0.720760 0.736000 0.237340 0.047303
C46   C     C_3   0.279116 0.235764 0.762497 0.047355
C47   C     C_3   0.708001 0.878485 0.292023 0.130450
C48   C     C_3   0.291997 0.378527 0.707973 0.130429
C49   C     C_3   0.721923 0.891068 0.182996 -0.213776
C50   C     C_3   0.278047 0.390460 0.816997 -0.213944
C51   C     C_3   0.709198 0.035600 0.238327 -0.232861
C52   C     C_3   0.290897 0.535276 0.761828 -0.232696
C53   C     C_1   0.837223 0.929303 0.159425 0.048204
C54   C     C_1   0.162774 0.429258 0.840574 0.048370
C55   C     C_1   0.661119 0.863147 0.338613 0.110368
C56   C     C_1   0.338879 0.363191 0.661382 0.110451
H5    H     H_    0.824113 0.642576 0.269958 0.176533
H6    H     H_    0.175701 0.143196 0.729736 0.176580
O11   O     O_R   0.056650 0.288730 0.942060 -0.537504
O12   O     O_R   0.943350 0.788730 0.057940 -0.537519
O13   O     O_R   0.058660 0.616870 0.085540 -0.541212
O14   O     O_R   0.941340 0.116870 0.914460 -0.541216
C57   C     C_R   0.072500 0.448983 0.110526 0.658002
C58   C     C_R   0.927499 0.948990 0.889474 0.657998
O15   O     O_R   0.063700 0.618520 0.944220 -0.529759
O16   O     O_R   0.936300 0.118520 0.055780 -0.529784
O17   O     O_R   0.948460 0.787610 0.915680 -0.531721
O18   O     O_R   0.051540 0.287610 0.084320 -0.531717
C59   C     C_R   0.078863 0.450073 0.924741 0.709657
C60   C     C_R   0.921137 0.950079 0.075260 0.709660
O19   O     O_3   0.962230 0.453430 0.990860 -0.375105
O20   O     O_3   0.037770 0.953430 0.009140 -0.375078
V3    V     V_3+5 0.007010 0.728750 0.001700 1.442395
V4    V     V_3+5 0.992990 0.228750 0.998300 1.442380
C61   C     C_2   0.977530 0.038627 0.762935 0.417401
H7    H     H_    0.009428 0.023580 0.810528 0.052063
O21   O     O_2   0.997273 0.089742 0.710919 -0.514526
C62   C     C_2   0.022460 0.538529 0.237069 0.417607
H8    H     H_    0.990568 0.523570 0.189467 0.051976
O22   O     O_2   0.002706 0.589516 0.289096 -0.514450
C63   C     C_2   0.810602 0.905093 0.387679 0.395219
H9    H     H_    0.859584 0.925027 0.396453 0.073064
O23   O     O_2   0.783322 0.885973 0.437017 -0.515181
C64   C     C_2   0.189443 0.406396 0.612323 0.395343
H10   H     H_    0.140484 0.426840 0.603554 0.072916
O24   O     O_2   0.216717 0.387290 0.562979 -0.515137
H11   H     H_    0.675543 0.149384 0.228972 0.165916
H12   H     H_    0.324636 0.648766 0.771330 0.165822
H13   H     H_    0.698958 0.886166 0.128357 0.122813
H14   H     H_    0.300989 0.385038 0.871634 0.122830
C65   C     C_2   0.689241 0.554994 0.221501 0.326677
H15   H     H_    0.702857 0.466335 0.181701 0.049460
O25   O     O_2   0.648360 0.506505 0.252875 -0.537868
C66   C     C_2   0.310520 0.054526 0.778171 0.326528
H16   H     H_    0.296871 0.965787 0.817920 0.049588
O26   O     O_2   0.351339 0.005923 0.746718 -0.537863
H17   H     H_    0.810235 0.867810 0.865995 0.098061
H18   H     H_    0.189769 0.367845 0.134001 0.098066
H19   H     H_    0.545625 0.775000 0.732361 0.116080
H20   H     H_    0.454382 0.275010 0.267638 0.116128
H21   H     H_    0.716681 0.832280 0.858000 0.103700
H22   H     H_    0.283321 0.332251 0.142000 0.103717
H23   H     H_    0.609911 0.767215 0.845294 0.120930
H24   H     H_    0.390095 0.267203 0.154707 0.120962
C67   C     C_2   0.680862 0.928625 0.550319 0.459946
H25   H     H_    0.657919 0.802941 0.531492 0.008723
O27   O     O_2   0.684089 0.058678 0.511119 -0.507868
C68   C     C_2   0.319155 0.428792 0.449669 0.460126
H26   H     H_    0.342073 0.303088 0.468528 0.008609
O28   O     O_2   0.315968 0.558966 0.488827 -0.507707
C69   C     C_2   0.810285 0.237652 0.277065 0.336107
H27   H     H_    0.796571 0.326945 0.316625 0.068941
O29   O     O_2   0.851327 0.285410 0.245808 -0.523289
C70   C     C_2   0.189951 0.738131 0.723262 0.335832
H28   H     H_    0.203729 0.827551 0.683790 0.068974
O30   O     O_2   0.148948 0.785986 0.754572 -0.523406

loop_
_geom_bond_atom_site_label_1
_geom_bond_atom_site_label_2
_ccdc_geom_bond_type
C42   C46   S    
C50   C52   S    
C33   C47   S    
C11   C13   A    
C34   C48   S    
C1    C40   S    
C25   C67   S    
O1    C3    A    
C2    C39   S    
C37   C53   T    
C2    O7    A    
C63   H9    S    
C51   H11   S    
C23   C25   A    
O14   V4    S    
O5    C3    A    
O13   V3    S    
C7    C29   A    
C16   C20   A    
C19   C21   A    
C5    C29   A    
C58   O17   A    
C57   O18   A    
H2    C24   S    
O14   C58   A    
C41   C43   S    
C42   C44   S    
C30   C62   S    
C7    C27   A    
C33   C35   S    
C41   H5    S    
C45   C47   S    
C66   H16   S    
C46   C48   S    
C36   C44   S    
O11   V4    S    
O19   V4    S    
O11   C59   A    
C40   C56   T    
C18   C26   A    
C34   C36   S    
C65   H15   S    
C15   C17   A    
C39   C55   T    
C37   C60   S    
C7    C58   S    
C19   C27   A    
C9    C31   A    
C36   C52   S    
C10   C32   A    
O12   V3    S    
O15   V3    S    
O5    V1    S    
C44   C50   S    
O6    V2    S    
C22   C24   A    
C65   O25   D    
C3    C32   S    
O18   V4    S    
C50   H14   S    
C4    C31   S    
C29   C61   S    
C6    C30   A    
C49   H13   S    
C63   O23   D    
C43   C49   S    
C66   O26   D    
O13   C57   A    
O17   V3    S    
C47   C51   S    
C46   C50   S    
C26   C68   S    
C34   C42   S    
C17   C25   A    
O4    C2    A    
C12   H24   S    
C61   H7    S    
C5    C21   A    
C14   H22   S    
C49   C51   S    
O16   C60   A    
C13   H21   S    
C5    H3    S    
C16   C18   A    
O4    V2    S    
C70   O30   D    
C69   O29   D    
C61   O21   D    
C8    C57   S    
C38   C54   T    
C44   C54   S    
O6    C4    A    
C64   O24   D    
O1    V2    S    
C35   C51   S    
C62   O22   D    
O2    V1    S    
C67   H25   S    
H1    C23   S    
C43   C53   S    
C47   C55   S    
C17   C31   A    
C15   C19   A    
C20   C28   A    
C18   C32   A    
C69   H27   S    
C48   C52   S    
O12   C60   A    
O3    V1    S    
C42   H6    S    
C68   O28   D    
O2    C4    A    
C6    H4    S    
C34   C64   S    
C52   H12   S    
O3    C1    A    
C38   C59   S    
C41   C45   S    
C11   H23   S    
C9    C11   A    
C10   C12   A    
O16   V4    S    
C8    C30   A    
C9    H19   S    
C70   H28   S    
C6    C22   A    
C35   C69   S    
C12   C14   A    
C13   C15   A    
O8    V2    S    
C27   H17   S    
C20   C22   A    
C14   C16   A    
C36   C70   S    
C33   C41   S    
C46   C66   S    
C8    C28   A    
C24   C26   A    
C64   H10   S    
C48   C56   S    
O7    V1    S    
C62   H8    S    
C45   C65   S    
C10   H20   S    
C67   O27   D    
C33   C63   S    
C28   H18   S    
C45   C49   S    
C1    O8    A    
C35   C43   S    
O20   V3    S    
C21   C23   A    
O9    V2    S    
O10   V1    S    
O15   C59   A    
C68   H26   S    
