data_str_m4_o4_o24_f0_acs.sym.119
_audit_creation_date              2012-12-11T15:50:25-0500
_audit_creation_method            fapswitch 2.2
_symmetry_space_group_name_H-M    P1
_symmetry_Int_Tables_number       1
_space_group_crystal_system       triclinic
_cell_length_a                    18.997287
_cell_length_b                    10.982205
_cell_length_c                    18.733306
_cell_angle_alpha                 90.306041
_cell_angle_beta                  90.554683
_cell_angle_gamma                 90.265641
_cell_volume                      3908.08712365

loop_
_atom_site_label
_atom_site_type_symbol
_atom_type_description
_atom_site_fract_x
_atom_site_fract_y
_atom_site_fract_z
_atom_type_partial_charge
C1    C     C_R   0.274715 0.036237 0.856360 0.539368
C2    C     C_R   0.728060 0.041410 0.146563 0.539487
C3    C     C_R   0.774716 0.536236 0.856361 0.538345
C4    C     C_R   0.228060 0.541410 0.146563 0.539478
C5    C     C_3   0.503956 0.716285 0.974850 -0.176717
C6    C     C_3   0.463981 0.758347 0.041611 -0.172961
C7    C     C_3   0.003959 0.216285 0.974850 -0.176605
C8    C     C_3   0.963982 0.258347 0.041610 -0.172933
C9    C     C_R   0.247225 0.575061 0.074717 -0.028560
C10   C     C_R   0.764371 0.554010 0.932860 -0.024387
C11   C     C_R   0.747224 0.075060 0.074717 -0.028547
C12   C     C_R   0.264371 0.054013 0.932859 -0.024298
C13   C     C_R   0.284293 0.491902 0.032025 0.116990
C14   C     C_R   0.709321 0.495696 0.968416 0.066659
C15   C     C_R   0.784292 0.991902 0.032026 0.116835
C16   C     C_R   0.209321 0.995698 0.968416 0.066586
C17   C     C_R   0.286347 0.505527 0.958192 -0.004272
C18   C     C_R   0.703966 0.503361 0.042368 -0.047969
C19   C     C_R   0.786348 0.005528 0.958193 -0.003797
C20   C     C_R   0.203967 0.003362 0.042368 -0.047947
C21   C     C_R   0.208536 0.676654 0.968325 -0.088052
C22   C     C_R   0.817781 0.597228 0.048707 -0.102704
C23   C     C_R   0.708534 0.176651 0.968324 -0.088344
C24   C     C_R   0.317780 0.097231 0.048706 -0.102694
C25   C     C_R   0.207884 0.665849 0.041541 -0.136418
C26   C     C_R   0.821208 0.597860 0.974569 -0.140778
C27   C     C_R   0.707881 0.165846 0.041541 -0.136410
C28   C     C_R   0.321207 0.097864 0.974568 -0.140760
C29   C     C_3   0.361186 0.463186 0.034212 0.088956
C30   C     C_3   0.631946 0.509495 0.957935 0.078992
C31   C     C_3   0.861186 0.963187 0.034215 0.088490
C32   C     C_3   0.131946 0.009495 0.957935 0.078810
C33   C     C_3   0.362085 0.473814 0.953559 -0.246860
C34   C     C_3   0.625610 0.509486 0.039149 -0.242949
C35   C     C_3   0.862087 0.973821 0.953562 -0.246000
C36   C     C_3   0.125610 0.009485 0.039149 -0.243026
C37   C     C_R   0.250067 0.600589 0.925570 0.032612
C38   C     C_R   0.754729 0.568323 0.082567 -0.009817
C39   C     C_R   0.750066 0.100589 0.925570 0.032621
C40   C     C_R   0.254729 0.068324 0.082566 -0.009854
C41   C     C_R   0.486541 0.825337 0.417614 0.000065
C42   C     C_R   0.449987 0.823456 0.562938 -0.004579
C43   C     C_R   0.986594 0.325308 0.417611 -0.000091
C44   C     C_R   0.950049 0.323470 0.562924 -0.005640
C45   C     C_R   0.445085 0.818336 0.863174 0.564224
C46   C     C_R   0.557445 0.818700 0.136976 0.560037
C47   C     C_R   0.945086 0.318336 0.863174 0.562090
C48   C     C_R   0.057446 0.318700 0.136976 0.560023
C49   C     C_R   0.477369 0.715835 0.454634 0.013215
C50   C     C_R   0.459839 0.715019 0.525577 0.003385
C51   C     C_R   0.977618 0.215823 0.454692 0.013967
C52   C     C_R   0.960101 0.215059 0.525638 0.007262
C53   C     C_R   0.446860 0.932376 0.523648 -0.095121
C54   C     C_R   0.463607 0.932891 0.450498 -0.094714
C55   C     C_R   0.946823 0.432314 0.523598 -0.096150
C56   C     C_R   0.963582 0.432827 0.450456 -0.095705
C57   C     C_3   0.527164 0.611966 0.463958 -0.257140
C58   C     C_3   0.508241 0.611456 0.541895 -0.255704
C59   C     C_3   0.027742 0.112457 0.464144 -0.258294
C60   C     C_3   0.008849 0.112093 0.542063 -0.254453
C61   C     C_R   0.240451 0.577407 0.427268 -0.027013
C62   C     C_R   0.757195 0.574443 0.572648 -0.022249
C63   C     C_R   0.740430 0.077190 0.427320 -0.025292
C64   C     C_R   0.257296 0.074741 0.572687 -0.021272
C65   C     C_R   0.180223 0.589977 0.468623 0.067139
C66   C     C_R   0.812914 0.624755 0.535807 0.047938
C67   C     C_R   0.680202 0.089803 0.468667 0.065066
C68   C     C_R   0.313073 0.125168 0.535869 0.024686
C69   C     C_R   0.183442 0.589713 0.541554 0.010219
C70   C     C_R   0.813491 0.627371 0.463095 0.018307
C71   C     C_R   0.683421 0.089521 0.541601 0.007438
C72   C     C_R   0.313484 0.127840 0.463120 0.014561
C73   C     C_R   0.308664 0.552633 0.534797 -0.176021
C74   C     C_R   0.702599 0.518342 0.459739 -0.184804
C75   C     C_R   0.808640 0.052246 0.534859 -0.180605
C76   C     C_R   0.202708 0.018447 0.459805 -0.183210
C77   C     C_R   0.304826 0.553520 0.460684 -0.186301
C78   C     C_R   0.702947 0.515588 0.534156 -0.179299
C79   C     C_R   0.804790 0.053145 0.460743 -0.188052
C80   C     C_R   0.203057 0.015837 0.534204 -0.175094
C81   C     C_3   0.126140 0.687911 0.465876 0.195093
C82   C     C_3   0.845565 0.746936 0.545602 0.156886
C83   C     C_3   0.626162 0.187814 0.465923 0.197877
C84   C     C_3   0.345317 0.247968 0.545358 0.164683
C85   C     C_3   0.126115 0.683605 0.546544 0.176986
C86   C     C_3   0.847664 0.751663 0.464944 0.137867
C87   C     C_3   0.626113 0.183457 0.546586 0.182625
C88   C     C_3   0.347146 0.252484 0.464787 0.174840
C89   C     C_R   0.260952 0.638808 0.852356 0.564742
C90   C     C_R   0.739918 0.632731 0.149462 0.549575
C91   C     C_R   0.760952 0.138809 0.852356 0.565314
C92   C     C_R   0.239918 0.132732 0.149462 0.549682
C93   C     C_R   0.248945 0.581161 0.575492 -0.027494
C94   C     C_R   0.755088 0.583662 0.424238 -0.015506
C95   C     C_R   0.748927 0.080948 0.575543 -0.023970
C96   C     C_R   0.255138 0.083791 0.424282 -0.015487
C97   C     C_R   0.271676 0.044896 0.645706 0.540068
C98   C     C_R   0.728140 0.046134 0.354020 0.540702
C99   C     C_R   0.771651 0.544848 0.645695 0.541325
C100  C     C_R   0.228150 0.546183 0.353996 0.540542
C101  C     C_R   0.437847 0.818683 0.639768 0.565731
C102  C     C_R   0.527881 0.822872 0.351926 0.556320
C103  C     C_R   0.937881 0.318694 0.639760 0.562628
C104  C     C_R   0.027882 0.322871 0.351912 0.556408
C105  C     C_R   0.259773 0.635510 0.644391 0.546949
C106  C     C_R   0.740665 0.635827 0.355563 0.542819
C107  C     C_R   0.759772 0.135481 0.644399 0.548455
C108  C     C_R   0.240674 0.135826 0.355567 0.541603
C109  C     C_3   0.500493 0.944542 0.025267 0.275281
C110  C     C_3   0.539518 0.903220 0.957979 0.292422
C111  C     C_3   0.000495 0.444542 0.025267 0.275335
C112  C     C_3   0.039521 0.403220 0.957979 0.292293
C113  C     C_3   0.435011 0.870015 0.001522 -0.173378
C114  C     C_3   0.569299 0.792508 0.997781 -0.167675
C115  C     C_3   0.935013 0.370015 0.001522 -0.173471
C116  C     C_3   0.069302 0.292508 0.997781 -0.167782
C117  C     C_3   0.475237 0.827645 0.935235 0.027644
C118  C     C_3   0.529009 0.832235 0.064415 0.032185
C119  C     C_3   0.975240 0.327645 0.935235 0.027521
C120  C     C_3   0.029011 0.332234 0.064415 0.032224
Cr1   Cr    Cr6+3 0.229640 0.835880 0.747370 1.057876
Cr2   Cr    Cr6+3 0.770360 0.835880 0.252630 1.037086
Cr3   Cr    Cr6+3 0.729640 0.335880 0.747370 1.056115
Cr4   Cr    Cr6+3 0.270360 0.335880 0.252630 1.036670
Cr5   Cr    Cr6+3 0.387390 0.989720 0.750850 1.067182
Cr6   Cr    Cr6+3 0.612610 0.989720 0.249150 1.066192
Cr7   Cr    Cr6+3 0.887390 0.489720 0.750850 1.090399
Cr8   Cr    Cr6+3 0.112610 0.489720 0.249150 1.066145
Cr9   Cr    Cr6+3 0.385770 0.677220 0.749340 1.010971
Cr10  Cr    Cr6+3 0.614230 0.677220 0.250660 1.006452
Cr11  Cr    Cr6+3 0.885770 0.177220 0.749340 1.014390
Cr12  Cr    Cr6+3 0.114230 0.177220 0.250660 1.006446
H1    H     H_    0.378360 0.891295 0.002335 0.116407
H2    H     H_    0.626090 0.769334 0.997548 0.115577
H3    H     H_    0.878362 0.391294 0.002335 0.116201
H4    H     H_    0.126092 0.269333 0.997548 0.115457
H5    H     H_    0.435987 0.017177 0.550317 0.235612
H6    H     H_    0.462694 0.017066 0.421202 0.215297
H7    H     H_    0.935891 0.517057 0.550247 0.240620
H8    H     H_    0.962643 0.516972 0.421132 0.216272
H9    H     H_    0.082795 0.141895 0.455114 0.163594
H10   H     H_    0.980991 0.027824 0.558263 0.134326
H11   H     H_    0.582309 0.640936 0.454971 0.163430
H12   H     H_    0.480194 0.527176 0.557960 0.164477
H13   H     H_    0.509581 0.528695 0.434691 0.160225
H14   H     H_    0.553088 0.638233 0.577340 0.163396
H15   H     H_    0.010417 0.028908 0.435007 0.156052
H16   H     H_    0.053607 0.139405 0.577482 0.164578
H17   H     H_    0.359349 0.539419 0.559952 0.156284
H18   H     H_    0.658011 0.480882 0.430656 0.128645
H19   H     H_    0.859375 0.039224 0.559979 0.143599
H20   H     H_    0.158129 0.980902 0.430745 0.127321
H21   H     H_    0.351473 0.534518 0.429784 0.145556
H22   H     H_    0.660290 0.471010 0.561474 0.133558
H23   H     H_    0.851443 0.034194 0.429842 0.143713
H24   H     H_    0.160414 0.971225 0.561528 0.130733
H25   H     H_    0.146645 0.774664 0.443698 0.040971
H26   H     H_    0.809589 0.812917 0.571646 0.078324
H27   H     H_    0.646720 0.274553 0.443773 0.041008
H28   H     H_    0.309111 0.314718 0.570517 0.063796
H29   H     H_    0.140569 0.772436 0.570731 0.103460
H30   H     H_    0.814190 0.824172 0.442283 0.121424
H31   H     H_    0.640571 0.272272 0.570782 0.105196
H32   H     H_    0.313281 0.324517 0.442173 0.115285
H33   H     H_    0.503444 0.621884 0.954278 0.124823
H34   H     H_    0.432762 0.707433 0.080883 0.134687
H35   H     H_    0.003447 0.121884 0.954277 0.124983
H36   H     H_    0.932763 0.207432 0.080882 0.134672
H37   H     H_    0.178919 0.749404 0.945460 0.241476
H38   H     H_    0.862121 0.630917 0.079333 0.236548
H39   H     H_    0.678915 0.249399 0.945460 0.241457
H40   H     H_    0.362120 0.130920 0.079333 0.236554
H41   H     H_    0.175156 0.727227 0.072049 0.172416
H42   H     H_    0.869301 0.630462 0.950485 0.195251
H43   H     H_    0.675152 0.227222 0.072048 0.172443
H44   H     H_    0.369300 0.130466 0.950484 0.195105
H45   H     H_    0.392934 0.530925 0.063930 0.108145
H46   H     H_    0.619878 0.595139 0.929429 0.139571
H47   H     H_    0.892932 0.030924 0.063936 0.108155
H48   H     H_    0.119877 0.095138 0.929429 0.139437
H49   H     H_    0.394297 0.550799 0.934246 0.118935
H50   H     H_    0.604606 0.593847 0.062518 0.142615
H51   H     H_    0.894297 0.050811 0.934253 0.118924
H52   H     H_    0.104605 0.093846 0.062518 0.142637
H53   H     H_    0.370207 0.385948 0.925096 0.172243
H54   H     H_    0.601040 0.425273 0.060485 0.172437
H55   H     H_    0.870213 0.885958 0.925096 0.173753
H56   H     H_    0.101041 0.925271 0.060485 0.172425
O1    O     O_R   0.214300 0.709080 0.827500 -0.465144
O2    O     O_R   0.785700 0.709080 0.172500 -0.474321
O3    O     O_R   0.714300 0.209080 0.827500 -0.465756
O4    O     O_R   0.285700 0.209080 0.172500 -0.474224
O5    O     O_R   0.445900 0.919370 0.676500 -0.473781
O6    O     O_R   0.554100 0.919370 0.323500 -0.480276
O7    O     O_R   0.945900 0.419370 0.676500 -0.469705
O8    O     O_R   0.054100 0.419370 0.323500 -0.480202
O9    O     O_R   0.456660 0.717710 0.669820 -0.508262
O10   O     O_R   0.543340 0.717710 0.330180 -0.522290
O11   O     O_R   0.956660 0.217710 0.669820 -0.509142
O12   O     O_R   0.043340 0.217710 0.330180 -0.522171
O13   O     O_R   0.320590 0.625770 0.672930 -0.522532
O14   O     O_R   0.679410 0.625770 0.327070 -0.507996
O15   O     O_R   0.820590 0.125770 0.672930 -0.520264
O16   O     O_R   0.179410 0.125770 0.327070 -0.507642
O17   O     O_3   0.334270 0.834280 0.749190 -0.311724
O18   O     O_3   0.665730 0.834280 0.250810 -0.277845
O19   O     O_3   0.834270 0.334280 0.749190 -0.315918
O20   O     O_3   0.165730 0.334280 0.250810 -0.277747
O21   O     O_R   0.236190 0.958390 0.823150 -0.470445
O22   O     O_R   0.763810 0.958390 0.176850 -0.478411
O23   O     O_R   0.736190 0.458390 0.823150 -0.471623
O24   O     O_R   0.263810 0.458390 0.176850 -0.478405
O25   O     O_R   0.332090 0.075280 0.831290 -0.529208
O26   O     O_R   0.667910 0.075280 0.168710 -0.498891
O27   O     O_R   0.832090 0.575280 0.831290 -0.526347
O28   O     O_R   0.167910 0.575280 0.168710 -0.498904
O29   O     O_R   0.446280 0.918040 0.826620 -0.442183
O30   O     O_R   0.553720 0.918040 0.173380 -0.449331
O31   O     O_R   0.946280 0.418040 0.826620 -0.442659
O32   O     O_R   0.053720 0.418040 0.173380 -0.449380
O33   O     O_R   0.457080 0.716270 0.831760 -0.512606
O34   O     O_R   0.542920 0.716270 0.168240 -0.534456
O35   O     O_R   0.957080 0.216270 0.831760 -0.512674
O36   O     O_R   0.042920 0.216270 0.168240 -0.534471
O37   O     O_R   0.320980 0.624440 0.823040 -0.530014
O38   O     O_R   0.679020 0.624440 0.176960 -0.523202
O39   O     O_R   0.820980 0.124440 0.823040 -0.528529
O40   O     O_R   0.179020 0.124440 0.176960 -0.523142
O41   O     O_R   0.213880 0.710510 0.665560 -0.532552
O42   O     O_R   0.786120 0.710510 0.334440 -0.540501
O43   O     O_R   0.713880 0.210510 0.665560 -0.533879
O44   O     O_R   0.286120 0.210510 0.334440 -0.542472
O45   O     O_R   0.235800 0.959720 0.673040 -0.508685
O46   O     O_R   0.764200 0.959720 0.326960 -0.515737
O47   O     O_R   0.735800 0.459720 0.673040 -0.513739
O48   O     O_R   0.264200 0.459720 0.326960 -0.516250
O49   O     O_R   0.331670 0.076720 0.669350 -0.520304
O50   O     O_R   0.668330 0.076720 0.330650 -0.516047
O51   O     O_R   0.831670 0.576720 0.669350 -0.484070
O52   O     O_R   0.168330 0.576720 0.330650 -0.515652
O53   O     O_3   0.062974 0.647339 0.435029 -0.605164
H57   H     H_    0.058382 0.689079 0.388395 0.326618
O54   O     O_3   0.912244 0.739564 0.577867 -0.606120
H58   H     H_    0.929219 0.824738 0.582790 0.328570
O55   O     O_3   0.562976 0.147381 0.435052 -0.602708
H59   H     H_    0.558395 0.189210 0.388447 0.326597
O56   O     O_3   0.412662 0.242632 0.576576 -0.604092
H60   H     H_    0.407497 0.270301 0.626726 0.322678
O57   O     O_3   0.064119 0.633454 0.574053 -0.601516
H61   H     H_    0.070419 0.633323 0.626682 0.339401
O58   O     O_3   0.916415 0.749330 0.438400 -0.651045
H62   H     H_    0.912189 0.761840 0.386164 0.325713
O59   O     O_3   0.564096 0.133343 0.574071 -0.597721
H63   H     H_    0.570378 0.133190 0.626702 0.335990
O60   O     O_3   0.415825 0.250904 0.437985 -0.628382
H64   H     H_    0.411442 0.264426 0.385851 0.319998
Cl1   Cl    Cl    0.504252 0.097341 0.057429 -0.616993
Cl2   Cl    Cl    0.587576 0.997466 0.898729 -0.543207
Cl3   Cl    Cl    0.004253 0.597341 0.057429 -0.616843
Cl4   Cl    Cl    0.087579 0.497466 0.898729 -0.542757
O61   O     O_3   0.873329 0.844843 0.057286 -0.680134
H65   H     H_    0.925125 0.834018 0.056012 0.352440
O62   O     O_3   0.100575 0.907383 0.925773 -0.677186
H66   H     H_    0.049179 0.922778 0.925751 0.332185
O63   O     O_3   0.373330 0.344844 0.057287 -0.680163
H67   H     H_    0.425125 0.334017 0.056009 0.352398
O64   O     O_3   0.600574 0.407383 0.925774 -0.677775
H68   H     H_    0.549181 0.422798 0.925727 0.331672

loop_
_geom_bond_atom_site_label_1
_geom_bond_atom_site_label_2
_ccdc_geom_bond_type
Cr5   O5    S    
C83   C87   S    
C55   C56   A    
C6    H34   S    
C67   C83   S    
O61   H65   S    
C46   O30   A    
C36   H52   S    
C57   H13   S    
C5    C114  S    
C23   C39   A    
C105  O41   A    
C29   O63   S    
Cr2   O18   S    
C87   H31   S    
C111  C112  S    
C73   C93   A    
C43   C56   A    
Cr11  O19   S    
C115  H3    S    
Cr4   O44   S    
C84   H28   S    
Cr7   O31   S    
C7    C8    S    
C48   C120  S    
C63   C79   A    
C53   C54   A    
Cr7   O51   S    
O57   H61   S    
C55   H7    S    
C21   C25   A    
C12   C28   A    
C84   O56   S    
C53   H5    S    
C32   C36   S    
C13   C29   S    
C16   C20   A    
C114  C118  S    
C34   H50   S    
C110  Cl2   S    
C63   C98   S    
C69   C93   A    
C102  O10   A    
C42   C53   A    
Cr1   O1    S    
O59   H63   S    
C20   C40   A    
C72   C96   A    
C101  O9    A    
C112  C116  S    
C71   C95   A    
C76   H20   S    
C35   H51   S    
O54   H58   S    
C22   C38   A    
C3    O27   A    
C29   C33   S    
Cr8   O32   S    
Cr12  O12   S    
C45   O29   A    
C41   C102  S    
C46   C118  S    
Cr3   O19   S    
O53   H57   S    
C21   H37   S    
C111  Cl3   S    
C34   H54   S    
C90   O38   A    
Cr7   O19   S    
C85   H29   S    
C9    C13   A    
C83   H27   S    
C52   C60   S    
C8    C115  S    
C93   C105  S    
C64   C80   A    
C11   C15   A    
C41   C49   A    
C94   C106  S    
C12   C16   A    
C75   H19   S    
C89   O1    A    
Cr3   O23   S    
Cr5   O25   S    
C76   C80   A    
Cr2   O22   S    
C80   H24   S    
C86   H30   S    
C23   C27   A    
C66   C70   A    
Cr11  O15   S    
O63   H67   S    
C110  C114  S    
C67   C71   A    
C48   O32   A    
Cr10  O14   S    
C109  C113  S    
C54   H6    S    
C60   H10   S    
C10   C26   A    
C47   C119  S    
C96   C108  S    
C43   C51   A    
C59   C60   S    
C113  H1    S    
O55   H59   S    
Cr4   O20   S    
C109  Cl1   S    
C104  O12   A    
C112  C119  S    
Cr6   O26   S    
C1    C12   S    
C103  O7    A    
C14   C30   S    
C2    C11   S    
C102  O6    A    
C110  C117  S    
C39   C91   S    
C72   C88   S    
C44   C103  S    
C101  O5    A    
C109  C118  S    
Cr2   O2    S    
C88   O60   S    
C3    O23   A    
C27   H43   S    
Cr2   O42   S    
C63   C67   A    
C2    O22   A    
C8    H36   S    
C107  O43   A    
C30   C34   S    
Cr1   O21   S    
C75   C95   A    
C51   C52   A    
C68   C84   S    
C7    C119  S    
O62   H66   S    
Cr10  O34   S    
C81   H25   S    
C22   C26   A    
Cr1   O41   S    
O58   H62   S    
C10   C14   A    
C61   C77   A    
C62   C66   A    
C28   H44   S    
C103  O11   A    
C48   O36   A    
C82   C86   S    
C1    O21   A    
C116  C120  S    
C115  C119  S    
C5    C117  S    
C111  C120  S    
C36   H56   S    
Cr4   O48   S    
C7    C116  S    
C32   O62   S    
C15   C19   A    
C6    C113  S    
C107  O15   A    
Cr10  O18   S    
Cr1   O45   S    
Cr7   O7    S    
C106  O14   A    
Cr9   O17   S    
Cr6   O6    S    
C25   H41   S    
C105  O13   A    
C97   O49   A    
C98   O46   A    
C11   C27   A    
C68   C72   A    
Cr9   O13   S    
C97   O45   A    
C83   O55   S    
C90   O2    A    
C30   H46   S    
C50   C58   S    
Cr3   O43   S    
C17   C33   S    
Cr11  O39   S    
C17   C37   A    
C112  Cl4   S    
C40   C92   S    
C15   C31   S    
C18   C34   S    
Cr9   O37   S    
C92   O40   A    
C22   H38   S    
Cr12  O16   S    
C95   C107  S    
Cr8   O28   S    
C71   C87   S    
C111  C115  S    
Cr9   O33   S    
C82   H26   S    
Cr2   O46   S    
C42   C50   A    
C99   O47   A    
Cr12  O20   S    
C5    H33   S    
C33   H49   S    
C59   H15   S    
Cr6   O30   S    
Cr3   O47   S    
C100  O48   A    
C61   C100  S    
C51   C59   S    
C32   H48   S    
Cr3   O3    S    
O60   H64   S    
Cr6   O50   S    
C42   C101  S    
C64   C68   A    
C16   C32   S    
Cr4   O4    S    
C77   H21   S    
C69   C85   S    
C8    C120  S    
C24   C28   A    
C108  O44   A    
C113  C117  S    
C45   C117  S    
C86   O58   S    
C65   C69   A    
C47   O35   A    
C64   C97   S    
C73   C77   A    
C91   O39   A    
Cr12  O36   S    
C14   C18   A    
C62   C78   A    
C78   H22   S    
Cr8   O8    S    
C89   O37   A    
Cr5   O17   S    
C46   O34   A    
C44   C52   A    
C9    C25   A    
C49   C57   S    
Cr11  O35   S    
O64   H68   S    
C58   H14   S    
C106  O42   A    
C2    O26   A    
Cr11  O11   S    
C116  H4    S    
C60   H16   S    
C13   C17   A    
Cr8   O52   S    
Cr4   O24   S    
C38   C90   S    
C85   O57   S    
C4    O24   A    
C37   C89   S    
C31   O61   S    
C45   O33   A    
Cr12  O40   S    
C18   C38   A    
C99   O51   A    
C108  O16   A    
C3    C10   S    
C88   H32   S    
C109  C110  S    
C76   C96   A    
C66   C82   S    
C1    O25   A    
C43   C104  S    
C44   C55   A    
Cr7   O27   S    
C57   C58   S    
C5    C6    S    
C84   C88   S    
C47   O31   A    
Cr5   O49   S    
Cr6   O18   S    
C56   H8    S    
C19   C35   S    
C114  H2    S    
C6    C118  S    
C82   O54   S    
C100  O52   A    
C31   C35   S    
C74   C94   A    
C61   C65   A    
C91   O3    A    
C24   H40   S    
C59   H9    S    
C81   C85   S    
C41   C54   A    
C24   C40   A    
O56   H60   S    
Cr5   O29   S    
C79   H23   S    
C62   C99   S    
C20   C36   S    
C58   H12   S    
Cr1   O17   S    
C87   O59   S    
C21   C37   A    
C7    H35   S    
Cr10  O38   S    
C19   C39   A    
C49   C50   A    
C73   H17   S    
C31   H47   S    
C4    O28   A    
C70   C94   A    
C81   O53   S    
C26   H42   S    
C65   C81   S    
C74   H18   S    
C98   O50   A    
C33   H53   S    
C30   O64   S    
Cr8   O20   S    
C4    C9    S    
Cr10  O10   S    
C75   C79   A    
C29   H45   S    
Cr9   O9    S    
C35   H55   S    
C92   O4    A    
C57   H11   S    
C104  O8    A    
C74   C78   A    
C23   H39   S    
C70   C86   S    
