data_str_m12_o9_o11_f0_bcu.sym.23
_audit_creation_date              2012-12-11T17:39:31-0500
_audit_creation_method            fapswitch 2.2
_symmetry_space_group_name_H-M    P1
_symmetry_Int_Tables_number       1
_space_group_crystal_system       triclinic
_cell_length_a                    14.957263
_cell_length_b                    15.116296
_cell_length_c                    14.863795
_cell_angle_alpha                 108.944366
_cell_angle_beta                  109.345048
_cell_angle_gamma                 110.47474
_cell_volume                      2575.43077976

loop_
_atom_site_label
_atom_site_type_symbol
_atom_type_description
_atom_site_fract_x
_atom_site_fract_y
_atom_site_fract_z
_atom_type_partial_charge
C1    C     C_R   0.909277 0.912219 0.714355 -0.104608
C2    C     C_R   0.908014 0.685008 0.444887 -0.142588
C3    C     C_R   0.700348 0.788276 0.197062 -0.133501
C4    C     C_R   0.092873 0.297440 0.494518 -0.150631
C5    C     C_R   0.306013 0.012643 0.603457 -0.132300
C6    C     C_R   0.640868 0.691193 0.191370 0.146432
C7    C     C_R   0.373669 0.079487 0.579998 0.067491
C8    C     C_R   0.001758 0.677350 0.465576 0.044664
C9    C     C_R   0.002138 0.942311 0.178222 0.076150
C10   C     C_R   0.462549 0.704766 0.474120 -0.100021
C11   C     C_R   0.500988 0.811100 0.492421 -0.143923
C12   C     C_R   0.002707 0.300551 0.436079 0.064801
C13   C     C_R   0.557086 0.899432 0.599807 0.091283
C14   C     C_R   0.573721 0.879330 0.688169 -0.144138
C15   C     C_R   0.533110 0.772743 0.669131 -0.132925
C16   C     C_R   0.246064 0.220678 0.813020 -0.132234
C17   C     C_R   0.477400 0.685596 0.562323 -0.106638
C18   C     C_R   0.522666 0.047645 0.653771 -0.210459
C19   C     C_R   0.490094 0.111318 0.617023 0.045486
C20   C     C_R   0.554969 0.174621 0.586009 0.032148
C21   C     C_R   0.634192 0.153297 0.571036 -0.231324
C22   C     C_R   0.640562 0.064336 0.575606 0.065663
C23   C     C_R   0.270371 0.321953 0.823118 0.127492
C24   C     C_R   0.582539 0.009801 0.617201 0.030998
C25   C     C_R   0.533404 0.260766 0.468054 -0.183243
C26   C     C_R   0.517812 0.338886 0.446116 -0.083221
C27   C     C_R   0.508115 0.415419 0.519180 -0.097382
C28   C     C_R   0.737853 0.052408 0.463321 -0.134114
C29   C     C_R   0.514084 0.414151 0.614535 -0.120500
C30   C     C_R   0.531101 0.336969 0.637817 -0.139785
C31   C     C_R   0.540056 0.258913 0.564128 0.110854
C32   C     C_R   0.811432 0.125774 0.079425 0.534708
C33   C     C_R   0.886933 0.222556 0.180101 -0.237851
C34   C     C_R   0.705332 0.029174 0.534744 0.049822
C35   C     C_R   0.850613 0.286138 0.232228 0.044978
C36   C     C_R   0.737721 0.251743 0.181290 -0.149861
C37   C     C_R   0.662523 0.154706 0.080917 -0.171746
C38   C     C_R   0.699215 0.091596 0.030377 -0.211619
C39   C     C_R   0.930684 0.484260 0.352387 -0.227380
C40   C     C_R   0.246622 0.312072 0.720915 -0.126656
C41   C     C_R   0.007555 0.581702 0.452193 0.062679
C42   C     C_R   0.088326 0.586474 0.539757 0.021806
C43   C     C_R   0.089784 0.493205 0.525260 -0.242661
C44   C     C_R   0.009544 0.394567 0.428793 0.058812
C45   C     C_R   0.701725 0.695660 0.287022 -0.128652
C46   C     C_R   0.930778 0.388803 0.339161 0.053647
C47   C     C_R   0.280925 0.731698 0.690676 -0.188527
C48   C     C_R   0.355558 0.823617 0.795048 -0.119438
C49   C     C_R   0.316981 0.867101 0.861119 -0.098352
C50   C     C_R   0.203645 0.818311 0.823090 -0.121343
C51   C     C_R   0.128628 0.726648 0.718522 -0.118217
C52   C     C_R   0.743943 0.964485 0.559282 -0.115234
C53   C     C_R   0.166878 0.683498 0.651134 0.111891
C54   C     C_2   0.361057 0.519245 0.933625 -0.126863
C55   C     C_2   0.318499 0.421024 0.925550 -0.181173
C56   C     C_R   0.307391 0.100953 0.510409 -0.155580
C57   C     C_2   0.458826 0.615020 0.035436 -0.138342
C58   C     C_2   0.529659 0.603062 0.107077 -0.187532
C59   C     C_R   0.410963 0.173402 0.119872 -0.215366
C60   C     C_R   0.311278 0.077882 0.073358 -0.269059
C61   C     C_R   0.211540 0.077544 0.038687 0.126137
C62   C     C_R   0.213605 0.175224 0.054692 -0.178722
C63   C     C_R   0.313825 0.271129 0.102733 -0.261865
C64   C     C_R   0.909655 0.209582 0.407016 -0.119685
C65   C     C_R   0.412395 0.270015 0.134257 0.534725
C66   C     C_R   0.106807 0.954267 0.083187 -0.233865
C67   C     C_R   0.092790 0.780478 0.528649 -0.110034
C68   C     C_R   0.006599 0.897783 0.076677 0.061414
C69   C     C_R   0.910517 0.828367 0.972389 0.070863
C70   C     C_R   0.912838 0.841666 0.884042 -0.166222
C71   C     C_R   0.008545 0.923976 0.900368 0.075580
C72   C     C_R   0.108211 0.979645 0.002167 0.035222
C73   C     C_R   0.815465 0.671623 0.995978 -0.163538
C74   C     C_R   0.719686 0.588657 0.977233 -0.080684
C75   C     C_R   0.617211 0.575743 0.917712 -0.080772
C76   C     C_R   0.091807 0.000644 0.801157 -0.159037
C77   C     C_R   0.610453 0.646890 0.878428 -0.164111
C78   C     C_R   0.909971 0.932716 0.187665 -0.055999
C79   C     C_R   0.705862 0.728936 0.895620 -0.137356
C80   C     C_R   0.809119 0.741736 0.954179 0.094678
C81   C     C_R   0.002915 0.949186 0.811596 0.066922
C82   C     C_R   0.093497 0.021835 0.281434 -0.119229
Cl1   Cl    Cl    0.857674 0.048226 0.013832 -0.752223
Cl2   Cl    Cl    0.538350 0.390104 0.195279 -0.812027
H1    H     H_    0.825113 0.854442 0.686186 0.097414
H2    H     H_    0.418638 0.637022 0.391261 0.118159
H3    H     H_    0.484673 0.824437 0.422815 0.117762
H4    H     H_    0.177761 0.350170 0.519610 0.094114
H5    H     H_    0.614699 0.945952 0.771051 0.134963
H6    H     H_    0.541475 0.757338 0.736643 0.104264
H7    H     H_    0.481436 0.005961 0.687357 0.120191
H8    H     H_    0.685174 0.201338 0.548022 0.129353
H9    H     H_    0.538633 0.200775 0.409217 0.115405
H10   H     H_    0.512605 0.339687 0.372111 0.157992
H11   H     H_    0.495686 0.475352 0.501412 0.108166
H12   H     H_    0.332726 0.157298 0.482136 0.120627
H13   H     H_    0.504783 0.472575 0.669871 0.116297
H14   H     H_    0.535759 0.337048 0.712141 0.117965
H15   H     H_    0.640453 0.016445 0.953050 0.125301
H16   H     H_    0.255551 0.200634 0.877602 0.123034
H17   H     H_    0.973788 0.248557 0.217246 0.154109
H18   H     H_    0.707793 0.299264 0.219874 0.164484
H19   H     H_    0.575688 0.128273 0.042041 0.136075
H20   H     H_    0.871105 0.483070 0.285334 0.148565
H21   H     H_    0.148447 0.496553 0.594993 0.130506
H22   H     H_    0.311539 0.698767 0.639893 0.130361
H23   H     H_    0.178483 0.804280 0.558795 0.116388
H24   H     H_    0.443230 0.861075 0.824674 0.105459
H25   H     H_    0.375131 0.938273 0.941851 0.101680
H26   H     H_    0.173691 0.851237 0.874457 0.112213
H27   H     H_    0.721437 0.100215 0.426864 0.094251
H28   H     H_    0.041032 0.689741 0.689762 0.115281
H29   H     H_    0.338633 0.527756 0.860974 0.120411
H30   H     H_    0.335049 0.413584 0.998543 0.143908
H31   H     H_    0.481396 0.694161 0.041762 0.130169
H32   H     H_    0.510398 0.524293 0.099970 0.192016
H33   H     H_    0.487259 0.172816 0.147201 0.138962
H34   H     H_    0.824864 0.882442 0.123491 0.126002
H35   H     H_    0.311928 0.004721 0.066845 0.133505
H36   H     H_    0.138106 0.177518 0.032556 0.170299
H37   H     H_    0.314869 0.346413 0.116941 0.149287
H38   H     H_    0.255140 0.374661 0.698905 0.089069
H39   H     H_    0.183666 0.997416 0.159533 0.128691
H40   H     H_    0.838709 0.790366 0.804122 0.112221
H41   H     H_    0.894324 0.680369 0.041821 0.114583
H42   H     H_    0.724852 0.534158 0.008569 0.121978
H43   H     H_    0.543103 0.510662 0.902196 0.123790
H44   H     H_    0.531106 0.637684 0.833679 0.102901
H45   H     H_    0.179259 0.051870 0.306682 0.098602
H46   H     H_    0.700085 0.783906 0.865337 0.146132
H47   H     H_    0.739228 0.935637 0.615746 0.124101
H48   H     H_    0.824707 0.182299 0.353440 0.102386
H49   H     H_    0.174966 0.019110 0.847124 0.117674
H50   H     H_    0.672530 0.640218 0.315496 0.152255
H51   H     H_    0.823361 0.619301 0.401111 0.138750
H52   H     H_    0.670887 0.817065 0.142464 0.097933
H53   H     H_    0.330635 0.992036 0.666981 0.097076
H54   H     H_    0.443708 0.603188 0.547844 0.095805
N1    N     N_R   0.941940 0.944580 0.650780 -0.044318
N2    N     N_R   0.204460 0.150250 0.707090 -0.043823
N3    N     N_R   0.794270 0.003240 0.446420 -0.040969
N4    N     N_R   0.204920 0.207570 0.650770 -0.043315
N5    N     N_R   0.793810 0.945920 0.502740 -0.044875
N6    N     N_R   0.943620 0.152590 0.446420 -0.039987
N7    N     N_R   0.055110 0.000900 0.707100 -0.038951
N8    N     N_R   0.795080 0.792430 0.349230 -0.049218
N9    N     N_R   0.206190 0.054080 0.497260 -0.042848
N10   N     N_R   0.056380 0.847410 0.553580 -0.043089
N11   N     N_R   0.944890 0.999100 0.292900 -0.050434
N12   N     N_R   0.058060 0.055420 0.349220 -0.044031
N13   N     N_R   0.943200 0.791100 0.497260 -0.043869
N14   N     N_R   0.795540 0.849750 0.292910 -0.050509
N15   N     N_R   0.205730 0.996760 0.553580 -0.041650
N16   N     N_R   0.056800 0.208900 0.502740 -0.037127
Ni1   Ni    Ni4+2 0.869690 0.869690 0.500000 0.216414
Ni2   Ni    Ni4+2 0.130310 0.130310 0.500000 0.214102
Ni3   Ni    Ni4+2 0.129250 0.998840 0.629170 0.216807
Ni4   Ni    Ni4+2 0.870750 0.001160 0.370830 0.215806

loop_
_geom_bond_atom_site_label_1
_geom_bond_atom_site_label_2
_ccdc_geom_bond_type
C25   C31   A    
C4    N16   A    
C63   C65   A    
C25   H9    S    
C51   H28   S    
C6    C45   A    
C40   N4    A    
C27   C29   A    
C41   C42   A    
C6    C58   S    
C66   C68   A    
C35   C36   A    
N10   N13   A    
C3    C6    A    
C67   H23   S    
C39   H20   S    
C57   H31   S    
C74   H42   S    
C9    C78   A    
C45   H50   S    
C37   C38   A    
C18   C24   A    
C18   H7    S    
C36   C37   A    
C78   H34   S    
N2    N4    A    
C18   C19   A    
N3    N5    A    
C42   C53   S    
C30   C31   A    
C12   C64   A    
C5    N15   A    
C10   C17   A    
C1    C81   A    
C23   C40   A    
C54   H29   S    
C50   H26   S    
C60   H35   S    
C36   H18   S    
C3    H52   S    
C43   H21   S    
C34   C52   A    
C27   H11   S    
C66   C72   A    
N8    Ni1   S    
C64   H48   S    
C11   H3    S    
C68   C69   A    
N15   Ni3   S    
C17   H54   S    
C32   C38   A    
C4    C12   A    
C29   C30   A    
N11   Ni4   S    
N16   Ni2   S    
C61   C62   A    
C1    N1    A    
C9    C82   A    
C47   C53   A    
C28   C34   A    
C59   C60   A    
C59   H33   S    
N12   Ni2   S    
C13   C14   A    
C58   H32   S    
C16   N2    A    
C7    C56   A    
C63   H37   S    
C44   C46   A    
C77   C79   A    
C28   H27   S    
C1    H1    S    
C22   C34   S    
N14   Ni4   S    
C52   N5    A    
C74   C75   A    
C45   N8    A    
C8    C41   S    
C39   C41   A    
C5    C7    A    
C16   H16   S    
C65   Cl2   S    
C64   N6    A    
C25   C26   A    
C79   H46   S    
C13   C24   S    
C60   C61   A    
C51   C53   A    
C43   C44   A    
C14   H5    S    
C62   C63   A    
N2    Ni3   S    
N7    Ni3   S    
N5    Ni1   S    
C47   C48   A    
N1    Ni1   S    
C21   H8    S    
C47   H22   S    
C50   C51   A    
C3    N14   A    
C56   H12   S    
C75   H43   S    
C82   H45   S    
C5    H53   S    
N9    Ni2   S    
C75   C77   A    
C82   N12   A    
C77   H44   S    
C39   C46   A    
N8    N14   A    
C61   C72   S    
C48   C49   A    
C76   N7    A    
C16   C23   A    
N13   Ni1   S    
C26   H10   S    
C26   C27   A    
C33   H17   S    
C42   C43   A    
N6    Ni4   S    
C73   C74   A    
C70   C71   A    
C49   H25   S    
C2    N13   A    
C15   C17   A    
C32   Cl1   S    
C54   C55   D    
N1    N7    A    
C14   C15   A    
C52   H47   S    
C62   H36   S    
C2    C8    A    
C38   H15   S    
C76   C81   A    
C37   H19   S    
C76   H49   S    
C23   C55   S    
C4    H4    S    
C55   H30   S    
C40   H38   S    
C30   H14   S    
C7    C19   S    
C2    H51   S    
C29   H13   S    
C32   C33   A    
C19   C20   A    
C9    C68   S    
C71   C72   A    
C12   C44   S    
N11   N12   A    
C59   C65   A    
C15   H6    S    
C11   C13   A    
C10   H2    S    
C57   C58   D    
C48   H24   S    
C56   N9    A    
C73   H41   S    
C33   C35   A    
C73   C80   A    
C22   C24   A    
N10   Ni3   S    
N6    N16   A    
C69   C70   A    
N9    N15   A    
C10   C11   A    
C79   C80   A    
C70   H40   S    
N3    Ni4   S    
C20   C21   A    
C8    C67   A    
C49   C50   A    
C67   N10   A    
C66   H39   S    
C69   C80   S    
C28   N3    A    
N4    Ni2   S    
C21   C22   A    
C35   C46   S    
C54   C57   S    
C78   N11   A    
C71   C81   S    
C20   C31   S    
