data_str_m4_o22_o24_f0_acs.sym.56
_audit_creation_date              2012-12-11T15:08:52-0500
_audit_creation_method            fapswitch 2.2
_symmetry_space_group_name_H-M    P1
_symmetry_Int_Tables_number       1
_space_group_crystal_system       triclinic
_cell_length_a                    19.404286
_cell_length_b                    11.264111
_cell_length_c                    18.708284
_cell_angle_alpha                 90.00002
_cell_angle_beta                  90.351607
_cell_angle_gamma                 90.0
_cell_volume                      4089.03064173

loop_
_atom_site_label
_atom_site_type_symbol
_atom_type_description
_atom_site_fract_x
_atom_site_fract_y
_atom_site_fract_z
_atom_type_partial_charge
C1    C     C_R   0.272524 0.043591 0.854124 0.536027
C2    C     C_3   0.687701 0.529269 0.955643 -0.258700
C3    C     C_R   0.226952 0.543384 0.354261 0.537404
C4    C     C_R   0.468634 0.823153 0.645302 0.547810
C5    C     C_R   0.531365 0.823153 0.354698 0.547810
C6    C     C_R   0.968635 0.323153 0.645302 0.547810
C7    C     C_R   0.031365 0.323153 0.354698 0.547810
C8    C     C_R   0.260913 0.640096 0.643575 0.544022
C9    C     C_R   0.739087 0.640096 0.356425 0.544022
C10   C     C_R   0.760913 0.140096 0.643575 0.544022
C11   C     C_R   0.239087 0.140096 0.356425 0.544022
C12   C     C_3   0.480465 0.914983 0.035890 -0.092093
C13   C     C_3   0.812299 0.029270 0.044357 -0.258700
C14   C     C_3   0.519536 0.914983 0.964110 -0.092094
C15   C     C_3   0.980465 0.414983 0.035890 -0.092094
C16   C     C_3   0.019536 0.414982 0.964110 -0.092093
C17   C     C_3   0.431487 0.817309 0.007482 -0.139009
C18   C     C_3   0.568512 0.817308 0.992518 -0.139009
C19   C     C_3   0.931488 0.317309 0.007482 -0.139009
C20   C     C_3   0.068513 0.317308 0.992519 -0.139009
C21   C     C_3   0.470924 0.818760 0.936435 0.036000
C22   C     C_3   0.529076 0.818760 0.063565 0.036000
C23   C     C_3   0.970924 0.318760 0.936435 0.036000
C24   C     C_3   0.187701 0.029270 0.955642 -0.258700
C25   C     C_3   0.029076 0.318760 0.063565 0.036000
C26   C     C_3   0.322064 0.554405 0.964059 -0.291179
C27   C     C_3   0.677936 0.554404 0.035941 -0.291179
C28   C     C_3   0.822064 0.054405 0.964059 -0.291179
C29   C     C_3   0.177936 0.054405 0.035941 -0.291179
C30   C     C_3   0.179787 0.523900 0.025465 -0.166212
C31   C     C_3   0.820213 0.523900 0.974535 -0.166213
C32   C     C_3   0.679787 0.023900 0.025465 -0.166213
C33   C     C_R   0.727476 0.043591 0.145875 0.536026
C34   C     C_3   0.320213 0.023900 0.974535 -0.166213
C35   C     C_3   0.240636 0.708246 0.056904 -0.278594
C36   C     C_3   0.759364 0.708246 0.943096 -0.278594
C37   C     C_3   0.740636 0.208246 0.056904 -0.278593
C38   C     C_3   0.259364 0.208246 0.943096 -0.278594
C39   C     C_3   0.241046 0.574955 0.070342 0.022639
C40   C     C_3   0.758954 0.574955 0.929658 0.022639
C41   C     C_3   0.741045 0.074955 0.070342 0.022639
C42   C     C_3   0.258954 0.074955 0.929658 0.022639
C43   C     C_3   0.255645 0.610699 0.932483 0.072858
C44   C     C_R   0.772524 0.543591 0.854124 0.536027
C45   C     C_3   0.744355 0.610699 0.067517 0.072858
C46   C     C_3   0.755645 0.110699 0.932483 0.072857
C47   C     C_3   0.244355 0.110699 0.067517 0.072858
C48   C     C_3   0.196107 0.523874 0.944907 0.216681
C49   C     C_3   0.803893 0.523875 0.055093 0.216681
C50   C     C_3   0.696107 0.023874 0.944907 0.216681
C51   C     C_3   0.303893 0.023875 0.055093 0.216681
C52   C     C_3   0.238838 0.726422 0.974966 -0.234790
C53   C     C_3   0.761162 0.726422 0.025034 -0.234788
C54   C     C_3   0.738838 0.226422 0.974966 -0.234789
C55   C     C_R   0.227476 0.543591 0.145875 0.536026
C56   C     C_3   0.261162 0.226422 0.025034 -0.234789
C57   C     C_3   0.503744 0.701019 0.460344 -0.228026
C58   C     C_3   0.496256 0.701019 0.539656 -0.228026
C59   C     C_3   0.003744 0.201019 0.460344 -0.228026
C60   C     C_3   0.996256 0.201019 0.539656 -0.228026
C61   C     C_R   0.443364 0.816835 0.862455 0.539767
C62   C     C_R   0.556636 0.816835 0.137545 0.539767
C63   C     C_R   0.943364 0.316835 0.862455 0.539768
C64   C     C_R   0.056636 0.316835 0.137545 0.539767
C65   C     C_3   0.564602 0.905370 0.473930 -0.219055
C66   C     C_3   0.519321 0.721168 0.964324 -0.113991
C67   C     C_3   0.435398 0.905370 0.526069 -0.219055
C68   C     C_3   0.064602 0.405370 0.473930 -0.219055
C69   C     C_3   0.935398 0.405370 0.526069 -0.219055
C70   C     C_3   0.440976 0.887591 0.444124 -0.261879
C71   C     C_3   0.559024 0.887591 0.555875 -0.261879
C72   C     C_3   0.940976 0.387591 0.444124 -0.261879
C73   C     C_3   0.059024 0.387591 0.555875 -0.261879
C74   C     C_3   0.510685 0.829353 0.430928 0.061137
C75   C     C_3   0.489315 0.829353 0.569071 0.061137
C76   C     C_3   0.010685 0.329353 0.430928 0.061137
C77   C     C_3   0.480678 0.721169 0.035676 -0.113991
C78   C     C_3   0.989315 0.329353 0.569071 0.061137
C79   C     C_3   0.179699 0.647140 0.459151 -0.228487
C80   C     C_3   0.820301 0.647140 0.540849 -0.228487
C81   C     C_3   0.679698 0.147140 0.459151 -0.228487
C82   C     C_3   0.320301 0.147140 0.540849 -0.228487
C83   C     C_3   0.184409 0.659635 0.538394 -0.227775
C84   C     C_3   0.815591 0.659635 0.461605 -0.227775
C85   C     C_3   0.684409 0.159635 0.538394 -0.227775
C86   C     C_3   0.315591 0.159635 0.461605 -0.227775
C87   C     C_3   0.252531 0.454459 0.473040 -0.216478
C88   C     C_3   0.019321 0.221168 0.964324 -0.113991
C89   C     C_3   0.747469 0.454459 0.526960 -0.216478
C90   C     C_3   0.752531 0.954459 0.473040 -0.216478
C91   C     C_3   0.247469 0.954459 0.526960 -0.216478
C92   C     C_3   0.304731 0.647926 0.442727 -0.263748
C93   C     C_3   0.695268 0.647926 0.557273 -0.263748
C94   C     C_3   0.804731 0.147927 0.442727 -0.263748
C95   C     C_3   0.195268 0.147926 0.557273 -0.263748
C96   C     C_3   0.240629 0.572509 0.430017 0.065504
C97   C     C_3   0.759371 0.572509 0.569983 0.065504
C98   C     C_3   0.740629 0.072509 0.430017 0.065504
C99   C     C_3   0.980678 0.221169 0.035676 -0.113991
C100  C     C_3   0.259371 0.072509 0.569983 0.065504
C101  C     C_3   0.252753 0.605987 0.567623 0.063736
C102  C     C_3   0.747247 0.605987 0.432377 0.063736
C103  C     C_3   0.752753 0.105987 0.567623 0.063736
C104  C     C_3   0.247247 0.105987 0.432377 0.063736
C105  C     C_3   0.247222 0.472662 0.554782 -0.263557
C106  C     C_3   0.752778 0.472662 0.445217 -0.263557
C107  C     C_3   0.747222 0.972662 0.554782 -0.263557
C108  C     C_3   0.252778 0.972663 0.445217 -0.263557
C109  C     C_R   0.262563 0.642761 0.855329 0.585825
C110  C     C_3   0.312299 0.529269 0.044357 -0.258700
C111  C     C_R   0.737437 0.642761 0.144671 0.585823
C112  C     C_R   0.762563 0.142761 0.855329 0.585825
C113  C     C_R   0.237437 0.142761 0.144671 0.585825
C114  C     C_3   0.317389 0.648435 0.524502 -0.218397
C115  C     C_3   0.682611 0.648435 0.475498 -0.218397
C116  C     C_3   0.817389 0.148435 0.524502 -0.218397
C117  C     C_3   0.182611 0.148435 0.475498 -0.218397
C118  C     C_R   0.273048 0.043384 0.645739 0.537403
C119  C     C_R   0.726952 0.043384 0.354261 0.537404
C120  C     C_R   0.773048 0.543384 0.645739 0.537403
Cr1   Cr    Cr6+3 0.229620 0.836040 0.749110 1.019149
Cr2   Cr    Cr6+3 0.613980 0.676590 0.250790 0.998586
Cr3   Cr    Cr6+3 0.886020 0.176590 0.749210 0.998586
Cr4   Cr    Cr6+3 0.113980 0.176590 0.250790 0.998586
Cr5   Cr    Cr6+3 0.770380 0.836040 0.250890 1.019149
Cr6   Cr    Cr6+3 0.729620 0.336040 0.749110 1.019149
Cr7   Cr    Cr6+3 0.270380 0.336040 0.250890 1.019149
Cr8   Cr    Cr6+3 0.387630 0.990680 0.750730 1.017687
Cr9   Cr    Cr6+3 0.612370 0.990680 0.249270 1.017687
Cr10  Cr    Cr6+3 0.887630 0.490680 0.750730 1.017687
Cr11  Cr    Cr6+3 0.112370 0.490680 0.249270 1.017687
Cr12  Cr    Cr6+3 0.386020 0.676590 0.749210 0.998586
F1    F     F_    0.138763 0.557681 0.905733 -0.665835
F2    F     F_    0.861238 0.557684 0.094266 -0.665834
F3    F     F_    0.638763 0.057680 0.905733 -0.665835
F4    F     F_    0.361237 0.057681 0.094267 -0.665834
H1    H     H_    0.376744 0.805374 0.019280 0.105802
H2    H     H_    0.712841 0.746867 0.917936 0.116730
H3    H     H_    0.193463 0.928979 0.537341 0.119174
H4    H     H_    0.289494 0.425392 0.583122 0.110712
H5    H     H_    0.710506 0.425393 0.416878 0.110712
H6    H     H_    0.789494 0.925392 0.583122 0.110712
H7    H     H_    0.210506 0.925393 0.416878 0.110712
H8    H     H_    0.318517 0.434653 0.055020 0.137127
H9    H     H_    0.681483 0.434653 0.944980 0.137127
H10   H     H_    0.818518 0.934654 0.055020 0.137127
H11   H     H_    0.181482 0.934654 0.944980 0.137127
H12   H     H_    0.353940 0.573326 0.075490 0.128015
H13   H     H_    0.787158 0.246868 0.082064 0.116729
H14   H     H_    0.646060 0.573326 0.924511 0.128014
H15   H     H_    0.853939 0.073327 0.075490 0.128015
H16   H     H_    0.146060 0.073326 0.924510 0.128014
H17   H     H_    0.366440 0.615016 0.956477 0.144100
H18   H     H_    0.633560 0.615014 0.043523 0.144100
H19   H     H_    0.866440 0.115016 0.956477 0.144100
H20   H     H_    0.133560 0.115016 0.043523 0.144099
H21   H     H_    0.334424 0.470300 0.935730 0.115419
H22   H     H_    0.665577 0.470299 0.064270 0.115418
H23   H     H_    0.834424 0.970301 0.935730 0.115419
H24   H     H_    0.212841 0.246867 0.917936 0.116730
H25   H     H_    0.165576 0.970300 0.064270 0.115419
H26   H     H_    0.663928 0.938676 0.046772 0.063746
H27   H     H_    0.336072 0.938676 0.953228 0.063746
H28   H     H_    0.163928 0.438676 0.046772 0.063746
H29   H     H_    0.836072 0.438677 0.953228 0.063746
H30   H     H_    0.711262 0.934953 0.926901 0.114555
H31   H     H_    0.288738 0.934954 0.073099 0.114555
H32   H     H_    0.211262 0.434954 0.926901 0.114556
H33   H     H_    0.788740 0.434954 0.073100 0.114554
H34   H     H_    0.273632 0.796546 0.959026 0.087054
H35   H     H_    0.726367 0.796546 0.040974 0.087053
H36   H     H_    0.773632 0.296546 0.959026 0.087055
H37   H     H_    0.226368 0.296547 0.040974 0.087054
H38   H     H_    0.185442 0.752498 0.960552 0.179203
H39   H     H_    0.814557 0.752499 0.039448 0.179203
H40   H     H_    0.685442 0.252498 0.960552 0.179202
H41   H     H_    0.623256 0.805372 0.980721 0.105802
H42   H     H_    0.314558 0.252498 0.039448 0.179203
H43   H     H_    0.633103 0.079856 0.033734 0.173578
H44   H     H_    0.366897 0.079856 0.966265 0.173578
H45   H     H_    0.133103 0.579856 0.033734 0.173578
H46   H     H_    0.866897 0.579857 0.966265 0.173579
H47   H     H_    0.546833 0.643950 0.446366 0.135961
H48   H     H_    0.453167 0.643950 0.553634 0.135961
H49   H     H_    0.046833 0.143950 0.446366 0.135961
H50   H     H_    0.953167 0.143950 0.553634 0.135961
H51   H     H_    0.458743 0.656196 0.435456 0.115836
H52   H     H_    0.876744 0.305374 0.019279 0.105802
H53   H     H_    0.541256 0.656196 0.564543 0.115836
H54   H     H_    0.958743 0.156196 0.435456 0.115836
H55   H     H_    0.041257 0.156195 0.564543 0.115836
H56   H     H_    0.616644 0.896933 0.454190 0.112031
H57   H     H_    0.383356 0.896932 0.545810 0.112031
H58   H     H_    0.116644 0.396933 0.454190 0.112031
H59   H     H_    0.883356 0.396932 0.545810 0.112031
H60   H     H_    0.601035 0.830938 0.576502 0.111505
H61   H     H_    0.398964 0.830938 0.423498 0.111505
H62   H     H_    0.101035 0.330937 0.576502 0.111505
H63   H     H_    0.123256 0.305372 0.980722 0.105802
H64   H     H_    0.898965 0.330938 0.423498 0.111505
H65   H     H_    0.470315 0.997783 0.065544 0.215674
H66   H     H_    0.529686 0.997782 0.934455 0.215674
H67   H     H_    0.970315 0.497783 0.065544 0.215674
H68   H     H_    0.029686 0.497782 0.934455 0.215675
H69   H     H_    0.437926 0.973915 0.415689 0.114365
H70   H     H_    0.562074 0.973915 0.584311 0.114365
H71   H     H_    0.937926 0.473915 0.415689 0.114365
H72   H     H_    0.062074 0.473915 0.584311 0.114365
H73   H     H_    0.449681 0.998750 0.536218 0.118270
H74   H     H_    0.195093 0.751906 0.081451 0.131469
H75   H     H_    0.550319 0.998751 0.463782 0.118270
H76   H     H_    0.949681 0.498750 0.536218 0.118270
H77   H     H_    0.050319 0.498750 0.463782 0.118270
H78   H     H_    0.129416 0.610745 0.445358 0.135813
H79   H     H_    0.870584 0.610745 0.554642 0.135813
H80   H     H_    0.629416 0.110745 0.445358 0.135813
H81   H     H_    0.370584 0.110745 0.554642 0.135813
H82   H     H_    0.179258 0.736314 0.433951 0.115411
H83   H     H_    0.820742 0.736314 0.566049 0.115411
H84   H     H_    0.679258 0.236314 0.433951 0.115411
H85   H     H_    0.804907 0.751906 0.918549 0.131468
H86   H     H_    0.320742 0.236314 0.566049 0.115411
H87   H     H_    0.177848 0.752904 0.551936 0.134854
H88   H     H_    0.822152 0.752904 0.448064 0.134854
H89   H     H_    0.677848 0.252904 0.551936 0.134854
H90   H     H_    0.322152 0.252904 0.448064 0.134854
H91   H     H_    0.139606 0.615550 0.563611 0.117938
H92   H     H_    0.860394 0.615550 0.436389 0.117938
H93   H     H_    0.639606 0.115550 0.563611 0.117938
H94   H     H_    0.360393 0.115550 0.436389 0.117938
H95   H     H_    0.722120 0.880523 0.453555 0.112865
H96   H     H_    0.695093 0.251906 0.081451 0.131469
H97   H     H_    0.277880 0.880523 0.546445 0.112865
H98   H     H_    0.222120 0.380523 0.453555 0.112865
H99   H     H_    0.777880 0.380523 0.546445 0.112865
H100  H     H_    0.697985 0.938373 0.575513 0.111787
H101  H     H_    0.302015 0.938373 0.424487 0.111787
H102  H     H_    0.197985 0.438373 0.575513 0.111787
H103  H     H_    0.802015 0.438373 0.424487 0.111787
H104  H     H_    0.349366 0.609141 0.414196 0.111231
H105  H     H_    0.650633 0.609140 0.585804 0.111232
H106  H     H_    0.849366 0.109141 0.414196 0.111231
H107  H     H_    0.304907 0.251906 0.918548 0.131469
H108  H     H_    0.150634 0.109141 0.585804 0.111232
H109  H     H_    0.296811 0.738709 0.421990 0.110044
H110  H     H_    0.703188 0.738708 0.578010 0.110044
H111  H     H_    0.796811 0.238709 0.421990 0.110044
H112  H     H_    0.203188 0.238708 0.578010 0.110044
H113  H     H_    0.534061 0.639473 0.935138 0.129660
H114  H     H_    0.465939 0.639474 0.064862 0.129660
H115  H     H_    0.034061 0.139473 0.935138 0.129660
H116  H     H_    0.965939 0.139474 0.064862 0.129660
H117  H     H_    0.338987 0.731015 0.543821 0.112364
H118  H     H_    0.287159 0.746867 0.082064 0.116730
H119  H     H_    0.661013 0.731015 0.456179 0.112364
H120  H     H_    0.838987 0.231015 0.543821 0.112364
H121  H     H_    0.161013 0.231015 0.456179 0.112364
H122  H     H_    0.357485 0.580873 0.534632 0.118704
H123  H     H_    0.642515 0.580874 0.465368 0.118704
H124  H     H_    0.857485 0.080873 0.534632 0.118704
H125  H     H_    0.142515 0.080874 0.465368 0.118704
H126  H     H_    0.306537 0.428980 0.462659 0.119174
H127  H     H_    0.693463 0.428980 0.537341 0.119174
H128  H     H_    0.806537 0.928979 0.462659 0.119174
O1    O     O_R   0.214130 0.708570 0.829890 -0.454749
O2    O     O_R   0.542830 0.717300 0.331620 -0.529553
O3    O     O_R   0.957170 0.217300 0.668380 -0.529553
O4    O     O_R   0.042830 0.217300 0.331620 -0.529553
O5    O     O_R   0.320870 0.624890 0.673130 -0.511617
O6    O     O_R   0.679130 0.624890 0.326870 -0.511616
O7    O     O_R   0.820870 0.124890 0.673130 -0.511617
O8    O     O_R   0.179130 0.124890 0.326870 -0.511616
O9    O     O_3   0.334430 0.834430 0.749680 -0.297195
O10   O     O_3   0.665570 0.834430 0.250320 -0.297195
O11   O     O_3   0.834430 0.334430 0.749680 -0.297195
O12   O     O_R   0.785870 0.708570 0.170110 -0.454748
O13   O     O_3   0.165570 0.334430 0.250320 -0.297195
O14   O     O_R   0.236050 0.959150 0.825270 -0.515359
O15   O     O_R   0.763950 0.959150 0.174730 -0.515359
O16   O     O_R   0.736050 0.459150 0.825270 -0.515360
O17   O     O_R   0.263950 0.459150 0.174730 -0.515359
O18   O     O_R   0.332100 0.076650 0.832310 -0.530972
O19   O     O_R   0.667900 0.076650 0.167690 -0.530972
O20   O     O_R   0.832100 0.576650 0.832310 -0.530972
O21   O     O_R   0.167900 0.576650 0.167690 -0.530971
O22   O     O_R   0.446500 0.918620 0.826240 -0.487182
O23   O     O_R   0.714130 0.208570 0.829890 -0.454749
O24   O     O_R   0.553500 0.918620 0.173760 -0.487182
O25   O     O_R   0.946500 0.418620 0.826240 -0.487183
O26   O     O_R   0.053500 0.418620 0.173760 -0.487182
O27   O     O_R   0.457310 0.715830 0.831280 -0.518126
O28   O     O_R   0.542690 0.715830 0.168720 -0.518126
O29   O     O_R   0.957310 0.215830 0.831280 -0.518127
O30   O     O_R   0.042690 0.215830 0.168720 -0.518127
O31   O     O_R   0.321000 0.623520 0.824130 -0.537150
O32   O     O_R   0.679000 0.623520 0.175870 -0.537150
O33   O     O_R   0.821000 0.123520 0.824130 -0.537150
O34   O     O_R   0.285870 0.208570 0.170110 -0.454749
O35   O     O_R   0.179000 0.123520 0.175870 -0.537150
O36   O     O_R   0.213990 0.710040 0.667000 -0.527614
O37   O     O_R   0.786010 0.710040 0.333000 -0.527615
O38   O     O_R   0.713990 0.210040 0.667000 -0.527614
O39   O     O_R   0.286010 0.210040 0.333000 -0.527615
O40   O     O_R   0.235920 0.960520 0.674260 -0.513181
O41   O     O_R   0.764080 0.960520 0.325740 -0.513181
O42   O     O_R   0.735920 0.460520 0.674260 -0.513181
O43   O     O_R   0.264080 0.460520 0.325740 -0.513181
O44   O     O_R   0.331960 0.078120 0.669410 -0.533086
O45   O     O_R   0.446360 0.919990 0.675230 -0.502236
O46   O     O_R   0.668040 0.078120 0.330590 -0.533086
O47   O     O_R   0.831960 0.578120 0.669410 -0.533086
O48   O     O_R   0.168040 0.578120 0.330590 -0.533086
O49   O     O_R   0.553640 0.919990 0.324770 -0.502236
O50   O     O_R   0.946360 0.419990 0.675230 -0.502236
O51   O     O_R   0.053640 0.419990 0.324770 -0.502236
O52   O     O_R   0.457170 0.717300 0.668380 -0.529553

loop_
_geom_bond_atom_site_label_1
_geom_bond_atom_site_label_2
_ccdc_geom_bond_type
C37   H96   S    
C9    O6    A    
C33   O19   A    
C113  O34   A    
C46   C112  S    
C11   O8    A    
C34   C42   S    
C30   H28   S    
C4    O52   A    
C27   H22   S    
C14   C21   S    
C90   C107  S    
Cr2   O10   S    
C8    O36   A    
Cr4   O30   S    
C81   H80   S    
C54   H40   S    
C5    C74   S    
Cr9   O19   S    
C36   C53   S    
C18   H41   S    
C89   C106  S    
C70   C74   S    
C35   H118  S    
C91   C100  S    
C94   H111  S    
C85   C103  S    
C80   C84   S    
C83   H87   S    
C59   C60   S    
Cr9   O10   S    
C85   H93   S    
C13   H15   S    
C52   H34   S    
Cr11  O21   S    
C19   C99   S    
C61   O27   A    
C81   H84   S    
Cr4   O4    S    
C17   C21   S    
C70   H69   S    
C19   C23   S    
C19   H52   S    
C16   C20   S    
C85   H89   S    
C68   H77   S    
C87   H126  S    
Cr4   O35   S    
C73   H72   S    
C10   O7    A    
C120  O47   A    
C104  C117  S    
C116  H120  S    
C66   C77   S    
C10   O38   A    
C15   H67   S    
C45   C111  S    
C82   H86   S    
Cr12  O52   S    
C103  C116  S    
C79   C96   S    
C115  H123  S    
Cr7   O34   S    
C67   H73   S    
C62   O24   A    
Cr8   O9    S    
C57   H51   S    
C88   C99   S    
Cr8   O45   S    
C2    C40   S    
C108  H101  S    
C81   C98   S    
C55   O17   A    
C17   H1    S    
C77   H114  S    
C16   H68   S    
C105  H4    S    
C2    H14   S    
C49   H33   S    
Cr8   O44   S    
C21   C66   S    
C84   C102  S    
C3    O48   A    
C51   H31   S    
Cr8   O18   S    
C86   C104  S    
C56   H42   S    
C95   C117  S    
C38   H107  S    
C28   C46   S    
C34   C51   S    
C29   C47   S    
C30   C48   S    
C43   C52   S    
C15   C25   S    
C22   C62   S    
C12   C22   S    
C92   C96   S    
Cr1   O36   S    
C64   O26   A    
C31   H29   S    
C119  O46   A    
C32   H26   S    
C32   C41   S    
C89   H127  S    
C90   H128  S    
C5    O49   A    
Cr5   O37   S    
C27   H18   S    
C45   C53   S    
Cr3   O33   S    
C110  H12   S    
Cr3   O11   S    
C60   C78   S    
C54   H36   S    
C109  O1    A    
C53   H35   S    
C109  O31   A    
C61   O22   A    
C62   O28   A    
C65   C74   S    
C25   C64   S    
C69   C72   S    
C51   F4    S    
C87   C105  S    
C73   H62   S    
Cr12  O27   S    
C111  O12   A    
C11   C104  S    
C16   C23   S    
C23   C88   S    
C67   C75   S    
Cr3   O29   S    
C93   C97   S    
C6    O3    A    
Cr2   O2    S    
Cr3   O7    S    
Cr4   O8    S    
C83   C101  S    
C18   C22   S    
C24   H11   S    
C103  C107  S    
C7    C76   S    
Cr9   O49   S    
C18   C66   S    
C38   C56   S    
C91   H97   S    
C67   C70   S    
C89   H99   S    
C38   H24   S    
C93   H105  S    
C57   C58   S    
C44   O16   A    
C82   H81   S    
Cr12  O9    S    
C14   H66   S    
Cr10  O25   S    
C30   C39   S    
C59   H49   S    
C37   C41   S    
C40   C44   S    
Cr11  O51   S    
C26   H17   S    
C68   H58   S    
C43   C109  S    
C59   C76   S    
C81   C85   S    
C47   C56   S    
C107  H100  S    
Cr10  O50   S    
C52   H38   S    
C24   C42   S    
C34   H44   S    
Cr6   O11   S    
C80   H83   S    
C13   C41   S    
Cr2   O32   S    
C2    H9    S    
C15   C19   S    
C53   H39   S    
C10   C103  S    
C35   H74   S    
C50   F3    S    
C80   C97   S    
C20   C25   S    
C94   C98   S    
C44   O20   A    
C55   O21   A    
C31   C40   S    
C58   H48   S    
C24   C29   S    
C4    C75   S    
C102  C115  S    
C24   H16   S    
C25   C99   S    
C79   H78   S    
C39   C55   S    
C9    C102  S    
C12   C17   S    
C50   H30   S    
C28   H19   S    
C13   C28   S    
C2    C27   S    
C112  O23   A    
C119  O41   A    
C8    C101  S    
C21   C61   S    
C95   H108  S    
C117  H125  S    
C27   C45   S    
C23   C63   S    
C5    O2    A    
C113  O35   A    
C92   H109  S    
C101  C114  S    
C31   C49   S    
C80   H79   S    
Cr5   O10   S    
Cr1   O40   S    
C86   H94   S    
Cr1   O14   S    
C84   H88   S    
Cr12  O5    S    
C94   C116  S    
C95   C100  S    
C47   C51   S    
C82   C86   S    
C35   C39   S    
C6    O50   A    
Cr6   O38   S    
C45   C49   S    
Cr7   O43   S    
C46   C54   S    
C17   C77   S    
Cr2   O28   S    
C69   H76   S    
Cr7   O13   S    
C110  H8    S    
C29   H20   S    
C91   H3    S    
C31   H46   S    
C30   H45   S    
C100  C118  S    
Cr1   O1    S    
C104  C108  S    
C106  H5    S    
C47   C113  S    
C114  H117  S    
C91   C108  S    
C22   C77   S    
C37   H13   S    
C99   H116  S    
Cr4   O13   S    
Cr6   O42   S    
Cr11  O48   S    
Cr12  O31   S    
C56   H37   S    
C33   C41   S    
C1    O14   A    
C79   C83   S    
C20   C88   S    
C7    O51   A    
Cr1   O9    S    
Cr11  O13   S    
C6    C78   S    
C93   H110  S    
Cr2   O6    S    
Cr3   O3    S    
C1    C42   S    
C35   C52   S    
C120  O42   A    
C59   H54   S    
C36   H2    S    
C108  H7    S    
C58   C75   S    
Cr5   O12   S    
C49   F2    S    
C14   C18   S    
C63   O29   A    
C72   C76   S    
C98   C119  S    
C83   H91   S    
C92   H104  S    
C87   H98   S    
C38   C42   S    
Cr7   O39   S    
C1    O18   A    
C4    O45   A    
C15   C16   S    
C26   H21   S    
C93   C115  S    
Cr10  O20   S    
C71   H70   S    
C118  O44   A    
C73   C78   S    
C32   H43   S    
C3    C96   S    
C43   C48   S    
C26   C110  S    
C116  H124  S    
C66   H113  S    
Cr6   O23   S    
Cr5   O41   S    
C69   C78   S    
C13   H10   S    
C26   C43   S    
C72   H71   S    
Cr10  O47   S    
C39   C110  S    
C101  C105  S    
C29   H25   S    
C48   F1    S    
C36   C40   S    
C34   H27   S    
C79   H82   S    
Cr5   O15   S    
C68   C73   S    
C65   C71   S    
Cr6   O16   S    
C28   H23   S    
C89   C97   S    
C57   C74   S    
C20   H63   S    
C9    O37   A    
C8    O5    A    
C95   H112  S    
C72   H64   S    
C117  H121  S    
C11   O39   A    
C48   H32   S    
C65   H56   S    
C105  H102  S    
C87   C96   S    
C58   H53   S    
C118  O40   A    
C12   H65   S    
C107  H6    S    
C114  H122  S    
C32   C50   S    
C37   C54   S    
C12   C14   S    
C70   H61   S    
C88   H115  S    
C86   H90   S    
C90   H95   S    
C84   H92   S    
C57   H47   S    
C33   O15   A    
C60   H50   S    
C111  O32   A    
Cr11  O26   S    
C82   C100  S    
Cr9   O24   S    
Cr9   O46   S    
C69   H59   S    
C46   C50   S    
C112  O33   A    
C106  H103  S    
Cr7   O17   S    
C97   C120  S    
C94   H106  S    
Cr8   O22   S    
C71   C75   S    
C68   C76   S    
C71   H60   S    
C60   H55   S    
C36   H85   S    
C102  C106  S    
C7    O4    A    
C65   H75   S    
C115  H119  S    
C63   O25   A    
C3    O43   A    
C64   O30   A    
Cr10  O11   S    
C67   H57   S    
C92   C114  S    
C90   C98   S    
