data_str_m3_o12_o14_f0_pcu.sym.253
_audit_creation_date              2012-12-10T17:15:53-0500
_audit_creation_method            fapswitch 2.2
_symmetry_space_group_name_H-M    P1
_symmetry_Int_Tables_number       1
_space_group_crystal_system       triclinic
_cell_length_a                    10.210203
_cell_length_b                    10.67817
_cell_length_c                    10.732081
_cell_angle_alpha                 88.937272
_cell_angle_beta                  94.375448
_cell_angle_gamma                 81.609006
_cell_volume                      1153.65730802

loop_
_atom_site_label
_atom_site_type_symbol
_atom_type_description
_atom_site_fract_x
_atom_site_fract_y
_atom_site_fract_z
_atom_type_partial_charge
C1    C     C_R   0.444554 0.505350 0.266252 0.742542
C2    C     C_R   0.544151 0.061689 0.382299 0.066118
C3    C     C_R   0.490135 0.128987 0.483562 -0.148341
C4    C     C_R   0.427960 0.068910 0.575227 0.196853
C5    C     C_R   0.436718 0.940048 0.576843 -0.265713
C6    C     C_R   0.497823 0.871341 0.483844 -0.121628
C7    C     C_2   0.415683 0.488337 0.131923 0.297238
C8    C     C_2   0.517241 0.432244 0.070323 -0.290362
C9    C     C_2   0.584086 0.463157 0.866433 -0.476503
C10   C     C_2   0.501624 0.411198 0.937552 0.337596
C11   C     C_2   0.075944 0.485296 0.493075 0.021364
C12   C     C_R   0.497578 0.260727 0.495432 0.881884
C13   C     C_2   0.932228 0.494987 0.520354 0.343454
C14   C     C_R   0.554741 0.484397 0.732878 0.922874
C15   C     C_R   0.499311 0.739113 0.493490 0.887557
C16   C     C_R   0.588149 0.122861 0.278710 -0.255371
C17   C     C_R   0.639275 0.053604 0.179944 -0.165230
C18   C     C_R   0.644278 0.922074 0.179925 0.289197
C19   C     C_R   0.596084 0.861039 0.279709 -0.246201
C20   C     C_R   0.547805 0.929743 0.382380 0.074356
H1    H     H_    0.116714 0.412061 0.432402 0.090462
H2    H     H_    0.580354 0.224671 0.271070 0.158985
H3    H     H_    0.671605 0.103230 0.101661 0.143804
H4    H     H_    0.595340 0.760152 0.274746 0.148785
H5    H     H_    0.394346 0.893243 0.651439 0.150122
H6    H     H_    0.616054 0.402890 0.115808 0.123785
H7    H     H_    0.668735 0.501809 0.909736 0.132529
N1    N     N_2   0.157290 0.551390 0.551110 0.043820
N2    N     N_2   0.842740 0.448550 0.448960 -0.074671
O1    O     O_R   0.568950 0.489660 0.307530 -0.642540
O2    O     O_R   0.348880 0.522640 0.340350 -0.631831
O3    O     O_R   0.610060 0.300270 0.483590 -0.610910
O4    O     O_R   0.389990 0.333260 0.516410 -0.614258
O5    O     O_R   0.651120 0.477360 0.659650 -0.612325
O6    O     O_R   0.431050 0.510340 0.692470 -0.637941
O7    O     O_R   0.610010 0.666740 0.483590 -0.636256
O8    O     O_R   0.389940 0.699730 0.516410 -0.607007
Zn1   Zn    Zn3+2 0.646940 0.477980 0.478090 0.924730
Zn2   Zn    Zn3+2 0.353060 0.522020 0.521910 0.950167
N3    N     N_2   0.357974 0.137087 0.667902 -0.307919
H8    H     H_    0.381594 0.095387 0.755656 0.222150
C21   C     C_3   0.215612 0.161093 0.638409 -0.758398
H9    H     H_    0.169098 0.226380 0.707040 0.226881
H10   H     H_    0.173099 0.071150 0.642186 0.231250
H11   H     H_    0.191424 0.205853 0.543736 0.248772
O9    O     O_3   0.294098 0.532559 0.065260 -0.599627
C22   C     C_3   0.183989 0.513481 0.131756 0.160904
H12   H     H_    0.157677 0.595374 0.192162 0.175206
H13   H     H_    0.202005 0.423042 0.188356 0.134970
C23   C     C_3   0.065382 0.506212 0.039889 -0.899687
H14   H     H_    0.086426 0.421790 0.981872 0.267024
H15   H     H_    0.976464 0.497659 0.091103 0.215198
H16   H     H_    0.044931 0.593150 0.979169 0.265545
N4    N     N_2   0.897166 0.549169 0.635062 -0.253184
H17   H     H_    0.809201 0.609925 0.632853 0.270533
C24   C     C_3   0.929516 0.464239 0.742996 -0.789298
H18   H     H_    0.884121 0.376542 0.729549 0.252890
H19   H     H_    0.891292 0.512093 0.826456 0.233622
H20   H     H_    0.038724 0.437481 0.758656 0.232828
N5    N     N_2   0.878965 0.411764 0.332553 -0.290525
H21   H     H_    0.810608 0.451436 0.262092 0.245391
C25   C     C_3   0.908352 0.275948 0.323401 -0.779740
H22   H     H_    0.941094 0.252281 0.229219 0.223901
H23   H     H_    0.818808 0.231789 0.338151 0.270129
H24   H     H_    0.989122 0.236646 0.394607 0.231823
O10   O     O_3   0.100867 0.661659 0.596499 -0.533910
C26   C     C_3   0.170257 0.679783 0.711612 0.291369
H25   H     H_    0.265496 0.713298 0.697110 0.168588
H26   H     H_    0.189125 0.591424 0.771188 0.165674
C27   C     C_3   0.087370 0.781104 0.781616 -0.929487
H27   H     H_    0.988943 0.752675 0.794923 0.264032
H28   H     H_    0.138718 0.793762 0.874541 0.230968
H29   H     H_    0.072608 0.872531 0.727698 0.257454
N6    N     N_2   0.691054 0.851704 0.076616 -0.316907
H30   H     H_    0.663957 0.762418 0.071327 0.217661
C28   C     C_3   0.830060 0.851230 0.058409 -0.797157
H31   H     H_    0.855811 0.795921 0.974924 0.235314
H32   H     H_    0.892895 0.806457 0.141123 0.247811
H33   H     H_    0.851369 0.949050 0.042531 0.247009
N7    N     N_2   0.395546 0.347269 0.887693 -0.248480
H34   H     H_    0.398448 0.324385 0.795435 0.254445
C29   C     C_3   0.364386 0.242852 0.963101 -0.786605
H35   H     H_    0.274609 0.208455 0.919911 0.229674
H36   H     H_    0.341732 0.271766 0.058527 0.254893
H37   H     H_    0.448746 0.164003 0.969273 0.225881

loop_
_geom_bond_atom_site_label_1
_geom_bond_atom_site_label_2
_ccdc_geom_bond_type
C8    H6    S    
O6    Zn2   S    
C19   C20   A    
C28   H33   S    
C7    C8    D    
C22   H13   S    
O4    Zn2   S    
N6    C28   S    
C13   N2    D    
C28   H32   S    
C5    C6    A    
C1    O2    A    
C24   H18   S    
O1    Zn1   S    
N5    C25   S    
C18   C19   A    
C15   O8    A    
C25   H23   S    
C3    C12   S    
C6    C15   S    
N4    H17   S    
C4    N3    S    
O2    Zn2   S    
C16   C17   A    
N2    Zn1   S    
C23   H15   S    
C27   H27   S    
O3    Zn1   S    
C2    C16   A    
C9    C10   D    
N3    C21   S    
O10   C26   S    
C18   N6    S    
O5    Zn1   S    
C12   O3    A    
C21   H10   S    
C17   C18   A    
C22   C23   S    
N4    C24   S    
C23   H16   S    
N6    H30   S    
C2    C20   A    
C26   H25   S    
C7    O9    S    
C28   H31   S    
N7    C29   S    
C14   O6    A    
C10   N7    S    
N7    H34   S    
N1    Zn2   S    
C11   H1    S    
N5    H21   S    
C26   H26   S    
C21   H11   S    
N1    O10   S    
C9    C14   S    
C25   H22   S    
C22   H12   S    
N2    N5    S    
C27   H29   S    
C23   H14   S    
C17   H3    S    
C5    H5    S    
N3    H8    S    
C29   H36   S    
C21   H9    S    
C3    C4    A    
C15   O7    A    
C9    H7    S    
C13   N4    S    
O9    C22   S    
C16   H2    S    
C25   H24   S    
C1    C7    S    
C4    C5    A    
C14   O5    A    
C29   H37   S    
C6    C20   A    
C24   H20   S    
C26   C27   S    
O7    Zn1   S    
C2    C3    A    
O8    Zn2   S    
C11   C13   S    
C11   N1    D    
C1    O1    A    
C24   H19   S    
C19   H4    S    
C8    C10   S    
C29   H35   S    
C27   H28   S    
C12   O4    A    
