data_str_m3_o10_o28_f0_pcu.sym.212
_audit_creation_date              2012-12-10T16:58:28-0500
_audit_creation_method            fapswitch 2.2
_symmetry_space_group_name_H-M    P1
_symmetry_Int_Tables_number       1
_space_group_crystal_system       triclinic
_cell_length_a                    7.729577
_cell_length_b                    8.571524
_cell_length_c                    23.490554
_cell_angle_alpha                 91.221442
_cell_angle_beta                  86.022141
_cell_angle_gamma                 93.936355
_cell_volume                      1548.72280147

loop_
_atom_site_label
_atom_site_type_symbol
_atom_type_description
_atom_site_fract_x
_atom_site_fract_y
_atom_site_fract_z
_atom_type_partial_charge
C1    C     C_R   0.546107 0.794945 0.498485 0.969453
C2    C     C_R   0.453900 0.205053 0.501477 0.973965
C3    C     C_R   0.644228 0.467157 0.761401 -0.145943
C4    C     C_R   0.633851 0.564524 0.233922 -0.145271
C5    C     C_R   0.654193 0.463509 0.701882 0.151691
C6    C     C_R   0.642140 0.569068 0.292917 0.149942
C7    C     C_R   0.506399 0.500849 0.673320 -0.103387
C8    C     C_R   0.494747 0.512810 0.327503 -0.090030
C9    C     C_R   0.354397 0.540296 0.705439 -0.251881
C10   C     C_R   0.338933 0.467189 0.302592 -0.274569
C11   C     C_R   0.346039 0.542922 0.764759 0.234422
C12   C     C_R   0.328000 0.472823 0.243717 0.246477
C13   C     C_R   0.492412 0.506009 0.792358 0.284673
C14   C     C_R   0.479108 0.517016 0.209096 0.268918
C15   C     C_2   0.570372 0.958491 0.497571 -0.378048
C16   C     C_2   0.429650 0.041500 0.502328 -0.372142
C17   C     C_R   0.502700 0.499536 0.610801 0.893897
C18   C     C_R   0.498510 0.503918 0.389457 0.893757
C19   C     C_R   0.443818 0.377890 0.119937 0.515481
C20   C     C_R   0.543757 0.640033 0.880509 0.510851
C21   C     C_R   0.520455 0.652557 0.119882 0.501492
C22   C     C_R   0.432718 0.372793 0.881000 0.513161
C23   C     C_R   0.535864 0.653293 0.059722 -0.025710
C24   C     C_R   0.429963 0.368792 0.941084 -0.029289
C25   C     C_R   0.485788 0.512583 0.030326 -0.055233
C26   C     C_R   0.486157 0.508236 0.970370 -0.056318
C27   C     C_R   0.436280 0.375472 0.060855 -0.055562
C28   C     C_R   0.543533 0.643783 0.939770 -0.050359
C29   C     C_R   0.599407 0.787299 0.027891 0.159588
C30   C     C_R   0.374136 0.232802 0.973020 0.166188
C31   C     C_R   0.601932 0.779893 0.968450 -0.174753
C32   C     C_R   0.379747 0.238607 0.032294 -0.175264
H1    H     H_    0.650952 0.881785 0.944291 0.191808
H2    H     H_    0.335999 0.135522 0.056549 0.190614
H3    H     H_    0.754607 0.439157 0.784413 0.145911
H4    H     H_    0.747751 0.600799 0.206633 0.156875
H5    H     H_    0.240929 0.569661 0.684341 0.177010
H6    H     H_    0.224399 0.428040 0.329124 0.169623
H7    H     H_    0.703078 0.010031 0.493020 0.179505
H8    H     H_    0.296946 0.989955 0.506873 0.180098
H9    H     H_    0.014011 0.382722 0.456977 0.189937
H10   H     H_    0.986029 0.617567 0.542909 0.188487
N1    N     N_R   0.478683 0.515916 0.148198 -0.348632
N2    N     N_R   0.488368 0.506639 0.852950 -0.347294
N3    N     N_2   0.950330 0.457950 0.484560 -0.175250
N4    N     N_2   0.049670 0.542050 0.515440 -0.175177
O1    O     O_R   0.389250 0.738570 0.503790 -0.610515
O2    O     O_R   0.610750 0.261430 0.496210 -0.612658
O3    O     O_R   0.678390 0.711620 0.493890 -0.632342
O4    O     O_R   0.321610 0.288380 0.506110 -0.628521
O5    O     O_R   0.355400 0.513520 0.588790 -0.623617
O6    O     O_R   0.644600 0.486480 0.411210 -0.612838
O7    O     O_R   0.644550 0.486570 0.578900 -0.622911
O8    O     O_R   0.355450 0.513430 0.421100 -0.631060
O9    O     O_2   0.415682 0.243594 0.149210 -0.549362
O10   O     O_2   0.598538 0.768559 0.850290 -0.556739
O11   O     O_2   0.544333 0.786295 0.150418 -0.547524
O12   O     O_2   0.381277 0.245676 0.850166 -0.552847
Zn1   Zn    Zn3+2 0.306930 0.518000 0.506610 0.944570
Zn2   Zn    Zn3+2 0.693070 0.482000 0.493390 0.939708
C33   C     C_3   0.673852 0.936799 0.054770 -0.764132
H11   H     H_    0.571575 0.993699 0.081422 0.290035
H12   H     H_    0.782192 0.911072 0.081020 0.257565
H13   H     H_    0.727008 0.023086 0.022350 0.208077
C34   C     C_3   0.307118 0.080159 0.946439 -0.772811
H14   H     H_    0.189053 0.098183 0.923702 0.264364
H15   H     H_    0.409257 0.033060 0.916676 0.281886
H16   H     H_    0.270209 0.989039 0.978822 0.208945
C35   C     C_3   0.821885 0.417875 0.671189 -0.830028
H17   H     H_    0.796618 0.314071 0.643154 0.254554
H18   H     H_    0.882608 0.517358 0.645766 0.240346
H19   H     H_    0.917914 0.386559 0.701384 0.228419
C36   C     C_3   0.805162 0.641494 0.317376 -0.843536
H20   H     H_    0.771097 0.729085 0.351107 0.246715
H21   H     H_    0.878997 0.549637 0.335298 0.249130
H22   H     H_    0.891725 0.704263 0.284400 0.231943
C37   C     C_3   0.181991 0.584790 0.798317 -0.863704
H23   H     H_    0.130986 0.485531 0.825612 0.246416
H24   H     H_    0.209712 0.689266 0.825789 0.260516
H25   H     H_    0.079122 0.611692 0.769965 0.236806
C38   C     C_3   0.154231 0.432522 0.219794 -0.833074
H26   H     H_    0.152454 0.463248 0.174266 0.236260
H27   H     H_    0.118592 0.305582 0.224619 0.266201
H28   H     H_    0.053529 0.498694 0.243416 0.222055

loop_
_geom_bond_atom_site_label_1
_geom_bond_atom_site_label_2
_ccdc_geom_bond_type
C4    H4    S    
N3    Zn2   S    
N4    Zn1   S    
C33   H13   S    
C36   H20   S    
C20   O10   S    
C17   O5    A    
C2    O4    A    
C38   H26   S    
C18   O6    A    
C37   H23   S    
O3    Zn2   S    
O4    Zn1   S    
C23   C29   A    
C24   C26   A    
C15   C16   D    
C35   H18   S    
H10   N4    S    
C33   H12   S    
C5    C35   S    
O6    Zn2   S    
C38   H27   S    
C21   N1    A    
C22   N2    A    
C34   H15   S    
C31   H1    S    
C1    C15   S    
C11   C37   S    
C3    C13   A    
C36   H21   S    
C33   H11   S    
C20   N2    A    
O7    Zn2   S    
C19   N1    A    
O2    Zn2   S    
O8    Zn1   S    
C37   H24   S    
C29   C33   S    
C4    C6    A    
C5    C7    A    
C1    O1    A    
C6    C8    A    
C20   C28   A    
C2    O2    A    
C25   C26   A    
N3    N4    D    
C8    C18   S    
C32   H2    S    
C35   H19   S    
C21   O11   S    
C3    H3    S    
C34   H16   S    
C9    H5    S    
C9    C11   A    
C15   H7    S    
C10   C12   A    
C16   H8    S    
C12   C14   A    
C21   C23   A    
C36   H22   S    
C22   C24   A    
O5    Zn1   S    
C17   O7    A    
C38   H28   S    
C19   C27   A    
C6    C36   S    
C37   H25   S    
C19   O9    S    
C7    C9    A    
C27   C32   A    
C28   C31   A    
C3    C5    A    
C7    C17   S    
C22   O12   S    
C2    C16   S    
C25   C27   A    
C26   C28   A    
C10   H6    S    
C29   C31   A    
C30   C32   A    
C11   C13   A    
C12   C38   S    
C23   C25   A    
C4    C14   A    
C35   H17   S    
C24   C30   A    
C30   C34   S    
C18   O8    A    
O1    Zn1   S    
C8    C10   A    
C34   H14   S    
H9    N3    S    
C1    O3    A    
C13   N2    S    
C14   N1    S    
