data_str_m9_o10_o29_f0_sra.sym.58
_audit_creation_date              2012-12-11T14:08:42-0500
_audit_creation_method            fapswitch 2.2
_symmetry_space_group_name_H-M    P1
_symmetry_Int_Tables_number       1
_space_group_crystal_system       triclinic
_cell_length_a                    27.873755
_cell_length_b                    7.233875
_cell_length_c                    17.194064
_cell_angle_alpha                 90.06107
_cell_angle_beta                  99.855007
_cell_angle_gamma                 89.857942
_cell_volume                      3415.76043869

loop_
_atom_site_label
_atom_site_type_symbol
_atom_type_description
_atom_site_fract_x
_atom_site_fract_y
_atom_site_fract_z
_atom_type_partial_charge
O1    O     O_R   0.000700 0.436510 0.857920 -0.532424
O2    O     O_R   0.999300 0.563490 0.142080 -0.532010
O3    O     O_R   0.999300 0.936510 0.642080 -0.532535
O4    O     O_R   0.000700 0.063490 0.357920 -0.532139
O5    O     O_R   0.930080 0.766380 0.721890 -0.536753
O6    O     O_R   0.069920 0.233620 0.278110 -0.541845
O7    O     O_R   0.069920 0.266380 0.778110 -0.537609
O8    O     O_R   0.930080 0.733620 0.221890 -0.541860
C1    C     C_R   0.910988 0.598101 0.710361 0.693831
C2    C     C_R   0.089403 0.401679 0.291189 0.695289
C3    C     C_R   0.088992 0.097759 0.789719 0.693507
C4    C     C_R   0.910613 0.902213 0.209002 0.696136
O9    O     O_R   0.996180 0.766230 0.862310 -0.545887
O10   O     O_R   0.003820 0.233770 0.137690 -0.542895
O11   O     O_R   0.003820 0.266230 0.637690 -0.545828
O12   O     O_R   0.996180 0.733770 0.362310 -0.542941
O13   O     O_R   0.065870 0.936460 0.783500 -0.533898
O14   O     O_R   0.934130 0.063540 0.216500 -0.537863
O15   O     O_R   0.934130 0.436460 0.716500 -0.533095
O16   O     O_R   0.065870 0.563540 0.283500 -0.537523
C5    C     C_R   0.998470 0.596542 0.894425 0.752845
C6    C     C_R   0.001549 0.403464 0.105582 0.756749
C7    C     C_R   0.001531 0.096453 0.605604 0.754070
C8    C     C_R   0.998453 0.903552 0.394389 0.756683
O17   O     O_3   0.022790 0.603020 0.723980 -0.377144
O18   O     O_3   0.977210 0.396980 0.276020 -0.378489
O19   O     O_3   0.977210 0.103020 0.776020 -0.376501
O20   O     O_3   0.022790 0.896980 0.223980 -0.378474
V1    V     V_3+5 0.995770 0.877900 0.754830 1.418998
V2    V     V_3+5 0.004230 0.122100 0.245170 1.392507
V3    V     V_3+5 0.004230 0.377900 0.745170 1.417946
V4    V     V_3+5 0.995770 0.622100 0.254830 1.392370
C9    C     C_2   0.001693 0.082306 0.519517 -0.337897
C10   C     C_2   0.998266 0.917707 0.480468 -0.337786
C11   C     C_2   0.998318 0.582385 0.980540 -0.337722
C12   C     C_2   0.001728 0.417631 0.019475 -0.337050
H1    H     H_    0.004487 0.210339 0.487674 0.152821
H2    H     H_    0.995462 0.789677 0.512308 0.152340
H3    H     H_    0.995542 0.710483 0.012493 0.152761
H4    H     H_    0.004513 0.289536 0.987526 0.152330
C13   C     C_R   0.684280 0.918467 0.023480 0.621278
C14   C     C_R   0.317090 0.127074 0.964899 0.634576
C15   C     C_R   0.316048 0.414287 0.476461 0.618318
C16   C     C_R   0.681979 0.649840 0.541911 0.642069
O21   O     O_2   0.715348 0.892345 0.972491 -0.486624
O22   O     O_2   0.290807 0.241783 0.003047 -0.504287
O23   O     O_2   0.284831 0.394827 0.527590 -0.489225
O24   O     O_2   0.707884 0.776380 0.509361 -0.501777
N1    N     N_R   0.702878 0.955185 0.100912 -0.569844
N2    N     N_R   0.295704 0.049380 0.895070 -0.571067
N3    N     N_R   0.297532 0.440614 0.398219 -0.568767
N4    N     N_R   0.703933 0.555586 0.607325 -0.570724
C17   C     C_R   0.672900 0.006611 0.152321 0.618552
C18   C     C_R   0.323293 0.958231 0.848299 0.650029
C19   C     C_R   0.327649 0.476366 0.345182 0.615330
C20   C     C_R   0.676883 0.450424 0.650054 0.651015
C21   C     C_R   0.781778 0.092338 0.159417 -0.125827
C22   C     C_R   0.224683 0.150463 0.797791 -0.066539
C23   C     C_R   0.219140 0.582947 0.339224 -0.134487
C24   C     C_R   0.775425 0.636990 0.707629 -0.057393
C25   C     C_R   0.831941 0.080597 0.185607 -0.206965
C26   C     C_R   0.174405 0.164674 0.771693 -0.207564
C27   C     C_R   0.168836 0.574867 0.313393 -0.204839
C28   C     C_R   0.825778 0.649588 0.733190 -0.206800
C29   C     C_R   0.829833 0.754044 0.154238 -0.255596
C30   C     C_R   0.159857 0.003741 0.888449 -0.235465
C31   C     C_R   0.169546 0.250413 0.347927 -0.252301
C32   C     C_R   0.839690 0.523236 0.608819 -0.234734
C33   C     C_R   0.779187 0.764692 0.127549 0.039120
C34   C     C_R   0.210042 0.994119 0.916752 0.033913
C35   C     C_R   0.220247 0.257599 0.374291 0.043720
C36   C     C_R   0.789354 0.514767 0.581423 0.036196
C37   C     C_R   0.754829 0.936656 0.129604 0.348925
C38   C     C_R   0.243344 0.063828 0.870001 0.311348
C39   C     C_R   0.245414 0.426319 0.370259 0.353424
C40   C     C_R   0.756373 0.568003 0.632044 0.310720
C41   C     C_R   0.602048 0.974686 0.048629 -0.148745
C42   C     C_R   0.396415 0.013667 0.945591 -0.135704
C43   C     C_R   0.398330 0.463295 0.450154 -0.147705
C44   C     C_R   0.603296 0.521537 0.555948 -0.132467
C45   C     C_R   0.633245 0.911449 0.997181 -0.112366
C46   C     C_R   0.366499 0.092501 0.995581 -0.095938
C47   C     C_R   0.367106 0.411395 0.503419 -0.116408
C48   C     C_R   0.632502 0.619005 0.510130 -0.093382
C49   C     C_R   0.612275 0.846253 0.921473 0.360996
C50   C     C_R   0.386769 0.130483 0.074720 0.360358
C51   C     C_R   0.388090 0.363529 0.581728 0.362963
C52   C     C_R   0.611244 0.682072 0.434443 0.347185
C53   C     C_R   0.622501 0.033042 0.125865 -0.083930
C54   C     C_R   0.374767 0.948108 0.870062 -0.072647
C55   C     C_R   0.378120 0.503538 0.370598 -0.084384
C56   C     C_R   0.625421 0.440278 0.628300 -0.071870
C57   C     C_R   0.856768 0.911773 0.183213 -0.052775
C58   C     C_R   0.141873 0.088327 0.816428 -0.039714
C59   C     C_R   0.143271 0.408776 0.317339 -0.051881
C60   C     C_R   0.858040 0.589882 0.684216 -0.036983
H5    H     H_    0.848212 0.622757 0.151076 0.131263
H6    H     H_    0.134493 0.948804 0.923848 0.115041
H7    H     H_    0.150612 0.121284 0.352551 0.130946
H8    H     H_    0.864834 0.480530 0.570504 0.112208
C61   C     C_R   0.478221 0.927581 0.920437 0.020083
C62   C     C_R   0.519956 0.054301 0.073489 0.018087
C63   C     C_R   0.522090 0.422904 0.578295 0.018659
C64   C     C_R   0.480242 0.544490 0.424963 0.016861
C65   C     C_R   0.468494 0.058196 0.048781 0.011026
C66   C     C_R   0.529894 0.919084 0.946050 0.014280
C67   C     C_R   0.530990 0.570812 0.453248 0.016059
C68   C     C_R   0.470375 0.421549 0.554167 0.012658
C69   C     C_R   0.447877 0.999947 0.971558 0.076648
C70   C     C_R   0.550486 0.982208 0.022665 0.075549
C71   C     C_R   0.552002 0.505071 0.529137 0.076885
C72   C     C_R   0.449756 0.476401 0.476502 0.074415
C73   C     C_R   0.455620 0.865321 0.845188 -0.210025
C74   C     C_R   0.542094 0.128617 0.146641 -0.202283
C75   C     C_R   0.545017 0.342692 0.649866 -0.212023
C76   C     C_R   0.458851 0.585504 0.346549 -0.204204
C77   C     C_R   0.405367 0.872846 0.820264 0.351889
C78   C     C_R   0.591953 0.117997 0.173095 0.331839
C79   C     C_R   0.595320 0.349073 0.674709 0.349069
C80   C     C_R   0.409184 0.567846 0.319532 0.336375
O25   O     O_2   0.300652 0.876791 0.781605 -0.476980
O26   O     O_2   0.691860 0.026047 0.229194 -0.498736
O27   O     O_2   0.700061 0.354972 0.712617 -0.475986
O28   O     O_2   0.308688 0.478824 0.267900 -0.494366
C81   C     C_R   0.561935 0.850156 0.897405 -0.180083
C82   C     C_R   0.436598 0.112212 0.100273 -0.167470
C83   C     C_R   0.438467 0.368755 0.605627 -0.178412
C84   C     C_R   0.561667 0.659724 0.407648 -0.168420
H9    H     H_    0.160915 0.232152 0.716005 0.129796
H10   H     H_    0.851276 0.204753 0.207685 0.136065
H11   H     H_    0.839563 0.703147 0.791574 0.126552
H12   H     H_    0.149991 0.699350 0.290169 0.134609
H13   H     H_    0.249310 0.208243 0.761935 0.180651
H14   H     H_    0.763804 0.224278 0.161416 0.127653
H15   H     H_    0.751044 0.682260 0.746617 0.182087
H16   H     H_    0.237745 0.712709 0.335915 0.124319
H17   H     H_    0.475941 0.808130 0.803113 0.155612
H18   H     H_    0.521644 0.203719 0.184132 0.160807
H19   H     H_    0.524736 0.267374 0.687394 0.156274
H20   H     H_    0.479940 0.630089 0.303222 0.162031
H21   H     H_    0.549273 0.797069 0.839160 0.159321
H22   H     H_    0.449033 0.134974 0.162345 0.162954
H23   H     H_    0.451548 0.335691 0.666638 0.161106
H24   H     H_    0.548319 0.716830 0.350297 0.160386
C85   C     C_R   0.752442 0.600475 0.091571 0.074341
C86   C     C_R   0.766559 0.517036 0.025109 -0.097508
C87   C     C_R   0.735154 0.394752 0.978505 -0.010491
C88   C     C_R   0.689583 0.355747 0.997801 -0.031404
C89   C     C_R   0.676539 0.429178 0.066384 -0.151242
C90   C     C_R   0.708255 0.547920 0.114181 -0.158835
H25   H     H_    0.800306 0.555959 0.006382 0.114047
H26   H     H_    0.745310 0.336107 0.925686 0.163837
H27   H     H_    0.664285 0.269207 0.959372 0.165445
H28   H     H_    0.641267 0.398632 0.081318 0.144267
H29   H     H_    0.696947 0.608528 0.165779 0.165936
C91   C     C_R   0.225694 0.923025 0.997541 0.099385
C92   C     C_R   0.209443 0.012834 0.060882 -0.049014
C93   C     C_R   0.224688 0.951949 0.138062 -0.117457
C94   C     C_R   0.255669 0.799784 0.152427 -0.033807
C95   C     C_R   0.271091 0.706561 0.089663 0.001701
C96   C     C_R   0.256432 0.768613 0.012251 -0.163422
H30   H     H_    0.185757 0.132460 0.050509 0.113253
H31   H     H_    0.212795 0.023437 0.186794 0.119716
H32   H     H_    0.267780 0.756221 0.212417 0.171249
H33   H     H_    0.294570 0.586898 0.100904 0.226450
H34   H     H_    0.268897 0.696828 0.964076 0.149572
C97   C     C_R   0.246304 0.093643 0.411965 0.076734
C98   C     C_R   0.232508 0.018784 0.480208 -0.098402
C99   C     C_R   0.263374 0.895540 0.527372 -0.008439
C100  C     C_R   0.307974 0.846393 0.506619 -0.019273
C101  C     C_R   0.320613 0.911202 0.436401 -0.160121
C102  C     C_R   0.289583 0.032310 0.388475 -0.159307
H35   H     H_    0.199495 0.064921 0.499629 0.114746
H36   H     H_    0.253540 0.843385 0.581479 0.164794
H37   H     H_    0.332778 0.758111 0.545064 0.170711
H38   H     H_    0.355004 0.871513 0.420119 0.141402
H39   H     H_    0.300549 0.086187 0.335473 0.171468
C103  C     C_R   0.773004 0.459113 0.498495 0.096370
C104  C     C_R   0.788098 0.562284 0.437716 -0.051041
C105  C     C_R   0.772574 0.513774 0.358879 -0.119817
C106  C     C_R   0.742490 0.360729 0.340241 -0.037915
C107  C     C_R   0.728033 0.255302 0.400396 0.001574
C108  C     C_R   0.742951 0.304743 0.479404 -0.165682
H40   H     H_    0.811244 0.682113 0.451462 0.115073
H41   H     H_    0.783727 0.595046 0.312241 0.124144
H42   H     H_    0.730369 0.325226 0.279081 0.166895
H43   H     H_    0.705136 0.135619 0.385971 0.230421
H44   H     H_    0.731339 0.222779 0.525467 0.158019
Br1   Br    Br    0.648484 0.736133 0.847101 -0.428127
Br2   Br    Br    0.348464 0.178317 0.155669 -0.434011
Br3   Br    Br    0.351911 0.279001 0.660959 -0.419847
Br4   Br    Br    0.647714 0.776853 0.357841 -0.432697
Br5   Br    Br    0.383383 0.781704 0.714919 -0.467497
Br6   Br    Br    0.614645 0.248181 0.270089 -0.507652
Br7   Br    Br    0.618085 0.234319 0.775426 -0.454188
Br8   Br    Br    0.387837 0.655775 0.213528 -0.500757

loop_
_geom_bond_atom_site_label_1
_geom_bond_atom_site_label_2
_ccdc_geom_bond_type
C102  H39   S    
O17   V3    S    
C47   C51   A    
C101  C102  A    
N1    C17   A    
O1    C5    A    
C92   C93   A    
C50   C82   A    
O13   V1    S    
C99   C100  A    
O3    C7    A    
C11   C12   D    
C14   C46   A    
C36   C103  S    
C44   C48   A    
O15   V3    S    
C51   C83   A    
C103  C104  A    
C34   C38   A    
C106  C107  A    
C42   C54   A    
O7    C3    A    
C66   C81   A    
C41   C53   A    
C32   C60   A    
C43   C72   A    
C34   C91   S    
C63   C71   A    
C91   C92   A    
C56   C79   A    
N3    C39   S    
C67   C84   A    
C18   C54   A    
C17   O26   S    
N2    C38   S    
C66   C70   A    
O4    C8    A    
C25   C57   A    
C31   C35   A    
O19   V1    S    
C100  C101  A    
C49   Br1   S    
C27   C59   A    
C23   H16   S    
O1    V3    S    
C15   C47   A    
C82   H22   S    
C62   C65   A    
O2    V4    S    
C14   O22   S    
C21   C37   A    
O3    V1    S    
C107  C108  A    
C19   C55   A    
C64   C76   A    
C85   C90   A    
C49   C81   A    
C1    O15   A    
C87   C88   A    
C2    O16   A    
C7    C9    S    
O2    C6    A    
C99   H36   S    
C33   C37   A    
C63   C68   A    
O14   V2    S    
C86   H25   S    
C43   C55   A    
C103  C108  A    
C31   H7    S    
C30   C58   A    
C16   N4    A    
O11   C7    A    
C61   C69   A    
O12   C8    A    
C35   C97   S    
C31   C59   A    
C26   H9    S    
C41   C70   A    
O10   V2    S    
C78   Br6   S    
C13   N1    A    
C45   C49   A    
C85   C86   A    
O5    V1    S    
C100  H37   S    
C22   H13   S    
C98   H35   S    
C50   Br2   S    
O7    V3    S    
O8    V4    S    
C20   O27   S    
C12   H4    S    
C88   C89   A    
C28   C60   A    
C81   H21   S    
C97   C98   A    
C64   C72   A    
O18   V4    S    
C83   H23   S    
N3    C19   A    
N4    C40   S    
C46   C50   A    
C24   C40   A    
C8    C10   S    
C76   C80   A    
C32   C36   A    
C44   C56   A    
C11   H3    S    
C89   H28   S    
C54   C77   A    
O5    C1    A    
C63   C75   A    
C62   C74   A    
C42   C46   A    
C33   C85   S    
C94   C95   A    
C24   H15   S    
C28   H11   S    
C41   C45   A    
C94   H32   S    
O8    C4    A    
C13   C45   A    
C9    C10   D    
O9    C5    A    
C36   C40   A    
C80   Br8   S    
C95   H33   S    
O11   V3    S    
C84   H24   S    
C1    C60   S    
C74   C78   A    
C22   C26   A    
C14   N2    A    
C73   C77   A    
C65   C82   A    
C3    C58   S    
C98   C99   A    
O6    V2    S    
C18   O25   S    
C75   H19   S    
C91   C96   A    
C75   C79   A    
C90   H29   S    
C26   C58   A    
C17   C53   A    
C93   C94   A    
N1    C37   S    
C21   H14   S    
C62   C70   A    
C88   H27   S    
C23   C39   A    
C105  C106  A    
C22   C38   A    
C51   Br3   S    
C86   C87   A    
O16   V4    S    
O9    V1    S    
C61   C66   A    
C52   Br4   S    
C65   C69   A    
C19   O28   S    
C3    O13   A    
C10   H2    S    
C67   C71   A    
C32   H8    S    
C93   H31   S    
C48   C52   A    
C16   C48   A    
O6    C2    A    
C106  H42   S    
C30   H6    S    
C21   C25   A    
C97   C102  A    
C5    C11   S    
O12   V4    S    
C6    C12   S    
C101  H38   S    
C23   C27   A    
C25   H10   S    
C24   C28   A    
C73   H17   S    
C95   C96   A    
O10   C6    A    
O20   V2    S    
C87   H26   S    
C29   H5    S    
N2    C18   A    
C108  H44   S    
C35   C39   A    
C15   N3    A    
C30   C34   A    
N4    C20   A    
C2    C59   S    
C29   C33   A    
C44   C71   A    
C29   C57   A    
C27   H12   S    
C42   C69   A    
C79   Br7   S    
C107  H43   S    
C74   H18   S    
C68   C83   A    
C61   C73   A    
C4    C57   S    
C9    H1    S    
C77   Br5   S    
C105  H41   S    
C96   H34   S    
C104  C105  A    
C43   C47   A    
C104  H40   S    
C68   C72   A    
C20   C56   A    
C53   C78   A    
C52   C84   A    
C4    O14   A    
C13   O21   S    
C55   C80   A    
C89   C90   A    
C15   O23   S    
C92   H30   S    
C64   C67   A    
O4    V2    S    
C16   O24   S    
C76   H20   S    
