data_str_m9_o11_o17_f0_sra.sym.80
_audit_creation_date              2012-12-11T14:19:35-0500
_audit_creation_method            fapswitch 2.2
_symmetry_space_group_name_H-M    P1
_symmetry_Int_Tables_number       1
_space_group_crystal_system       triclinic
_cell_length_a                    19.524168
_cell_length_b                    7.210847
_cell_length_c                    17.823167
_cell_angle_alpha                 90.000542
_cell_angle_beta                  107.853241
_cell_angle_gamma                 89.99862
_cell_volume                      2388.41554731

loop_
_atom_site_label
_atom_site_type_symbol
_atom_type_description
_atom_site_fract_x
_atom_site_fract_y
_atom_site_fract_z
_atom_type_partial_charge
O1    O     O_R   0.414820 0.494320 0.416790 -0.547776
O2    O     O_R   0.585180 0.994320 0.583210 -0.547787
O3    O     O_R   0.560270 0.819500 0.430140 -0.505201
O4    O     O_R   0.439730 0.319500 0.569860 -0.505209
C1    C     C_R   0.581332 0.655513 0.415154 0.772266
C2    C     C_R   0.418670 0.155517 0.584849 0.772239
O5    O     O_R   0.413840 0.823740 0.407440 -0.533409
O6    O     O_R   0.586160 0.323740 0.592560 -0.533396
O7    O     O_R   0.437710 0.998590 0.560350 -0.529771
O8    O     O_R   0.562290 0.498590 0.439650 -0.529760
C3    C     C_R   0.388050 0.655543 0.385093 0.778652
C4    C     C_R   0.611949 0.155541 0.614908 0.778604
O9    O     O_3   0.508000 0.662290 0.550200 -0.371759
O10   O     O_3   0.492000 0.162290 0.449800 -0.371752
V1    V     V_3+5 0.498520 0.935380 0.490690 1.571199
V2    V     V_3+5 0.501480 0.435380 0.509310 1.571219
C5    C     C_2   0.783355 0.262783 0.787225 0.387532
C6    C     C_2   0.216648 0.762783 0.212768 0.387552
C7    C     C_2   0.810929 0.110360 0.831925 -0.214201
C8    C     C_2   0.189071 0.610351 0.168077 -0.214262
C9    C     C_2   0.706097 0.269598 0.737014 -0.050411
C10   C     C_2   0.293905 0.769589 0.262981 -0.050423
C11   C     C_2   0.682071 0.146547 0.677122 -0.304092
C12   C     C_2   0.317927 0.646555 0.322881 -0.304072
H1    H     H_    0.718209 0.037058 0.670906 0.091681
H2    H     H_    0.281786 0.537086 0.329104 0.091669
C13   C     C_R   0.316943 0.289362 0.625595 0.417173
C14   C     C_R   0.683077 0.789349 0.374441 0.417289
C15   C     C_R   0.368518 0.148073 0.632881 -0.292365
C16   C     C_R   0.631505 0.648052 0.367149 -0.292528
C17   C     C_R   0.371523 0.999210 0.685217 0.393105
C18   C     C_R   0.628542 0.499127 0.314853 0.393139
C19   C     C_R   0.320895 0.987105 0.727803 -0.095547
C20   C     C_R   0.679206 0.486973 0.272316 -0.095654
C21   C     C_R   0.271412 0.134714 0.723033 -0.134187
C22   C     C_R   0.728679 0.634597 0.277081 -0.134297
C23   C     C_R   0.270357 0.285429 0.672358 0.034281
C24   C     C_R   0.729697 0.785366 0.327718 0.034654
C25   C     C_R   0.319057 0.831088 0.775126 0.492501
C26   C     C_R   0.681094 0.330888 0.225048 0.492551
C27   C     C_R   0.271267 0.830272 0.820007 -0.293042
C28   C     C_R   0.728911 0.330036 0.180200 -0.292777
C29   C     C_R   0.225582 0.981217 0.820266 0.022088
C30   C     C_R   0.774552 0.481044 0.179897 0.022156
C31   C     C_R   0.222607 0.131218 0.768375 0.075958
C32   C     C_R   0.777505 0.631075 0.231765 0.075732
C33   C     C_R   0.170667 0.275402 0.760766 0.021267
C34   C     C_R   0.829434 0.775272 0.239369 0.021714
C35   C     C_R   0.169403 0.421995 0.705958 -0.062759
C36   C     C_R   0.830742 0.921758 0.294245 -0.063172
C37   C     C_R   0.220703 0.428227 0.666247 -0.119205
C38   C     C_R   0.779378 0.928108 0.333870 -0.119807
C39   C     C_R   0.181717 0.980021 0.870244 -0.046659
C40   C     C_R   0.818381 0.479903 0.129882 -0.046583
C41   C     C_R   0.128680 0.119012 0.862933 -0.175317
C42   C     C_R   0.871367 0.619004 0.137128 -0.175598
C43   C     C_R   0.122600 0.265442 0.807512 -0.101924
C44   C     C_R   0.877425 0.765487 0.192529 -0.101657
H3    H     H_    0.268023 0.706322 0.852800 0.143449
H4    H     H_    0.732191 0.206040 0.147448 0.143406
H5    H     H_    0.219415 0.544022 0.626952 0.162404
H6    H     H_    0.780677 0.043862 0.373188 0.162222
O11   O     O_R   0.937810 0.773680 0.060480 -0.538386
O12   O     O_R   0.062190 0.273680 0.939520 -0.538569
O13   O     O_R   0.086190 0.439740 0.092580 -0.563929
O14   O     O_R   0.913810 0.939740 0.907420 -0.563935
C45   C     C_R   0.114211 0.607674 0.112488 0.732070
C46   C     C_R   0.885789 0.107676 0.887513 0.732071
O15   O     O_R   0.939760 0.444210 0.069890 -0.559396
O16   O     O_R   0.060240 0.944210 0.930110 -0.559386
O17   O     O_R   0.914790 0.269640 0.916760 -0.489803
O18   O     O_R   0.085210 0.769640 0.083240 -0.489685
C47   C     C_R   0.919313 0.612349 0.085337 0.726732
C48   C     C_R   0.080699 0.112343 0.914679 0.726637
O19   O     O_3   0.992050 0.601530 0.949880 -0.375489
O20   O     O_3   0.007950 0.101530 0.050120 -0.375275
V3    V     V_3+5 0.001480 0.328340 0.009300 1.507971
V4    V     V_3+5 0.998520 0.828340 0.990700 1.508065
O21   O     O_3   0.826626 0.419789 0.794377 -0.540338
C49   C     C_3   0.816565 0.505458 0.720554 -0.193473
H7    H     H_    0.860873 0.606147 0.726478 0.186637
H8    H     H_    0.765320 0.584727 0.701929 0.087477
H9    H     H_    0.818670 0.403196 0.674461 0.143616
O22   O     O_3   0.173382 0.919808 0.205605 -0.540298
C50   C     C_3   0.183436 0.005487 0.279424 -0.193349
H10   H     H_    0.139132 0.106204 0.273489 0.186713
H11   H     H_    0.234686 0.084727 0.298060 0.087437
H12   H     H_    0.181315 0.903235 0.325515 0.143575
C51   C     C_2   0.066249 0.407811 0.800538 0.534702
H13   H     H_    0.081182 0.551618 0.814380 -0.020879
O23   O     O_2   0.002703 0.364565 0.779212 -0.506194
C52   C     C_2   0.933566 0.908317 0.199287 0.535315
H14   H     H_    0.918434 0.052074 0.185599 -0.021410
O24   O     O_2   0.997165 0.865561 0.220345 -0.505943
C53   C     C_2   0.114457 0.569507 0.682697 0.354058
H15   H     H_    0.130195 0.713659 0.694052 0.051525
O25   O     O_2   0.052318 0.531623 0.645709 -0.489684
C54   C     C_2   0.885873 0.068793 0.317801 0.354262
H16   H     H_    0.870223 0.213227 0.307255 0.051745
O26   O     O_2   0.948076 0.030112 0.354239 -0.489731
C55   C     C_2   0.766534 0.942037 0.833333 0.285239
H17   H     H_    0.791849 0.806588 0.844321 0.102896
O27   O     O_2   0.702539 0.953286 0.826720 -0.517622
C56   C     C_2   0.233463 0.442009 0.166667 0.285330
H18   H     H_    0.208145 0.306565 0.155698 0.102910
O28   O     O_2   0.297458 0.453235 0.173294 -0.517604
C57   C     C_2   0.660006 0.412024 0.758070 0.447418
H19   H     H_    0.685003 0.531363 0.792868 0.077583
O29   O     O_2   0.594923 0.392931 0.741432 -0.530492
C58   C     C_2   0.340001 0.911987 0.241919 0.447490
H20   H     H_    0.315008 0.031320 0.207113 0.077642
O30   O     O_2   0.405084 0.892876 0.258561 -0.530506
O31   O     O_3   0.313100 0.435296 0.573851 -0.525934
C59   C     C_3   0.265834 0.385563 0.499351 -0.238955
H21   H     H_    0.211529 0.347623 0.502585 0.140884
H22   H     H_    0.288231 0.270111 0.472698 0.106640
H23   H     H_    0.259049 0.507043 0.459613 0.150886
O32   O     O_3   0.686894 0.935320 0.426164 -0.525859
C60   C     C_3   0.734128 0.885617 0.500688 -0.239018
H24   H     H_    0.788437 0.847549 0.497494 0.140734
H25   H     H_    0.711690 0.770258 0.527349 0.106678
H26   H     H_    0.740925 0.007158 0.540399 0.150881
O33   O     O_3   0.423947 0.864421 0.693964 -0.507555
C61   C     C_3   0.486649 0.922184 0.753113 -0.061421
H27   H     H_    0.527748 0.811258 0.762005 0.182512
H28   H     H_    0.476177 0.944646 0.810423 0.106014
H29   H     H_    0.509636 0.049966 0.735372 0.123499
O34   O     O_3   0.576125 0.364324 0.306098 -0.507519
C62   C     C_3   0.513440 0.422024 0.246905 -0.061570
H30   H     H_    0.472331 0.311129 0.238047 0.182514
H31   H     H_    0.523939 0.444308 0.189595 0.106010
H32   H     H_    0.490452 0.549901 0.264579 0.123487
O35   O     O_3   0.358001 0.672871 0.769209 -0.518317
C63   C     C_3   0.393408 0.595099 0.843744 -0.180599
H33   H     H_    0.357184 0.497210 0.861354 0.134919
H34   H     H_    0.414725 0.702296 0.890074 0.122902
H35   H     H_    0.440047 0.513563 0.838893 0.175223
O36   O     O_3   0.642163 0.172664 0.230978 -0.518277
C64   C     C_3   0.606755 0.094878 0.156432 -0.180498
H36   H     H_    0.642986 0.996964 0.138823 0.134900
H37   H     H_    0.585431 0.202079 0.110091 0.122868
H38   H     H_    0.560114 0.013352 0.161283 0.175177
C65   C     C_2   0.196007 0.840827 0.934829 0.366627
H39   H     H_    0.157346 0.732263 0.933900 0.041577
O37   O     O_2   0.252380 0.845513 0.988874 -0.517361
C66   C     C_2   0.804048 0.340752 0.065275 0.366535
H40   H     H_    0.842723 0.232266 0.066122 0.041700
O38   O     O_2   0.747616 0.345378 0.011299 -0.517370

loop_
_geom_bond_atom_site_label_1
_geom_bond_atom_site_label_2
_ccdc_geom_bond_type
O14   C46   A    
C55   H17   S    
C7    C55   S    
C13   C15   A    
C57   O29   D    
O12   V3    S    
C8    C45   S    
O15   V3    S    
C53   H15   S    
O1    C3    A    
O2    C4    A    
O34   C62   S    
C2    O7    A    
C56   O28   D    
C59   H21   S    
O33   C61   S    
C33   C35   A    
C50   H10   S    
O5    C3    A    
C4    C11   S    
C19   C25   A    
C43   C51   S    
C20   C26   A    
C21   C23   A    
C12   H2    S    
C62   H30   S    
C23   C37   A    
C64   H38   S    
C60   H26   S    
O16   V4    S    
C65   H39   S    
C3    C12   S    
C5    O21   S    
C45   O18   A    
C31   C33   A    
C58   H20   S    
O18   V4    S    
O31   C59   S    
C5    C7    D    
O32   C60   S    
C41   C48   S    
C29   C39   A    
C10   C58   S    
C26   O36   S    
O16   C48   A    
C36   C38   A    
C57   H19   S    
C17   C19   A    
O15   C47   A    
C51   O23   D    
C20   C22   A    
C40   C66   S    
C62   H32   S    
C34   C36   A    
O6    V2    S    
C27   C29   A    
C28   C30   A    
C63   H35   S    
C49   H9    S    
C56   H18   S    
C30   C32   A    
C66   O38   D    
O20   V3    S    
C50   H11   S    
C9    C11   D    
O14   V4    S    
C64   H36   S    
C40   C42   A    
C36   C54   S    
O13   V3    S    
O22   C50   S    
C27   H3    S    
O4    C2    A    
C28   H4    S    
C63   H34   S    
O5    V1    S    
O11   C47   A    
O13   C45   A    
C38   H6    S    
C5    C9    S    
C35   C37   A    
C39   C65   S    
C18   C20   A    
O4    V2    S    
C33   C43   A    
C6    O22   S    
C14   C24   A    
O6    C4    A    
C52   O24   D    
C7    C46   S    
O1    V2    S    
C35   C53   S    
C22   C32   A    
O2    V1    S    
C29   C31   A    
C9    C57   S    
C60   H25   S    
C61   H29   S    
C13   O31   S    
C49   H8    S    
C54   O26   D    
C41   C43   A    
O35   C63   S    
C10   C12   D    
C39   C41   A    
C22   C24   A    
C21   C31   A    
O17   V3    S    
O3    V1    S    
C61   H28   S    
C66   H40   S    
C25   O35   S    
C50   H12   S    
C65   O37   D    
C42   C47   S    
C6    C10   S    
C49   H7    S    
O3    C1    A    
C59   H22   S    
C60   H24   S    
C53   O25   D    
C34   C44   A    
C63   H33   S    
C8    C56   S    
C18   O34   S    
C14   C16   A    
O7    V1    S    
C17   O33   S    
C1    O8    A    
C15   C17   A    
O8    V2    S    
C16   C18   A    
C37   H5    S    
C64   H37   S    
C13   C23   A    
C46   O17   A    
C26   C28   A    
C52   H14   S    
C19   C21   A    
C42   C44   A    
C6    C8    D    
C11   H1    S    
O19   V4    S    
C58   O30   D    
C59   H23   S    
O36   C64   S    
O21   C49   S    
C32   C34   A    
C30   C40   A    
C2    C15   S    
C24   C38   A    
C25   C27   A    
C55   O27   D    
C54   H16   S    
C1    C16   S    
O9    V2    S    
O12   C48   A    
O10   V1    S    
C14   O32   S    
C51   H13   S    
C44   C52   S    
C61   H27   S    
C62   H31   S    
O11   V4    S    
