data_str_m9_o2_o20_f0_sra.sym.66
_audit_creation_date              2012-12-11T16:29:32-0500
_audit_creation_method            fapswitch 2.2
_symmetry_space_group_name_H-M    P1
_symmetry_Int_Tables_number       1
_space_group_crystal_system       triclinic
_cell_length_a                    6.950445
_cell_length_b                    17.298064
_cell_length_c                    18.783345
_cell_angle_alpha                 106.223244
_cell_angle_beta                  89.802828
_cell_angle_gamma                 90.549769
_cell_volume                      2168.28199942

loop_
_atom_site_label
_atom_site_type_symbol
_atom_type_description
_atom_site_fract_x
_atom_site_fract_y
_atom_site_fract_z
_atom_type_partial_charge
O1    O     O_R   0.494360 0.415680 0.413760 -0.538082
O2    O     O_R   0.818810 0.432910 0.557230 -0.514318
O3    O     O_R   0.994290 0.584320 0.586240 -0.535075
C1    C     C_R   0.649910 0.415988 0.580646 0.718107
O4    O     O_R   0.823740 0.406440 0.412520 -0.535033
O5    O     O_R   0.999250 0.557660 0.440500 -0.526958
C2    C     C_R   0.653930 0.383483 0.385139 0.687561
O6    O     O_R   0.489400 0.442340 0.559500 -0.511808
O7    O     O_3   0.662500 0.549650 0.509350 -0.367434
V1    V     V_3+5 0.935340 0.490790 0.498270 1.454816
O8    O     O_R   0.329270 0.567090 0.442770 -0.526809
C3    C     C_R   0.161099 0.584241 0.419549 0.697302
O9    O     O_R   0.324340 0.593560 0.587480 -0.536828
C4    C     C_R   0.155458 0.614779 0.616145 0.705075
V2    V     V_3+5 0.435970 0.509210 0.501730 1.437867
O10   O     O_3   0.158940 0.450350 0.490650 -0.345750
C5    C     C_R   0.141250 0.586472 0.766348 -0.180538
C6    C     C_R   0.126346 0.575252 0.837385 0.367996
C7    C     C_R   0.151639 0.640390 0.899716 -0.177977
C8    C     C_R   0.180278 0.717944 0.892090 0.295356
C9    C     C_R   0.150399 0.733668 0.822160 -0.040257
C10   C     C_R   0.146047 0.666385 0.756980 -0.078699
C11   C     C_R   0.121087 0.813831 0.816472 -0.149263
C12   C     C_R   0.091386 0.826850 0.745234 -0.038092
C13   C     C_R   0.110242 0.760578 0.680471 -0.029454
C14   C     C_R   0.143139 0.681550 0.685905 -0.086456
C15   C     C_R   0.042994 0.904044 0.735673 0.308699
C16   C     C_R   0.999378 0.911486 0.664511 -0.168589
C17   C     C_R   0.024230 0.846681 0.601790 0.408314
C18   C     C_R   0.088023 0.773575 0.609865 -0.258557
H1    H     H_    0.112628 0.726164 0.559358 0.123382
C19   C     C_1   0.111510 0.864622 0.133238 -0.156324
C20   C     C_1   0.118849 0.822187 0.176930 0.039206
C21   C     C_1   0.128054 0.772147 0.228969 0.048865
C22   C     C_1   0.135984 0.729940 0.272857 0.026760
C23   C     C_1   0.145429 0.679627 0.324658 0.020652
C24   C     C_1   0.153096 0.636728 0.367946 -0.206694
C25   C     C_1   0.641538 0.363976 0.632599 -0.177470
C26   C     C_1   0.637444 0.321193 0.676011 0.017743
C27   C     C_1   0.634002 0.270603 0.727580 0.012220
C28   C     C_1   0.631302 0.227967 0.771136 0.025497
C29   C     C_1   0.627636 0.177454 0.822779 0.019554
C30   C     C_1   0.623293 0.134801 0.866302 -0.176783
C31   C     C_R   0.548048 0.406019 0.244186 -0.249100
C32   C     C_R   0.525956 0.421780 0.175795 0.490949
C33   C     C_R   0.582570 0.364092 0.111732 -0.208736
C34   C     C_R   0.639656 0.287762 0.114699 -0.118398
C35   C     C_R   0.621038 0.265360 0.181895 0.027094
C36   C     C_R   0.600022 0.328507 0.248400 0.002173
C37   C     C_R   0.627913 0.183790 0.185063 -0.155543
C38   C     C_R   0.649573 0.167480 0.255797 0.025780
C39   C     C_R   0.666289 0.234321 0.320914 0.009003
C40   C     C_R   0.639447 0.314241 0.317205 -0.112416
C41   C     C_R   0.659916 0.087643 0.265116 -0.160549
C42   C     C_R   0.698496 0.076790 0.335573 -0.132118
C43   C     C_R   0.717225 0.143073 0.397731 0.455843
C44   C     C_R   0.702736 0.220435 0.390116 -0.236294
H2    H     H_    0.523027 0.455136 0.293405 0.131060
H3    H     H_    0.593143 0.380728 0.060288 0.147204
H4    H     H_    0.719334 0.269657 0.440025 0.120607
O11   O     O_R   0.775690 0.057750 0.940570 -0.490354
O12   O     O_R   0.441200 0.093570 0.087490 -0.534425
O13   O     O_R   0.265840 0.942320 0.059480 -0.509880
C45   C     C_R   0.611458 0.117269 0.114779 0.725408
O14   O     O_R   0.446270 0.067110 0.942790 -0.549225
O15   O     O_R   0.270950 0.915660 0.913750 -0.535740
C46   C     C_R   0.614919 0.083095 0.918564 0.737473
O16   O     O_R   0.770580 0.084400 0.086300 -0.529331
O17   O     O_3   0.602640 0.950400 0.990690 -0.371119
V3    V     V_3+5 0.329740 0.009200 0.001730 1.469580
O18   O     O_R   0.940900 0.906360 0.912450 -0.534285
C47   C     C_R   0.110005 0.882781 0.885157 0.881037
O19   O     O_R   0.935830 0.932820 0.057160 -0.527113
C48   C     C_R   0.103811 0.916468 0.081068 0.775639
V4    V     V_3+5 0.829130 0.990680 0.998180 1.501795
O20   O     O_3   0.106100 0.049590 0.009310 -0.356548
O21   O     O_3   0.996397 0.856510 0.531860 -0.541278
C49   C     C_3   0.828666 0.814038 0.500572 -0.169403
H5    H     H_    0.701237 0.833372 0.537138 0.126338
H6    H     H_    0.848092 0.747850 0.488017 0.118485
H7    H     H_    0.798867 0.827481 0.447326 0.193648
O22   O     O_3   0.476847 0.497744 0.172403 -0.550193
C50   C     C_3   0.274543 0.502692 0.173654 -0.186294
H8    H     H_    0.214433 0.495765 0.226575 0.114127
H9    H     H_    0.209208 0.457253 0.125499 0.144262
H10   H     H_    0.233594 0.563068 0.169473 0.189448
C51   C     C_1   0.768187 0.246282 0.056533 0.277112
N1    N     N_1   0.877059 0.215903 0.010821 -0.343313
C52   C     C_1   0.625746 0.014885 0.205545 0.276780
N2    N     N_1   0.598471 0.955821 0.159153 -0.339275
C53   C     C_1   0.717873 0.996952 0.345367 0.385427
N3    N     N_1   0.733384 0.933247 0.353121 -0.347398
C54   C     C_1   0.146393 0.512932 0.706128 0.338626
N4    N     N_1   0.150681 0.453158 0.659159 -0.319948
O23   O     O_3   0.107581 0.498436 0.845845 -0.544081
C55   C     C_3   0.909738 0.480112 0.847853 -0.188266
H11   H     H_    0.836488 0.480551 0.795353 0.125969
H12   H     H_    0.837273 0.522304 0.895997 0.128672
H13   H     H_    0.894084 0.418539 0.854303 0.172701
C56   C     C_1   0.154281 0.627369 0.972533 0.415958
N5    N     N_1   0.156365 0.617019 0.030790 -0.360522
O24   O     O_3   0.241558 0.777426 0.953633 -0.575525
C57   C     C_3   0.443577 0.771725 0.958983 -0.157540
H14   H     H_    0.516836 0.788841 0.912766 0.131700
H15   H     H_    0.490045 0.710615 0.959930 0.106841
H16   H     H_    0.492036 0.813752 0.012018 0.180273
O25   O     O_3   0.020914 0.971178 0.795719 -0.564411
C58   C     C_3   0.184184 0.021590 0.800674 -0.195965
H17   H     H_    0.194459 0.047791 0.753146 0.130481
H18   H     H_    0.319243 0.989029 0.804748 0.113825
H19   H     H_    0.170371 0.072655 0.851422 0.176623
C59   C     C_1   0.922941 0.985781 0.655765 0.416986
N6    N     N_1   0.861636 0.045195 0.648769 -0.351067
O26   O     O_3   0.759336 0.132367 0.466292 -0.544998
C60   C     C_3   0.588224 0.140736 0.508238 -0.176627
H20   H     H_    0.478460 0.095026 0.480469 0.140559
H21   H     H_    0.528659 0.202436 0.519149 0.119163
H22   H     H_    0.621244 0.130694 0.562681 0.190906

loop_
_geom_bond_atom_site_label_1
_geom_bond_atom_site_label_2
_ccdc_geom_bond_type
C31   C36   A    
O18   V4    S    
C42   C43   A    
C54   N4    T    
C33   H3    S    
C37   C45   S    
C28   C29   S    
O23   C55   S    
C12   C15   A    
C1    O6    A    
O26   C60   S    
O15   V3    S    
O21   C49   S    
O11   V4    S    
O16   V4    S    
C16   C17   A    
C45   O16   A    
C23   C24   T    
C6    C7    A    
O5    C3    A    
C18   H1    S    
C49   H6    S    
C32   O22   S    
C8    O24   S    
V2    O10   S    
C55   H13   S    
C58   H17   S    
O12   V3    S    
C21   C22   T    
O19   C48   A    
C3    C24   S    
C42   C53   S    
C41   C42   A    
O8    V2    S    
O15   C47   A    
C50   H8    S    
C31   H2    S    
O14   C46   A    
C55   H12   S    
O12   C45   A    
O25   C58   S    
O1    V2    S    
O7    V1    S    
C35   C37   A    
O9    C4    A    
C6    O23   S    
O19   V4    S    
O17   V3    S    
C59   N6    T    
C5    C6    A    
C38   C39   A    
C12   C13   A    
C41   C52   S    
C26   C27   S    
O4    C2    A    
C49   H5    S    
C44   H4    S    
C37   C38   A    
C13   C14   A    
C32   C33   A    
C16   C59   S    
C22   C23   S    
C34   C51   S    
O14   V3    S    
O2    C1    A    
V4    O20   S    
C17   C18   A    
O11   C46   A    
C34   C35   A    
O13   V3    S    
C15   O25   S    
C11   C12   A    
C60   H22   S    
C55   H11   S    
C20   C21   S    
C57   H15   S    
C4    C14   S    
O3    C4    A    
C35   C36   A    
C50   H9    S    
C1    C25   S    
O6    V2    S    
C9    C11   A    
V3    O20   S    
C5    C54   S    
C43   C44   A    
C2    C40   S    
O2    V1    S    
C53   N3    T    
C39   C40   A    
C13   C18   A    
C60   H21   S    
C33   C34   A    
C27   C28   T    
O1    C2    A    
C11   C47   S    
C31   C32   A    
O5    V1    S    
C7    C56   S    
O13   C48   A    
C5    C10   A    
C58   H19   S    
C38   C41   A    
C19   C20   T    
C7    C8    A    
O9    V2    S    
O7    V2    S    
O18   C47   A    
O3    V1    S    
V1    O10   S    
C19   C48   S    
C49   H7    S    
C25   C26   T    
C36   C40   A    
C56   N5    T    
C58   H18   S    
O17   V4    S    
C57   H16   S    
O24   C57   S    
C39   C44   A    
C10   C14   A    
O4    V1    S    
C50   H10   S    
C17   O21   S    
C8    C9    A    
C51   N1    T    
C30   C46   S    
O22   C50   S    
C29   C30   T    
C57   H14   S    
C43   O26   S    
C52   N2    T    
C9    C10   A    
C60   H20   S    
O8    C3    A    
C15   C16   A    
