data_str_m3_o14_o14_f0_pcu.sym.168
_audit_creation_date              2013-03-05T15:52:19-0500
_audit_creation_method            fapswitch 2.2
_symmetry_space_group_name_H-M    P1
_symmetry_Int_Tables_number       1
_space_group_crystal_system       triclinic
_cell_length_a                    14.741772
_cell_length_b                    15.4923
_cell_length_c                    9.967353
_cell_angle_alpha                 89.828718
_cell_angle_beta                  91.091888
_cell_angle_gamma                 90.553815
_cell_volume                      2275.8548676

loop_
_atom_site_label
_atom_site_type_symbol
_atom_site_description
_atom_site_fract_x
_atom_site_fract_y
_atom_site_fract_z
_atom_type_partial_charge
O1    O     O_R   0.408390 0.908380 0.614690 -0.612351
O2    O     O_R   0.408390 0.091620 0.614690 -0.629974
O3    O     O_R   0.908390 0.408380 0.614690 -0.612258
O4    O     O_R   0.908390 0.591620 0.614690 -0.629818
O5    O     O_R   0.408370 0.908380 0.385360 -0.606819
O6    O     O_R   0.408370 0.091620 0.385360 -0.614388
O7    O     O_R   0.908370 0.408380 0.385360 -0.606849
O8    O     O_R   0.908370 0.591620 0.385360 -0.614312
C1    C     C_R   0.380668 0.880355 0.499686 0.859484
C2    C     C_R   0.384276 0.122915 0.500124 0.860043
C3    C     C_R   0.880694 0.380328 0.499688 0.859550
C4    C     C_R   0.884240 0.622888 0.500114 0.859927
Zn1   Zn    Zn3+2 0.500010 1.000000 0.653130 0.928372
Zn2   Zn    Zn3+2 0.000010 0.500000 0.653130 0.928449
Zn3   Zn    Zn3+2 0.499980 1.000000 0.346870 0.940435
Zn4   Zn    Zn3+2 0.999980 0.500000 0.346870 0.940423
O9    O     O_R   0.591620 0.091610 0.614640 -0.636807
O10   O     O_R   0.591620 0.908390 0.614640 -0.632481
O11   O     O_R   0.091620 0.591610 0.614640 -0.636797
O12   O     O_R   0.091620 0.408390 0.614640 -0.632601
O13   O     O_R   0.591610 0.091610 0.385310 -0.618046
O14   O     O_R   0.591610 0.908390 0.385310 -0.603595
O15   O     O_R   0.091610 0.591610 0.385310 -0.617961
O16   O     O_R   0.091610 0.408390 0.385310 -0.603590
C5    C     C_R   0.619755 0.119522 0.499812 0.870243
C6    C     C_R   0.622242 0.882508 0.501500 0.848402
C7    C     C_R   0.119792 0.619490 0.499820 0.870201
C8    C     C_R   0.122255 0.382516 0.501511 0.848459
C9    C     C_R   0.407326 0.266071 0.689895 -0.183035
C10   C     C_R   0.434493 0.708147 0.573348 -0.175486
C11   C     C_R   0.907675 0.766413 0.689041 -0.183102
C12   C     C_R   0.934626 0.207901 0.572009 -0.175621
H1    H     H_    0.464583 0.223395 0.686117 0.170428
H2    H     H_    0.485981 0.757810 0.584898 0.146527
H3    H     H_    0.964862 0.723645 0.685258 0.170298
H4    H     H_    0.986114 0.257540 0.583810 0.146182
C13   C     C_R   0.412143 0.329669 0.787748 -0.146040
C14   C     C_R   0.460476 0.622727 0.593347 -0.144665
C15   C     C_R   0.912774 0.830309 0.786412 -0.145905
C16   C     C_R   0.960666 0.122404 0.590993 -0.144767
H5    H     H_    0.469719 0.332809 0.856690 0.136180
H6    H     H_    0.530297 0.607906 0.619216 0.142340
H7    H     H_    0.970523 0.833618 0.855013 0.136128
H8    H     H_    0.030549 0.107494 0.616316 0.142395
C17   C     C_R   0.844492 0.890595 0.794235 -0.153249
C18   C     C_R   0.897305 0.056126 0.573223 -0.136786
C19   C     C_R   0.343822 0.389896 0.795594 -0.153835
C20   C     C_R   0.397144 0.556391 0.575929 -0.137129
H9    H     H_    0.848992 0.941111 0.869009 0.140003
H10   H     H_    0.918490 0.989652 0.582273 0.157383
H11   H     H_    0.348108 0.440192 0.870748 0.139960
H12   H     H_    0.418302 0.489957 0.585828 0.157476
C21   C     C_R   0.771993 0.888376 0.702741 -0.181832
C22   C     C_R   0.806928 0.075500 0.542600 -0.176612
C23   C     C_R   0.271588 0.387935 0.703631 -0.181810
C24   C     C_R   0.306854 0.575654 0.544510 -0.176414
H13   H     H_    0.725183 0.940592 0.712337 0.168647
H14   H     H_    0.759851 0.022711 0.525738 0.118701
H15   H     H_    0.224817 0.440154 0.713301 0.168761
H16   H     H_    0.259824 0.522808 0.527874 0.118657
C25   C     C_R   0.764003 0.822977 0.602790 0.059169
C26   C     C_R   0.779016 0.161952 0.526825 0.048967
C27   C     C_R   0.263827 0.322790 0.603235 0.059423
C28   C     C_R   0.278980 0.662042 0.527700 0.048993
C29   C     C_R   0.332073 0.260064 0.598935 0.096362
C30   C     C_R   0.344162 0.728108 0.535236 0.100173
C31   C     C_R   0.832222 0.760222 0.598495 0.096214
C32   C     C_R   0.844223 0.227989 0.534517 0.100229
C33   C     C_R   0.323369 0.193677 0.502476 -0.152615
C34   C     C_R   0.317330 0.811944 0.499636 -0.138295
C35   C     C_R   0.823299 0.693625 0.502433 -0.152480
C36   C     C_R   0.817331 0.311933 0.499638 -0.138128
C37   C     C_R   0.250761 0.189313 0.412818 -0.230715
C38   C     C_R   0.229294 0.831493 0.459096 -0.249768
C39   C     C_R   0.750491 0.689074 0.413144 -0.230620
C40   C     C_R   0.729213 0.331603 0.459663 -0.249845
C41   C     C_R   0.684783 0.750678 0.411255 0.172599
C42   C     C_R   0.663734 0.267836 0.456035 0.178652
C43   C     C_R   0.185029 0.250880 0.410948 0.172449
C44   C     C_R   0.163846 0.767703 0.455455 0.178569
C45   C     C_R   0.691534 0.818453 0.505454 -0.138673
C46   C     C_R   0.688267 0.184147 0.496802 -0.115728
C47   C     C_R   0.191566 0.318468 0.505499 -0.138858
C48   C     C_R   0.188306 0.684119 0.496851 -0.115877
C49   C     C_R   0.345625 0.939278 0.131976 0.244865
C50   C     C_R   0.845607 0.439318 0.131986 0.244725
C51   C     C_R   0.295152 0.875124 0.065032 -0.264452
C52   C     C_R   0.795124 0.375170 0.065052 -0.264414
C53   C     C_R   0.292214 0.877074 0.924935 0.151478
C54   C     C_R   0.792181 0.377117 0.924958 0.151417
C55   C     C_R   0.343076 0.941998 0.860099 0.255342
C56   C     C_R   0.843057 0.442027 0.860105 0.255308
C57   C     C_R   0.424166 0.970613 0.926093 0.057131
C58   C     C_R   0.924152 0.470641 0.926095 0.057195
C59   C     C_R   0.425039 0.969382 0.069654 0.090088
C60   C     C_R   0.925020 0.469422 0.069657 0.090084
N1    N     N_R   0.498810 1.000000 0.142780 -0.105584
N2    N     N_R   0.998810 0.500000 0.142780 -0.105586
C61   C     C_R   0.572395 0.028721 0.073217 -0.113226
C62   C     C_R   0.072410 0.528681 0.073220 -0.113318
H17   H     H_    0.632034 0.051292 0.878950 0.139302
H18   H     H_    0.132063 0.551211 0.878965 0.139255
C63   C     C_R   0.572489 0.028431 0.930498 -0.120636
C64   C     C_R   0.072503 0.528391 0.930503 -0.120683
N3    N     N_R   0.498740 1.000000 0.857170 -0.104141
N4    N     N_R   0.998740 0.500000 0.857170 -0.104104
H19   H     H_    0.243460 0.135717 0.345533 0.160340
H20   H     H_    0.211307 0.896972 0.432440 0.135980
H21   H     H_    0.743034 0.635321 0.346175 0.160074
H22   H     H_    0.711199 0.397153 0.433451 0.135803
C65   C     C_3   0.220001 0.825667 0.851499 -0.893698
H23   H     H_    0.231094 0.755708 0.868895 0.244316
H24   H     H_    0.151958 0.843214 0.888116 0.228982
H25   H     H_    0.221591 0.838015 0.742068 0.259993
C66   C     C_3   0.719939 0.325729 0.851554 -0.893754
H26   H     H_    0.721555 0.338039 0.742118 0.260103
H27   H     H_    0.730982 0.255767 0.869011 0.244218
H28   H     H_    0.651900 0.343333 0.888138 0.229076
C67   C     C_3   0.286316 0.007739 0.784566 -0.798771
H29   H     H_    0.280471 0.993173 0.676190 0.242700
H30   H     H_    0.215874 0.008399 0.822536 0.207143
H31   H     H_    0.312652 0.074131 0.802453 0.245429
C68   C     C_3   0.786306 0.507762 0.784545 -0.798805
H32   H     H_    0.780474 0.493188 0.676172 0.242695
H33   H     H_    0.715860 0.508424 0.822489 0.207104
H34   H     H_    0.812637 0.574156 0.802434 0.245404
C69   C     C_3   0.607675 0.740158 0.309249 -0.839032
H35   H     H_    0.541114 0.747929 0.357173 0.239575
H36   H     H_    0.615069 0.788320 0.227419 0.260325
H37   H     H_    0.606914 0.675299 0.261899 0.217768
C70   C     C_3   0.569618 0.289586 0.404802 -0.891328
H38   H     H_    0.519106 0.272832 0.481000 0.223700
H39   H     H_    0.562741 0.359392 0.381230 0.231420
H40   H     H_    0.553972 0.252783 0.311679 0.255549
C71   C     C_3   0.108120 0.240482 0.308565 -0.838899
H41   H     H_    0.041453 0.248139 0.356220 0.239760
H42   H     H_    0.115660 0.288768 0.226939 0.260323
H43   H     H_    0.107474 0.175697 0.260974 0.217686
C72   C     C_3   0.069837 0.789323 0.403598 -0.890919
H44   H     H_    0.019109 0.772641 0.479530 0.223700
H45   H     H_    0.062971 0.859094 0.379744 0.231190
H46   H     H_    0.054478 0.752386 0.310505 0.255677
H47   H     H_    0.631856 0.051886 0.127753 0.148761
H48   H     H_    0.131885 0.551812 0.127756 0.148732
C73   C     C_3   0.288196 0.004933 0.200189 -0.845158
H49   H     H_    0.313600 0.070995 0.177439 0.240333
H50   H     H_    0.216757 0.002748 0.162116 0.204968
H51   H     H_    0.285917 0.994083 0.309111 0.244371
C74   C     C_3   0.788188 0.504936 0.200301 -0.844721
H52   H     H_    0.813637 0.571016 0.177782 0.240525
H53   H     H_    0.716774 0.502837 0.162111 0.204910
H54   H     H_    0.785820 0.493937 0.309188 0.244241
H55   H     H_    0.241979 0.840846 0.117547 0.181428
H56   H     H_    0.741948 0.340900 0.117575 0.181423

loop_
_geom_bond_atom_site_label_1
_geom_bond_atom_site_label_2
_geom_bond_distance
_ccdc_geom_bond_type
C53   C65   1.503571 S    
C71   H43   1.111278 S    
C61   C63   1.422584 A    
C27   C29   1.406814 A    
C15   C17   1.383192 A    
C23   H15   1.073747 S    
C49   C59   1.410443 A    
C65   H23   1.110267 S    
O10   C6    1.289140 A    
O3    C3    1.284989 A    
C44   C48   1.406142 A    
C70   H40   1.110082 S    
C64   N4    1.368410 A    
C73   H49   1.110654 S    
C68   H32   1.105767 S    
C16   C18   1.390816 A    
Zn1   O10   2.011303 S    
C12   H4    1.080374 S    
C61   H47   1.081461 S    
C7    C48   1.415947 S    
C40   C42   1.374571 A    
C14   H6    1.082933 S    
C74   H53   1.112850 S    
H18   C64   1.081621 S    
C72   H46   1.110119 S    
C50   C52   1.399042 A    
C68   H33   1.112120 S    
C31   C35   1.413173 A    
C66   H26   1.107438 S    
C9    H1    1.078489 S    
C62   C64   1.422557 A    
C10   C14   1.393935 A    
C71   H42   1.109993 S    
O8    Zn4   2.011413 S    
O2    Zn1   1.999958 S    
C25   C31   1.406839 A    
C28   C48   1.410958 A    
C57   N3    1.380229 A    
O6    Zn3   2.011413 S    
C21   C25   1.425545 A    
C63   N3    1.368419 A    
Zn3   O14   1.999947 S    
C60   N2    1.378697 A    
C66   H27   1.110298 S    
C23   C27   1.425648 A    
C34   C38   1.387865 A    
C51   H55   1.084600 S    
C33   C37   1.382533 A    
O15   C7    1.281902 A    
O4    C4    1.284582 A    
O11   C7    1.296346 A    
C14   C20   1.390786 A    
C41   C69   1.518488 S    
C32   C36   1.404030 A    
C12   C32   1.414538 A    
C49   C51   1.399087 A    
C26   C46   1.410859 A    
C17   C21   1.391919 A    
Zn4   O16   1.999947 S    
C38   C44   1.374516 A    
C8    C47   1.431056 S    
C13   H5    1.082664 S    
Zn3   N1    2.033982 S    
C73   H50   1.112836 S    
C67   H30   1.112146 S    
C72   H44   1.102496 S    
C39   H21   1.072320 S    
C10   H2    1.080401 S    
Zn2   O12   2.011303 S    
C71   H41   1.107229 S    
O1    C1    1.284986 A    
C1    C34   1.405686 S    
Zn1   N3    2.034182 S    
C62   H48   1.081453 S    
C74   H54   1.099260 S    
C21   H13   1.074008 S    
C3    C36   1.405743 S    
C68   H34   1.109591 S    
C19   H11   1.083062 S    
C22   C26   1.412374 A    
C24   H16   1.078850 S    
C27   C47   1.430980 A    
C28   C30   1.398301 A    
O7    C3    1.290436 A    
C42   C70   1.510071 S    
C69   H36   1.109974 S    
O5    C1    1.290402 A    
C55   C57   1.421172 A    
C42   C46   1.406145 A    
C54   C56   1.411237 A    
C16   H8    1.082920 S    
O8    C4    1.300620 A    
C66   H28   1.110498 S    
C18   C22   1.396426 A    
C56   C58   1.421208 A    
C17   H9    1.083035 S    
C37   C43   1.366064 A    
C36   C40   1.387887 A    
C65   H24   1.110444 S    
C54   C66   1.503562 S    
C58   C60   1.430817 A    
C39   C41   1.366235 A    
C10   C30   1.414614 A    
O3    Zn2   1.982982 S    
C50   C60   1.410462 A    
C9    C29   1.421799 A    
C40   H22   1.082152 S    
O7    Zn4   1.991272 S    
C4    C35   1.424259 S    
C52   C54   1.396452 A    
C6    C45   1.430952 S    
N2    C62   1.368529 A    
C51   C53   1.396486 A    
C5    C46   1.415904 S    
C55   C67   1.513985 S    
C56   C68   1.513975 S    
O1    Zn1   1.982982 S    
C69   H35   1.107227 S    
O2    C2    1.284508 A    
C73   H51   1.099202 S    
C43   C71   1.518594 S    
C19   C23   1.391913 A    
C22   H14   1.078945 S    
C67   H31   1.109606 S    
C20   C24   1.396432 A    
O13   C5    1.281837 A    
C58   N4    1.380271 A    
N1    C61   1.368562 A    
Zn2   O11   1.991160 S    
O16   C8    1.298857 A    
C49   C73   1.502113 S    
C70   H39   1.111193 S    
O6    C2    1.300709 A    
C15   H7    1.082632 S    
C67   H29   1.105782 S    
C59   N1    1.378705 A    
Zn1   O9    1.991160 S    
Zn4   O15   1.982969 S    
C44   C72   1.510162 S    
O12   C8    1.289080 A    
C18   H10   1.082048 S    
H17   C63   1.081682 S    
C26   C32   1.398288 A    
O9    C5    1.296387 A    
C69   H37   1.111268 S    
C25   C45   1.430711 A    
C74   H52   1.110661 S    
C35   C39   1.382591 A    
C72   H45   1.111220 S    
Zn4   N2    2.033982 S    
C24   C28   1.412364 A    
C30   C34   1.403973 A    
Zn3   O13   1.982969 S    
C29   C33   1.413246 A    
C50   C74   1.502106 S    
C11   C15   1.388881 A    
C13   C19   1.383001 A    
C65   H25   1.107469 S    
C11   H3    1.078558 S    
C12   C16   1.393966 A    
O4    Zn2   1.999958 S    
C41   C45   1.412175 A    
O5    Zn3   1.991272 S    
C37   H19   1.072224 S    
C11   C31   1.421662 A    
C38   H20   1.082053 S    
C43   C47   1.412224 A    
C2    C33   1.424265 S    
C20   H12   1.082002 S    
C57   C59   1.430804 A    
C53   C55   1.411199 A    
O14   C6    1.298725 A    
Zn2   N4    2.034182 S    
C9    C13   1.388829 A    
C70   H38   1.102407 S    
C52   H56   1.084621 S    
