data_str_m12_o9_o24_f0_bcu.sym.68
_audit_creation_date              2012-12-11T17:47:33-0500
_audit_creation_method            fapswitch 2.2
_symmetry_space_group_name_H-M    P1
_symmetry_Int_Tables_number       1
_space_group_crystal_system       triclinic
_cell_length_a                    14.877304
_cell_length_b                    14.956748
_cell_length_c                    15.126447
_cell_angle_alpha                 110.653634
_cell_angle_beta                  109.041706
_cell_angle_gamma                 108.946864
_cell_volume                      2583.17495128

loop_
_atom_site_label
_atom_site_type_symbol
_atom_type_description
_atom_site_fract_x
_atom_site_fract_y
_atom_site_fract_z
_atom_type_partial_charge
C1    C     C_R   0.971618 0.245809 0.059253 -0.124563
C2    C     C_R   0.095453 0.806381 0.010115 -0.155547
C3    C     C_R   0.325410 0.783476 0.327672 0.051353
C4    C     C_R   0.705666 0.127998 0.698846 0.068608
C5    C     C_R   0.306524 0.501679 0.941874 0.035105
C6    C     C_R   0.673871 0.498938 0.951087 0.025529
C7    C     C_R   0.946029 0.500231 0.304885 0.058043
C8    C     C_R   0.958525 0.501535 0.678252 0.042753
C9    C     C_R   0.169547 0.039172 0.079842 -0.230881
C10   C     C_R   0.062640 0.137080 0.158460 -0.258991
C11   C     C_R   0.116912 0.040458 0.773629 -0.310865
C12   C     C_R   0.980500 0.970262 0.351668 -0.296636
C13   C     C_R   0.094266 0.040109 0.856489 0.656608
C14   C     C_R   0.042992 0.024200 0.315531 0.642773
C15   C     C_R   0.603478 0.316111 0.113474 -0.130463
C16   C     C_R   0.331078 0.657973 0.789187 -0.122778
C17   C     C_R   0.695724 0.392619 0.216616 -0.130743
C18   C     C_R   0.224007 0.594339 0.701372 -0.130699
C19   C     C_R   0.737905 0.357710 0.287298 0.116582
C20   C     C_R   0.157470 0.641837 0.685582 0.133129
C21   C     C_R   0.682604 0.245952 0.254960 -0.163178
C22   C     C_R   0.199715 0.753822 0.758684 -0.191371
C23   C     C_R   0.315438 0.756052 0.224837 -0.125378
C24   C     C_R   0.704263 0.192650 0.791110 -0.131255
C25   C     C_R   0.589589 0.169909 0.152206 -0.105537
C26   C     C_R   0.306321 0.816646 0.847358 -0.098633
C27   C     C_R   0.550972 0.204682 0.080950 -0.111339
C28   C     C_R   0.372118 0.768715 0.862536 -0.106802
C29   C     C_R   0.850438 0.438699 0.486881 -0.257517
C30   C     C_R   0.038506 0.571253 0.494662 -0.266612
C31   C     C_R   0.950690 0.507946 0.584235 0.073609
C32   C     C_R   0.939138 0.503733 0.397795 0.070684
C33   C     C_R   0.046015 0.575597 0.588756 0.007474
C34   C     C_R   0.843114 0.435673 0.391648 0.020484
C35   C     C_R   0.176995 0.116112 0.966143 -0.068714
C36   C     C_R   0.991027 0.004630 0.209501 -0.074249
C37   C     C_R   0.305073 0.180376 0.907846 -0.118685
C38   C     C_R   0.814329 0.891942 0.183596 -0.132795
C39   C     C_R   0.234646 0.992667 0.539157 -0.121174
C40   C     C_R   0.909225 0.053084 0.553563 -0.152255
C41   C     C_R   0.322981 0.983534 0.533257 -0.112147
C42   C     C_R   0.816404 0.994289 0.556560 -0.167853
C43   C     C_R   0.345092 0.904229 0.548810 0.088201
C44   C     C_R   0.717324 0.989239 0.499278 0.108390
C45   C     C_R   0.213412 0.409237 0.907838 -0.157899
C46   C     C_R   0.775413 0.591802 0.025788 -0.149592
C47   C     C_R   0.282553 0.839486 0.577573 -0.178343
C48   C     C_R   0.709880 0.034362 0.431506 -0.183372
C49   C     C_R   0.191689 0.846899 0.579316 -0.105628
C50   C     C_R   0.802590 0.091720 0.428188 -0.114406
C51   C     C_R   0.166286 0.921135 0.557321 -0.139553
C52   C     C_R   0.902823 0.104193 0.491988 -0.083797
C53   C     C_R   0.536524 0.961841 0.628095 -0.227154
C54   C     C_R   0.525656 0.861739 0.429644 -0.242457
C55   C     C_R   0.627856 0.009046 0.618244 0.062531
C56   C     C_R   0.428146 0.842271 0.432392 0.067025
C57   C     C_R   0.625524 0.950270 0.519435 0.033507
C58   C     C_R   0.434607 0.891772 0.535200 0.020426
C59   C     C_R   0.221784 0.111466 0.799502 -0.158045
C60   C     C_R   0.866622 0.903975 0.285629 -0.136897
C61   C     C_R   0.056732 0.044752 0.163448 0.129571
C62   C     C_R   0.154486 0.114769 0.053251 0.095607
C63   C     C_R   0.283115 0.183851 0.991454 -0.253765
C64   C     C_R   0.876238 0.941908 0.145243 -0.243936
C65   C     C_R   0.103757 0.988866 0.114878 0.091159
C66   C     C_R   0.094842 0.161433 0.088741 0.076413
C67   C     C_R   0.000105 0.591689 0.301488 -0.174915
C68   C     C_R   0.941380 0.408123 0.685468 -0.142206
C69   C     C_3   0.461962 0.396091 0.878907 -0.167550
C70   C     C_3   0.509204 0.606620 0.982168 -0.173155
C71   C     C_3   0.405036 0.448507 0.826662 -0.155090
C72   C     C_3   0.565010 0.554063 0.034045 -0.148718
C73   C     C_3   0.398995 0.503250 0.929638 0.197252
C74   C     C_3   0.572443 0.499148 0.931814 0.199598
C75   C     C_3   0.454544 0.451218 0.981543 -0.156739
C76   C     C_3   0.518235 0.551975 0.879721 -0.167758
C77   C     C_R   0.303671 0.592623 0.001078 -0.124628
C78   C     C_R   0.684226 0.406939 0.934414 -0.131036
C79   C     C_R   0.912485 0.408142 0.211067 -0.128529
C80   C     C_R   0.023320 0.592243 0.781280 -0.101173
C81   C     C_R   0.220555 0.749065 0.312977 -0.114305
C82   C     C_R   0.795155 0.197082 0.700728 -0.142647
C83   C     C_R   0.068458 0.251746 0.972735 -0.104817
C84   C     C_R   0.004265 0.804452 0.100402 -0.126200
C85   C     C_R   0.049527 0.219636 0.043690 0.079619
C86   C     C_R   0.067812 0.871241 0.076149 0.069030
H1    H     H_    0.935164 0.231336 0.107201 0.092696
H2    H     H_    0.155239 0.833333 0.986216 0.091196
H3    H     H_    0.052991 0.985099 0.689678 0.123873
H4    H     H_    0.019855 0.980619 0.431234 0.130140
H5    H     H_    0.386920 0.230544 0.926803 0.114682
H6    H     H_    0.726149 0.841744 0.133174 0.120288
H7    H     H_    0.480656 0.144927 0.000500 0.112474
H8    H     H_    0.454982 0.817395 0.930745 0.094598
H9    H     H_    0.573991 0.343373 0.058505 0.111579
H10   H     H_    0.382495 0.621613 0.799652 0.118778
H11   H     H_    0.735956 0.478453 0.240090 0.110143
H12   H     H_    0.193404 0.508648 0.645045 0.101788
H13   H     H_    0.713274 0.217126 0.307928 0.101748
H14   H     H_    0.149331 0.791808 0.748381 0.099809
H15   H     H_    0.548556 0.083682 0.127091 0.100706
H16   H     H_    0.337947 0.902471 0.904005 0.104509
H17   H     H_    0.778865 0.386331 0.485309 0.134853
H18   H     H_    0.112783 0.616348 0.495520 0.137749
H19   H     H_    0.428301 0.413614 0.026472 0.120290
H20   H     H_    0.547557 0.592794 0.838264 0.111829
H21   H     H_    0.379908 0.770487 0.204641 0.090191
H22   H     H_    0.654531 0.164949 0.824392 0.088995
H23   H     H_    0.348481 0.238584 0.075449 0.154593
H24   H     H_    0.835471 0.928216 0.064076 0.151303
H25   H     H_    0.094591 0.924497 0.556194 0.098661
H26   H     H_    0.975280 0.152265 0.492385 0.100575
H27   H     H_    0.219165 0.055110 0.529920 0.163563
H28   H     H_    0.987127 0.062414 0.601265 0.111539
H29   H     H_    0.373391 0.037108 0.515325 0.127070
H30   H     H_    0.823545 0.959804 0.608908 0.144688
H31   H     H_    0.300684 0.780173 0.592856 0.127481
H32   H     H_    0.633973 0.030580 0.386274 0.116986
H33   H     H_    0.138841 0.794072 0.595175 0.121050
H34   H     H_    0.797664 0.129168 0.378634 0.107371
H35   H     H_    0.538232 0.997638 0.704757 0.125482
H36   H     H_    0.523756 0.819209 0.353913 0.124940
H37   H     H_    0.215541 0.005166 0.051961 0.116462
H38   H     H_    0.027371 0.179065 0.197181 0.120494
H39   H     H_    0.336554 0.405702 0.742090 0.100071
H40   H     H_    0.631902 0.597123 0.119555 0.110779
H41   H     H_    0.443643 0.309935 0.834001 0.100652
H42   H     H_    0.526732 0.692873 0.024197 0.098133
H43   H     H_    0.186131 0.325082 0.850372 0.112152
H44   H     H_    0.794524 0.676710 0.060625 0.119990
H45   H     H_    0.025106 0.675723 0.356734 0.117444
H46   H     H_    0.897718 0.323766 0.619391 0.111301
H47   H     H_    0.358236 0.677234 0.029207 0.090771
H48   H     H_    0.620247 0.321602 0.885088 0.095147
H49   H     H_    0.858858 0.323482 0.183511 0.106177
H50   H     H_    0.050197 0.677123 0.804595 0.095490
H51   H     H_    0.194042 0.748922 0.370378 0.127366
H52   H     H_    0.831399 0.178635 0.651687 0.136488
H53   H     H_    0.126283 0.250141 0.945660 0.111696
H54   H     H_    0.983843 0.827783 0.163369 0.117748
H55   H     H_    0.239311 0.113063 0.736067 0.138345
H56   H     H_    0.818773 0.863254 0.314288 0.143847
N1    N     N_R   0.947560 0.293820 0.002910 -0.043180
N2    N     N_R   0.052440 0.706180 0.997090 -0.041048
N3    N     N_R   0.208960 0.706170 0.152110 -0.040666
N4    N     N_R   0.791040 0.293830 0.847890 -0.039976
N5    N     N_R   0.154330 0.443160 0.946140 -0.041557
N6    N     N_R   0.845670 0.556840 0.053860 -0.039777
N7    N     N_R   0.002190 0.556820 0.208880 -0.039958
N8    N     N_R   0.997810 0.443180 0.791120 -0.041202
N9    N     N_R   0.210550 0.556810 0.002910 -0.038405
N10   N     N_R   0.789450 0.443190 0.997090 -0.037621
N11   N     N_R   0.945970 0.443180 0.152110 -0.040307
N12   N     N_R   0.054030 0.556820 0.847890 -0.038579
N13   N     N_R   0.151530 0.706170 0.208880 -0.043050
N14   N     N_R   0.848470 0.293830 0.791120 -0.043105
N15   N     N_R   0.004980 0.293810 0.946140 -0.045039
N16   N     N_R   0.995020 0.706190 0.053860 -0.043454
Ni1   Ni    Ni4+2 0.869690 0.369690 0.000000 0.215168
Ni2   Ni    Ni4+2 0.130310 0.630310 0.000000 0.217628
Ni3   Ni    Ni4+2 0.001390 0.369680 0.869810 0.216396
Ni4   Ni    Ni4+2 0.998610 0.630320 0.130190 0.217479
O1    O     O_3   0.989955 0.971703 0.831913 -0.624713
C87   C     C_3   0.967012 0.861534 0.782085 -0.270598
H57   H     H_    0.033560 0.851375 0.830278 0.123343
H58   H     H_    0.952169 0.830774 0.697393 0.135293
H59   H     H_    0.891087 0.809489 0.777713 0.182902
O2    O     O_3   0.155603 0.088037 0.379183 -0.629478
C88   C     C_3   0.181893 0.193741 0.454548 -0.335990
H60   H     H_    0.155523 0.190944 0.514824 0.126513
H61   H     H_    0.145787 0.231935 0.413043 0.148915
H62   H     H_    0.272233 0.247489 0.500358 0.186204

loop_
_geom_bond_atom_site_label_1
_geom_bond_atom_site_label_2
_ccdc_geom_bond_type
C16   C28   A    
C39   C51   A    
C1    H1    S    
C67   N7    A    
C2    N2    A    
C88   H60   S    
C3    C23   A    
O1    C87   S    
C17   H11   S    
C77   N9    A    
C66   C85   S    
C83   H53   S    
C78   N10   A    
C65   C86   S    
C39   C41   A    
C81   H51   S    
C23   N3    A    
C42   C44   A    
C50   H34   S    
C15   H9    S    
C12   H4    S    
C87   H57   S    
C19   C21   A    
C84   C86   A    
C13   C35   A    
C10   H38   S    
C14   C36   A    
C71   C76   S    
C21   H13   S    
C6    C78   A    
C52   H26   S    
C38   H6    S    
C29   H17   S    
C7    C67   A    
C28   H8    S    
C2    C86   A    
C69   C71   S    
N7    N11   A    
C13   O1    S    
C22   C26   A    
C43   C58   S    
C60   H56   S    
C76   H20   S    
C15   C27   A    
C40   H28   S    
N3    N13   A    
C46   N6    A    
C39   H27   S    
C3    C81   A    
C50   C52   A    
C31   C33   A    
C2    H2    S    
C24   H22   S    
N2    Ni2   S    
C82   N14   A    
C53   C55   A    
C54   H36   S    
N10   Ni1   S    
C41   C43   A    
C77   H47   S    
C41   H29   S    
C72   C75   S    
C11   C59   A    
C47   C49   A    
C37   C63   A    
C6    C74   S    
C38   C64   A    
C10   C66   A    
N13   Ni4   S    
C1    C85   A    
C54   C56   A    
C16   H10   S    
C22   H14   S    
C62   C66   A    
C9    C62   A    
N1    N15   A    
C72   C74   S    
N5    Ni3   S    
C71   C73   S    
N3    Ni2   S    
C84   N16   A    
C48   H32   S    
N4    Ni1   S    
C49   C51   A    
C40   C52   A    
C5    C45   A    
C29   C34   A    
C72   H40   S    
C68   H46   S    
N11   Ni1   S    
N5    N9    A    
N12   Ni2   S    
C1    N1    A    
C79   N11   A    
C3    C56   S    
C11   H3    S    
C64   H24   S    
C83   N15   A    
C44   C57   S    
C69   H41   S    
C23   H21   S    
C70   C73   S    
N4    N14   A    
C69   C74   S    
C16   C18   A    
N1    Ni1   S    
C48   C50   A    
C78   H48   S    
C59   H55   S    
C37   C59   A    
C74   C76   S    
C38   C60   A    
C20   C33   S    
C9    H37   S    
N2    N16   A    
C42   H30   S    
O2    C88   S    
C83   C85   A    
C12   C14   A    
N14   Ni3   S    
C75   H19   S    
C55   C57   A    
C4    C55   S    
C70   C76   S    
C88   H62   S    
C27   H7    S    
C10   C61   A    
C73   C75   S    
C14   O2    S    
C36   C61   S    
N15   Ni3   S    
C7    C79   A    
C88   H61   S    
C70   H42   S    
C15   C17   A    
N8    Ni3   S    
C21   C25   A    
C51   H25   S    
C7    C32   S    
C6    C46   A    
C30   C33   A    
C45   N5    A    
C8    C31   S    
C87   H59   S    
C67   H45   S    
N6    N10   A    
C20   C22   A    
C19   C34   S    
C81   N13   A    
C46   H44   S    
C70   C72   S    
C53   C58   A    
C80   N12   A    
C25   C27   A    
C79   H49   S    
C26   C28   A    
C80   H50   S    
N6    Ni4   S    
N9    Ni2   S    
C8    C68   A    
C87   H58   S    
C29   C31   A    
C24   N4    A    
C26   H16   S    
C30   C32   A    
C11   C13   A    
C25   H15   S    
C49   H33   S    
C43   C47   A    
C4    C24   A    
C45   H43   S    
C40   C42   A    
C17   C19   A    
C56   C58   A    
C69   C75   S    
C35   C62   S    
C18   C20   A    
C5    C73   S    
C9    C65   A    
C68   N8    A    
N16   Ni4   S    
C53   H35   S    
C12   C60   A    
C61   C65   A    
C47   H31   S    
C4    C82   A    
C84   H54   S    
C82   H52   S    
N8    N12   A    
C30   H18   S    
C8    C80   A    
C71   H39   S    
C35   C63   A    
N7    Ni4   S    
C18   H12   S    
C36   C64   A    
C5    C77   A    
C44   C48   A    
C37   H5    S    
C32   C34   A    
C63   H23   S    
C54   C57   A    
