data_str_m2_o1_o21_f0_pcu.sym.17
_audit_creation_date              2012-10-26T19:45:05-0400
_audit_creation_method            fapswitch 2.2
_symmetry_space_group_name_H-M    P1
_symmetry_Int_Tables_number       1
_space_group_crystal_system       triclinic
_cell_length_a                    9.531987
_cell_length_b                    10.893667
_cell_length_c                    13.899639
_cell_angle_alpha                 91.252765
_cell_angle_beta                  85.507471
_cell_angle_gamma                 89.769366
_cell_volume                      1438.5125032

loop_
_atom_site_label
_atom_site_type_symbol
_atom_type_description
_atom_site_fract_x
_atom_site_fract_y
_atom_site_fract_z
_atom_type_partial_charge
C1    C     C_R   0.501001 0.737907 0.494036 0.570643
C2    C     C_R   0.933612 0.437865 0.429947 -0.071244
C3    C     C_1   0.534418 0.501381 0.214515 -0.048011
C4    C     C_1   0.465200 0.498213 0.785624 -0.032133
C5    C     C_2   0.558493 0.505353 0.023350 0.304606
C6    C     C_2   0.440200 0.494735 0.976932 0.300375
C7    C     C_1   0.453476 0.496521 0.872188 -0.013661
C8    C     C_1   0.545526 0.503068 0.128003 -0.017342
C9    C     C_R   0.629907 0.937550 0.498418 0.220775
C10   C     C_R   0.369324 0.062764 0.511135 0.228136
C11   C     C_R   0.625337 0.064142 0.518430 0.210637
C12   C     C_R   0.499085 0.262474 0.507128 0.566174
C13   C     C_R   0.375132 0.937276 0.487936 0.221597
C14   C     C_3   0.885275 0.724835 0.688758 0.016508
C15   C     C_3   0.927025 0.688763 0.788347 -0.285256
C16   C     C_3   0.995295 0.795415 0.839620 -0.495628
C17   C     C_3   0.128350 0.362385 0.269853 0.009399
C18   C     C_3   0.074119 0.235299 0.242173 -0.268891
C19   C     C_3   0.041060 0.228027 0.136629 -0.481148
C20   C     C_3   0.196064 0.471852 0.974126 -0.151749
C21   C     C_3   0.796733 0.554023 0.025268 -0.150196
C22   C     C_3   0.815812 0.886113 0.389148 -0.008412
C23   C     C_R   0.497220 0.128159 0.515363 -0.070849
C24   C     C_3   0.814541 0.761213 0.336907 -0.233430
C25   C     C_3   0.902931 0.761888 0.240532 -0.497148
C26   C     C_3   0.212241 0.171012 0.617990 0.031029
C27   C     C_3   0.125758 0.085002 0.684672 -0.300345
C28   C     C_3   0.096126 0.143492 0.785127 -0.473959
C29   C     C_3   0.847035 0.147616 0.494781 -0.049307
C30   C     C_3   0.155102 0.854595 0.512440 -0.062190
C31   C     C_R   0.502926 0.872792 0.490318 -0.059192
C32   C     C_R   0.477898 0.499878 0.682864 0.538895
C33   C     C_R   0.522046 0.499900 0.317183 0.535146
C34   C     C_R   0.915798 0.564632 0.570188 0.383415
C35   C     C_R   0.083717 0.437158 0.429117 0.377191
C36   C     C_R   0.066223 0.561088 0.570805 -0.066564
Cu1   Cu    Cu3+1 0.359340 0.499980 0.500000 0.996647
Cu2   Cu    Cu3+1 0.640660 0.500020 0.500000 1.002819
H1    H     H_    0.118722 0.606358 0.627579 0.109968
H2    H     H_    0.224863 0.381209 0.222487 0.197410
H3    H     H_    0.051622 0.435839 0.254976 0.094884
H4    H     H_    0.155044 0.164801 0.254558 0.196961
H5    H     H_    0.977515 0.213845 0.288240 0.136333
H6    H     H_    0.959852 0.297320 0.122553 0.142947
H7    H     H_    0.000204 0.135349 0.119759 0.145923
H8    H     H_    0.137812 0.243852 0.088763 0.168963
H9    H     H_    0.206866 0.387485 0.927506 0.118911
H10   H     H_    0.183172 0.554835 0.930343 0.121687
H11   H     H_    0.099256 0.462231 0.022789 0.128281
H12   H     H_    0.881447 0.385204 0.376726 0.111097
H13   H     H_    0.819924 0.485884 0.080350 0.115097
H14   H     H_    0.770232 0.645424 0.059299 0.120958
H15   H     H_    0.893807 0.564790 0.977158 0.125371
H16   H     H_    0.927203 0.914599 0.389837 0.144178
H17   H     H_    0.762940 0.955617 0.346052 0.099336
H18   H     H_    0.858330 0.690700 0.382617 0.198986
H19   H     H_    0.704726 0.736926 0.323368 0.172520
H20   H     H_    0.858894 0.828542 0.191403 0.142471
H21   H     H_    0.902539 0.668817 0.206439 0.134300
H22   H     H_    0.013593 0.786536 0.251601 0.170045
H23   H     H_    0.801419 0.796114 0.699187 0.184633
H24   H     H_    0.150825 0.257175 0.612443 0.172384
H25   H     H_    0.309442 0.196983 0.653066 0.120911
H26   H     H_    0.023674 0.064655 0.654642 0.179852
H27   H     H_    0.184893 0.998018 0.691255 0.142147
H28   H     H_    0.196260 0.162344 0.818445 0.143291
H29   H     H_    0.032414 0.080161 0.832013 0.152750
H30   H     H_    0.036504 0.230794 0.780788 0.159016
H31   H     H_    0.900310 0.229930 0.521851 0.153506
H32   H     H_    0.813561 0.166653 0.421533 0.086919
H33   H     H_    0.926545 0.074023 0.491418 0.141312
H34   H     H_    0.972166 0.769204 0.645662 0.086901
H35   H     H_    0.192786 0.822451 0.581522 0.092510
H36   H     H_    0.092181 0.780331 0.481636 0.137411
H37   H     H_    0.083996 0.933889 0.525787 0.148280
H38   H     H_    0.830791 0.660588 0.832337 0.213529
H39   H     H_    0.001126 0.609563 0.781930 0.151324
H40   H     H_    0.093230 0.823656 0.797510 0.145674
H41   H     H_    0.022476 0.766678 0.912057 0.144137
H42   H     H_    0.921375 0.874605 0.848740 0.153954
N1    N     N_R   0.147930 0.499970 0.499980 -0.245398
N2    N     N_R   0.852070 0.500030 0.500020 -0.250939
O1    O     O_R   0.381260 0.680340 0.500000 -0.487670
O2    O     O_3   0.167185 0.361544 0.366159 -0.513367
O3    O     O_3   0.310993 0.484629 0.031493 -0.606383
O4    O     O_3   0.688339 0.512544 0.969326 -0.592786
O5    O     O_3   0.759058 0.877703 0.486742 -0.543613
O6    O     O_3   0.238032 0.119931 0.522842 -0.534781
O7    O     O_3   0.734886 0.119786 0.562626 -0.543568
O8    O     O_3   0.265334 0.882719 0.443612 -0.537237
O9    O     O_R   0.618740 0.319660 0.500000 -0.484879
O10   O     O_R   0.618830 0.680370 0.500010 -0.442434
O11   O     O_R   0.381170 0.319630 0.499990 -0.440254
O12   O     O_R   0.364420 0.499960 0.637840 -0.545013
O13   O     O_R   0.635580 0.500040 0.362160 -0.542056
O14   O     O_R   0.601990 0.499990 0.637850 -0.419226
O15   O     O_R   0.398010 0.500010 0.362150 -0.444333
O16   O     O_3   0.827509 0.622668 0.642049 -0.510468

loop_
_geom_bond_atom_site_label_1
_geom_bond_atom_site_label_2
_ccdc_geom_bond_type
C2    C35   A    
C32   O12   A    
C13   O8    S    
C12   O9    A    
C30   O8    S    
C29   O7    S    
C35   N1    A    
C19   H8    S    
C22   H16   S    
C12   C23   S    
C10   O6    S    
C26   C27   S    
C20   H11   S    
C6    O3    S    
C28   H30   S    
C18   H4    S    
C5    C6    D    
C30   H36   S    
C3    C33   S    
C15   C16   S    
Cu2   O10   S    
C1    C31   S    
C18   C19   S    
C22   H17   S    
C2    H12   S    
C24   H19   S    
Cu2   O13   S    
C25   H22   S    
C34   C36   A    
C15   H38   S    
Cu2   N2    S    
Cu1   N1    S    
C4    C7    T    
C33   O13   A    
Cu1   O15   S    
C14   O16   S    
C29   H31   S    
C28   H29   S    
C24   C25   S    
C3    C8    T    
C30   H35   S    
C14   H23   S    
Cu2   O9    S    
C16   H42   S    
C17   H2    S    
C28   H28   S    
C26   H25   S    
Cu1   Cu2   S    
C27   H27   S    
C11   O7    S    
C36   N1    A    
C20   O3    S    
C17   C18   S    
Cu1   O11   S    
C20   H10   S    
C22   O5    S    
C9    C11   A    
C4    C32   S    
C5    O4    S    
C32   O14   A    
C1    O10   A    
C22   C24   S    
C12   O11   A    
C2    N2    A    
C1    O1    A    
C25   H20   S    
C21   H13   S    
C19   H6    S    
C16   H40   S    
C29   H32   S    
C21   O4    S    
C14   H34   S    
C13   C31   A    
C36   H1    S    
C10   C13   A    
C5    C8    S    
C35   O2    S    
C19   H7    S    
C6    C7    S    
C10   C23   A    
C24   H18   S    
C25   H21   S    
C16   H41   S    
C17   O2    S    
C26   H24   S    
C18   H5    S    
C9    O5    S    
C21   H15   S    
C30   H37   S    
C15   H39   S    
C11   C23   A    
C34   O16   S    
Cu1   O12   S    
C33   O15   A    
C17   H3    S    
C20   H9    S    
C27   H26   S    
C9    C31   A    
C26   O6    S    
Cu2   O14   S    
C27   C28   S    
C14   C15   S    
Cu1   O1    S    
C34   N2    A    
C21   H14   S    
C29   H33   S    
