data_str_m2_o16_o18_f0_pcu.sym.100
_audit_creation_date              2012-12-10T17:32:55-0500
_audit_creation_method            fapswitch 2.2
_symmetry_space_group_name_H-M    P1
_symmetry_Int_Tables_number       1
_space_group_crystal_system       triclinic
_cell_length_a                    12.359355
_cell_length_b                    13.258627
_cell_length_c                    14.255823
_cell_angle_alpha                 93.254056
_cell_angle_beta                  107.852179
_cell_angle_gamma                 116.96885
_cell_volume                      1928.28235063

loop_
_atom_site_label
_atom_site_type_symbol
_atom_type_description
_atom_site_fract_x
_atom_site_fract_y
_atom_site_fract_z
_atom_type_partial_charge
C1    C     C_R   0.650779 0.714085 0.508618 0.777426
C2    C     C_R   0.898003 0.566271 0.922824 0.089261
C3    C     C_R   0.866512 0.608223 0.998388 0.173617
C4    C     C_R   0.011401 0.553922 0.951003 0.061860
C5    C     C_R   0.081438 0.568606 0.055219 0.088173
C6    C     C_R   0.051144 0.616142 0.128354 -0.224584
C7    C     C_R   0.946555 0.636977 0.099936 -0.251336
C8    C     C_R   0.056591 0.526662 0.878611 -0.226171
C9    C     C_R   0.157282 0.500887 0.906392 -0.207521
C10   C     C_R   0.214639 0.499383 0.006567 0.096229
C11   C     C_R   0.178230 0.533925 0.082303 0.091937
C12   C     C_R   0.620702 0.519481 0.687059 0.798232
C13   C     C_R   0.305455 0.460284 0.030967 -0.290105
C14   C     C_R   0.361510 0.453964 0.130342 0.452526
C15   C     C_R   0.233966 0.525688 0.181467 -0.329906
C16   C     C_R   0.140593 0.965762 0.364901 -0.191972
C17   C     C_R   0.249445 0.162253 0.464075 -0.049290
C18   C     C_R   0.730147 0.921355 0.573664 -0.184774
C19   C     C_R   0.821049 0.038216 0.593342 -0.155101
C20   C     C_R   0.922611 0.072742 0.558051 -0.177519
C21   C     C_R   0.932339 0.990273 0.498304 0.079913
C22   C     C_R   0.830446 0.872852 0.468525 0.085555
C23   C     C_R   0.345393 0.285284 0.485178 0.799189
C24   C     C_R   0.038993 0.020591 0.466159 0.073406
C25   C     C_R   0.035959 0.936707 0.397304 0.170677
C26   C     C_R   0.927249 0.825674 0.359677 -0.244674
C27   C     C_R   0.825044 0.794694 0.393338 -0.204759
C28   C     C_R   0.149487 0.131711 0.501213 -0.255149
C29   C     C_R   0.246643 0.078484 0.397593 -0.188410
C30   C     C_R   0.735772 0.837380 0.513944 -0.106168
C31   C     C_R   0.253950 0.689332 0.657731 -0.407207
C32   C     C_R   0.654020 0.340279 0.365138 0.083329
C33   C     C_R   0.731115 0.303864 0.336429 -0.267990
C34   C     C_R   0.382347 0.484415 0.312999 0.814065
C35   C     C_R   0.866641 0.363609 0.387076 -0.190132
C36   C     C_R   0.927349 0.460983 0.468050 0.013475
C37   C     C_R   0.843768 0.494677 0.495239 0.279677
C38   C     C_R   0.067177 0.525960 0.523160 -0.031836
C39   C     C_R   0.119060 0.622631 0.603248 0.118693
C40   C     C_R   0.036343 0.653509 0.628798 -0.266556
C41   C     C_R   0.902213 0.590817 0.576533 -0.193656
C42   C     C_R   0.158850 0.500480 0.502455 -0.087554
C43   C     C_R   0.340574 0.659747 0.635180 0.660878
C44   C     C_R   0.699393 0.544116 0.795032 -0.050366
C45   C     C_R   0.324436 0.486123 0.206279 -0.150422
C46   C     C_R   0.753656 0.618854 0.971671 -0.209891
C47   C     C_R   0.669816 0.585797 0.870679 -0.200192
C48   C     C_R   0.811372 0.532706 0.821784 -0.261643
Cu1   Cu    Cu3+1 0.416420 0.526630 0.522910 0.967449
Cu2   Cu    Cu3+1 0.583580 0.473370 0.477090 0.931328
H1    H     H_    0.925312 0.671846 0.158140 0.131990
H2    H     H_    0.330405 0.431088 0.972212 0.150269
H3    H     H_    0.323451 0.101203 0.367864 0.151120
H4    H     H_    0.921065 0.762208 0.304062 0.130519
H5    H     H_    0.138548 0.902173 0.312084 0.136113
H6    H     H_    0.160170 0.197311 0.556994 0.146368
H7    H     H_    0.656788 0.896489 0.607173 0.181347
H8    H     H_    0.989760 0.164897 0.576870 0.128320
H9    H     H_    0.815078 0.102312 0.638879 0.143574
H10   H     H_    0.740517 0.709550 0.357367 0.159089
H11   H     H_    0.204595 0.545683 0.240423 0.176228
H12   H     H_    0.075778 0.727196 0.690658 0.158172
H13   H     H_    0.290151 0.764715 0.716398 0.151090
H14   H     H_    0.127615 0.428607 0.442446 0.147210
H15   H     H_    0.549046 0.293255 0.325051 0.149735
H16   H     H_    0.921426 0.331732 0.361553 0.139817
H17   H     H_    0.685545 0.228974 0.274452 0.147425
H18   H     H_    0.847987 0.621014 0.603078 0.208310
H19   H     H_    0.187403 0.478194 0.848343 0.141029
H20   H     H_    0.729604 0.651595 0.029118 0.125074
H21   H     H_    0.582304 0.593015 0.851881 0.144133
H22   H     H_    0.827305 0.494315 0.762445 0.157495
H23   H     H_    0.107982 0.640212 0.208413 0.145260
H24   H     H_    0.017275 0.526128 0.799734 0.151810
N1    N     N_R   0.290690 0.566960 0.557640 -0.208157
N2    N     N_R   0.709100 0.433710 0.442970 -0.211875
O1    O     O_R   0.545970 0.684450 0.528810 -0.528877
O2    O     O_R   0.687130 0.639470 0.490120 -0.612685
O3    O     O_R   0.519670 0.535100 0.660030 -0.550631
O4    O     O_R   0.660830 0.490120 0.621340 -0.605835
O5    O     O_R   0.312870 0.360530 0.509880 -0.590956
O6    O     O_R   0.454030 0.315550 0.471190 -0.587044
O7    O     O_R   0.339170 0.509880 0.378660 -0.593677
O8    O     O_R   0.480330 0.464900 0.339970 -0.558569
O9    O     O_3   0.476318 0.727193 0.681714 -0.591747
C49   C     C_3   0.521889 0.781486 0.784982 0.005071
H25   H     H_    0.609343 0.774408 0.826097 0.170251
H26   H     H_    0.451203 0.737969 0.822351 0.122387
C50   C     C_3   0.566548 0.911498 0.797033 -0.355698
H27   H     H_    0.651990 0.954175 0.774001 0.216792
H28   H     H_    0.487595 0.924733 0.747257 0.217188
C51   C     C_3   0.605868 0.969887 0.906507 -0.900845
H29   H     H_    0.520902 0.930823 0.930456 0.254512
H30   H     H_    0.639641 0.064108 0.913179 0.258463
H31   H     H_    0.686815 0.959794 0.957538 0.256228
O10   O     O_3   0.438353 0.401760 0.149735 -0.571618
C52   C     C_3   0.562411 0.476105 0.146499 0.059283
H32   H     H_    0.633255 0.523448 0.224999 0.164576
H33   H     H_    0.564172 0.541902 0.100638 0.110508
C53   C     C_3   0.608023 0.402618 0.102132 -0.776396
H34   H     H_    0.547565 0.365129 0.020137 0.242436
H35   H     H_    0.711970 0.456986 0.111896 0.212366
H36   H     H_    0.598796 0.330723 0.141083 0.251039

loop_
_geom_bond_atom_site_label_1
_geom_bond_atom_site_label_2
_ccdc_geom_bond_type
C23   O6    A    
C17   C29   A    
C35   C36   A    
C4    C8    A    
C52   H32   S    
C28   H6    S    
Cu2   O8    S    
O9    C49   S    
Cu2   O6    S    
C42   N1    A    
C17   C23   S    
C31   C43   A    
C36   C37   A    
C9    H19   S    
C38   C42   A    
C3    C7    A    
C27   H10   S    
C38   C39   A    
C49   H26   S    
Cu1   O5    S    
C12   O3    A    
C26   H4    S    
C40   H12   S    
C18   C19   A    
C14   O10   S    
C1    C30   S    
C11   C15   A    
C19   C20   A    
Cu1   O1    S    
C8    C9    A    
Cu1   N1    S    
C18   C30   A    
C41   H18   S    
C23   O5    A    
C9    C10   A    
C44   C47   A    
C21   C22   A    
C1    O2    A    
C15   H11   S    
C34   O8    A    
C48   H22   S    
Cu2   O2    S    
C8    H24   S    
C52   H33   S    
C14   C45   A    
C43   N1    A    
C43   O9    S    
C31   H13   S    
C24   C25   A    
C39   C40   A    
C49   H25   S    
C35   H16   S    
C19   H9    S    
C16   C29   A    
C49   C50   S    
C51   H31   S    
Cu1   O3    S    
C2    C4    A    
Cu2   N2    S    
C13   H2    S    
C18   H7    S    
O10   C52   S    
C51   H30   S    
C26   C27   A    
C34   C45   S    
C50   C51   S    
C47   H21   S    
C40   C41   A    
C37   N2    A    
C22   C27   A    
C50   H28   S    
C34   O7    A    
C15   C45   A    
C20   H8    S    
C42   H14   S    
C52   C53   S    
C33   H17   S    
C6    H23   S    
C53   H35   S    
C16   C25   A    
C46   C47   A    
C22   C30   A    
C17   C28   A    
C24   C28   A    
C4    C5    A    
C10   C13   A    
Cu2   O4    S    
C32   N2    A    
C5    C11   A    
C6    C7    A    
C3    C46   A    
C2    C48   A    
C32   C33   A    
Cu1   O7    S    
C36   C38   A    
C2    C3    A    
C25   C26   A    
C16   H5    S    
C7    H1    S    
C12   C44   S    
C5    C6    A    
C29   H3    S    
C12   O4    A    
C51   H29   S    
C33   C35   A    
C31   C39   A    
C53   H36   S    
C37   C41   A    
C46   H20   S    
C10   C11   A    
C20   C21   A    
Cu1   Cu2   S    
C21   C24   A    
C53   H34   S    
C1    O1    A    
C50   H27   S    
C13   C14   A    
C44   C48   A    
C32   H15   S    
