data_str_m2_o1_o12_f0_pcu.sym.177
_audit_creation_date              2012-12-10T17:55:52-0500
_audit_creation_method            fapswitch 2.2
_symmetry_space_group_name_H-M    P1
_symmetry_Int_Tables_number       1
_space_group_crystal_system       triclinic
_cell_length_a                    11.139306
_cell_length_b                    10.738423
_cell_length_c                    9.649633
_cell_angle_alpha                 90.558908
_cell_angle_beta                  100.04763
_cell_angle_gamma                 92.629775
_cell_volume                      1135.19029721

loop_
_atom_site_label
_atom_site_type_symbol
_atom_type_description
_atom_site_fract_x
_atom_site_fract_y
_atom_site_fract_z
_atom_type_partial_charge
C1    C     C_R   0.501733 0.262914 0.499634 0.855981
C2    C     C_R   0.498104 0.737287 0.500243 0.852063
C3    C     C_R   0.264628 0.498167 0.446498 0.782828
C4    C     C_R   0.735925 0.509316 0.554764 0.787810
C5    C     C_R   0.437349 0.407578 0.062532 0.563184
C6    C     C_R   0.559640 0.594246 0.937489 0.548758
C7    C     C_R   0.433992 0.409439 0.913018 0.061884
C8    C     C_R   0.562754 0.592505 0.086536 0.100162
C9    C     C_2   0.132173 0.482481 0.429124 0.207347
C10   C     C_2   0.868399 0.538833 0.582806 0.198461
C11   C     C_2   0.070884 0.550936 0.511207 0.310411
C12   C     C_2   0.935383 0.546016 0.477711 0.370326
C13   C     C_R   0.590841 0.067754 0.440227 0.512758
C14   C     C_R   0.408079 0.933078 0.558609 0.505887
C15   C     C_R   0.588116 0.937255 0.444516 -0.400478
C16   C     C_R   0.411000 0.063645 0.553832 -0.404098
C17   C     C_R   0.497112 0.871574 0.500804 -0.169128
C18   C     C_R   0.502215 0.128963 0.498350 -0.166914
Cu1   Cu    Cu3+1 0.500000 0.500020 0.640660 0.982026
Cu2   Cu    Cu3+1 0.500000 0.499980 0.359340 1.007280
H1    H     H_    0.658213 0.885733 0.408183 0.150973
H2    H     H_    0.341535 0.116139 0.590090 0.148039
N1    N     N_R   0.500030 0.500030 0.852080 -0.238042
N2    N     N_R   0.499970 0.499970 0.147920 -0.229681
O1    O     O_R   0.499990 0.319660 0.618740 -0.590255
O2    O     O_R   0.500010 0.680340 0.381260 -0.608179
O3    O     O_R   0.499990 0.319630 0.381170 -0.523652
O4    O     O_R   0.500010 0.680370 0.618830 -0.528713
O5    O     O_R   0.320690 0.500020 0.575130 -0.618117
O6    O     O_R   0.679310 0.499980 0.424870 -0.553213
O7    O     O_R   0.320680 0.499990 0.337560 -0.538579
O8    O     O_R   0.679320 0.500010 0.662440 -0.525414
O9    O     O_3   0.877914 0.532543 0.337684 -0.542255
C19   C     C_3   0.918496 0.629782 0.256466 -0.256920
H3    H     H_    0.016929 0.628450 0.250952 0.172330
H4    H     H_    0.898038 0.722556 0.296562 0.112588
H5    H     H_    0.870676 0.616466 0.146266 0.203146
O10   O     O_3   0.130645 0.644356 0.602906 -0.585981
C20   C     C_3   0.174262 0.597197 0.738544 -0.140643
H6    H     H_    0.156309 0.494998 0.749157 0.152999
H7    H     H_    0.134360 0.647236 0.818905 0.162589
H8    H     H_    0.273642 0.619775 0.767441 0.186305
O11   O     O_3   0.367191 0.319679 0.121847 -0.553030
C21   C     C_3   0.414197 0.199596 0.116281 -0.282741
H9    H     H_    0.513902 0.201284 0.113561 0.162990
H10   H     H_    0.362501 0.143774 0.026518 0.136521
H11   H     H_    0.398478 0.148104 0.210838 0.180890
O12   O     O_3   0.622055 0.688626 0.878274 -0.569878
C22   C     C_3   0.560143 0.801303 0.877551 -0.305469
H12   H     H_    0.583253 0.859190 0.790748 0.192053
H13   H     H_    0.459002 0.786298 0.861522 0.170621
H14   H     H_    0.592674 0.858909 0.973433 0.131875
O13   O     O_3   0.922215 0.561726 0.721581 -0.585519
C23   C     C_3   0.898145 0.684878 0.758652 -0.304365
H15   H     H_    0.799238 0.702474 0.739654 0.203587
H16   H     H_    0.946358 0.754271 0.700304 0.166443
H17   H     H_    0.932478 0.700398 0.872797 0.181022
O14   O     O_3   0.068844 0.398154 0.328899 -0.544055
C24   C     C_3   0.115592 0.278545 0.350789 -0.275678
H18   H     H_    0.123359 0.250510 0.462786 0.116687
H19   H     H_    0.205195 0.273705 0.315861 0.190457
H20   H     H_    0.051471 0.209796 0.286243 0.190809
C25   C     C_3   0.353230 0.310935 0.825124 -0.781804
H21   H     H_    0.319244 0.338065 0.717616 0.253260
H22   H     H_    0.403867 0.224772 0.821548 0.216721
H23   H     H_    0.268923 0.290256 0.869036 0.217051
C26   C     C_3   0.633191 0.697437 0.173709 -0.743490
H24   H     H_    0.677727 0.667267 0.277240 0.275350
H25   H     H_    0.708256 0.737442 0.124176 0.199191
H26   H     H_    0.571351 0.773494 0.184798 0.209755
O15   O     O_3   0.682436 0.139833 0.392550 -0.564838
C27   C     C_3   0.728915 0.080765 0.283078 -0.319800
H27   H     H_    0.775027 0.152989 0.226685 0.209630
H28   H     H_    0.655577 0.033420 0.204334 0.131068
H29   H     H_    0.798751 0.014406 0.326952 0.158888
O16   O     O_3   0.317883 0.861230 0.609527 -0.551182
C28   C     C_3   0.263037 0.926088 0.708435 -0.312515
H30   H     H_    0.331792 0.978408 0.788146 0.125495
H31   H     H_    0.214454 0.857845 0.766739 0.191044
H32   H     H_    0.193652 0.988419 0.653955 0.167082

loop_
_geom_bond_atom_site_label_1
_geom_bond_atom_site_label_2
_ccdc_geom_bond_type
C25   H22   S    
C19   H5    S    
Cu1   Cu2   S    
C20   H7    S    
Cu2   O6    S    
O13   C23   S    
C1    C18   S    
C6    O12   S    
C13   C18   A    
C9    O14   S    
O10   C20   S    
C19   H3    S    
C3    O5    A    
C10   O13   S    
Cu2   N2    S    
C22   H13   S    
C21   H11   S    
C5    O11   S    
C25   H23   S    
C24   H18   S    
C2    C17   S    
C1    O1    A    
C14   C17   A    
C27   H29   S    
Cu1   O8    S    
C21   H10   S    
C20   H8    S    
C28   H31   S    
C23   H16   S    
C24   H19   S    
C26   H24   S    
O16   C28   S    
C27   H28   S    
C20   H6    S    
C5    C7    A    
C6    C8    A    
C13   O15   S    
O14   C24   S    
C28   H30   S    
C26   H25   S    
C14   O16   S    
C11   O10   S    
Cu1   N1    S    
O11   C21   S    
C3    C9    S    
C22   H14   S    
O9    C19   S    
C2    O2    A    
C3    O7    A    
Cu1   O4    S    
C9    C11   D    
C7    C25   S    
C4    O8    A    
C10   C12   D    
O12   C22   S    
C13   C15   A    
C14   C16   A    
C4    C10   S    
Cu1   O5    S    
C21   H9    S    
C28   H32   S    
C15   C17   A    
C23   H15   S    
C24   H20   S    
C16   H2    S    
C27   H27   S    
C11   C12   S    
Cu2   O3    S    
C26   H26   S    
O15   C27   S    
C5    N2    A    
Cu2   O2    S    
C7    N1    A    
C6    N1    A    
C8    N2    A    
C19   H4    S    
Cu1   O1    S    
C25   H21   S    
C15   H1    S    
C8    C26   S    
C16   C18   A    
C22   H12   S    
C1    O3    A    
C2    O4    A    
C12   O9    S    
Cu2   O7    S    
C4    O6    A    
C23   H17   S    
