data_str_m3_o4_o4_f0_pcu.sym.157
_audit_creation_date              2012-12-10T20:41:48-0500
_audit_creation_method            fapswitch 2.2
_symmetry_space_group_name_H-M    P1
_symmetry_Int_Tables_number       1
_space_group_crystal_system       triclinic
_cell_length_a                    14.807928
_cell_length_b                    15.312427
_cell_length_c                    9.914524
_cell_angle_alpha                 90.29869
_cell_angle_beta                  91.145643
_cell_angle_gamma                 89.683686
_cell_volume                      2247.55897132

loop_
_atom_site_label
_atom_site_type_symbol
_atom_type_description
_atom_site_fract_x
_atom_site_fract_y
_atom_site_fract_z
_atom_type_partial_charge
C1    C     C_R   0.376878 0.882646 0.498072 0.844457
C2    C     C_R   0.379725 0.119251 0.499673 0.847779
C3    C     C_R   0.876341 0.383122 0.498010 0.842533
C4    C     C_R   0.879193 0.618738 0.499636 0.837069
C5    C     C_3   0.399053 0.320499 0.566041 -0.456091
C6    C     C_3   0.337224 0.739268 0.713793 -0.420873
C7    C     C_3   0.896051 0.817195 0.583030 -0.440713
C8    C     C_3   0.825940 0.250854 0.724471 -0.429075
C9    C     C_R   0.420734 0.002428 0.068482 0.164978
C10   C     C_R   0.920685 0.504447 0.068684 0.154765
C11   C     C_R   0.578248 0.989100 0.075309 -0.010606
C12   C     C_R   0.078132 0.488974 0.074911 -0.008881
C13   C     C_R   0.579407 0.994146 0.930746 0.004422
C14   C     C_R   0.078180 0.486834 0.930363 -0.026303
C15   C     C_R   0.420558 0.001148 0.926471 0.199438
C16   C     C_R   0.920749 0.504816 0.926660 0.198486
C17   C     C_3   0.350429 0.071496 0.919276 -0.443325
C18   C     C_3   0.853540 0.577514 0.919639 -0.441899
C19   C     C_3   0.351199 0.072969 0.072322 -0.462661
C20   C     C_3   0.853457 0.577293 0.072686 -0.446446
C21   C     C_R   0.613799 0.125137 0.500561 0.864489
C22   C     C_R   0.618888 0.879559 0.500745 0.856425
C23   C     C_R   0.114466 0.624452 0.500748 0.879372
C24   C     C_R   0.119253 0.379938 0.500771 0.861029
C25   C     C_R   0.323745 0.256448 0.574177 0.133580
C26   C     C_R   0.277683 0.787548 0.615619 0.148210
C27   C     C_R   0.820380 0.753171 0.580523 0.131497
C28   C     C_R   0.770694 0.294471 0.616204 0.144905
C29   C     C_R   0.308581 0.180527 0.501078 -0.207286
C30   C     C_R   0.299228 0.827065 0.494752 -0.223807
C31   C     C_R   0.807585 0.679538 0.501083 -0.190391
C32   C     C_R   0.797071 0.329341 0.494214 -0.223483
C33   C     C_R   0.221144 0.159538 0.451716 -0.081989
C34   C     C_R   0.239534 0.818618 0.380507 -0.038487
C35   C     C_R   0.721644 0.660054 0.444416 -0.081014
C36   C     C_R   0.740481 0.317935 0.377104 -0.037827
C37   C     C_R   0.656372 0.727606 0.440465 -0.062901
C38   C     C_R   0.668619 0.257877 0.383357 -0.074018
C39   C     C_R   0.155712 0.226900 0.447454 -0.071789
C40   C     C_R   0.167699 0.758711 0.387739 -0.068829
C41   C     C_R   0.678224 0.807556 0.504842 -0.175869
C42   C     C_R   0.661381 0.206566 0.501411 -0.226953
C43   C     C_R   0.179215 0.308517 0.504875 -0.209303
C44   C     C_R   0.163806 0.704392 0.502761 -0.224738
C45   C     C_R   0.755800 0.816307 0.583916 0.127308
C46   C     C_R   0.704623 0.233353 0.619768 0.118374
C47   C     C_R   0.259163 0.319686 0.577529 0.179249
C48   C     C_R   0.211880 0.726307 0.619344 0.143287
C49   C     C_3   0.824070 0.888027 0.586828 -0.468007
C50   C     C_3   0.752683 0.182481 0.727793 -0.404843
C51   C     C_3   0.327092 0.391369 0.569701 -0.469293
C52   C     C_3   0.264174 0.670574 0.717047 -0.457930
H1    H     H_    0.824134 0.925017 0.683564 0.224793
H2    H     H_    0.715060 0.183181 0.823674 0.246937
H3    H     H_    0.330165 0.431517 0.663361 0.226971
H4    H     H_    0.230953 0.666373 0.816367 0.230068
N1    N     N_R   0.499140 1.000000 0.142800 -0.167781
N2    N     N_R   0.999140 0.500000 0.142800 -0.153034
N3    N     N_R   0.499160 1.000000 0.857150 -0.163237
N4    N     N_R   0.999160 0.500000 0.857150 -0.155560
O1    O     O_R   0.408400 0.908380 0.614690 -0.597852
O2    O     O_R   0.408400 0.091620 0.614690 -0.608898
O3    O     O_R   0.908400 0.408380 0.614690 -0.598916
O4    O     O_R   0.908400 0.591620 0.614690 -0.611080
O5    O     O_R   0.408370 0.908370 0.385350 -0.650641
O6    O     O_R   0.408370 0.091630 0.385350 -0.638606
O7    O     O_R   0.908370 0.408370 0.385350 -0.653997
O8    O     O_R   0.908370 0.591630 0.385350 -0.641476
O9    O     O_R   0.591610 0.091610 0.614650 -0.634870
O10   O     O_R   0.591610 0.908390 0.614650 -0.641687
O11   O     O_R   0.091610 0.591610 0.614650 -0.641041
O12   O     O_R   0.091610 0.408390 0.614650 -0.619915
O13   O     O_R   0.591590 0.091600 0.385310 -0.656205
O14   O     O_R   0.591590 0.908400 0.385310 -0.624578
O15   O     O_R   0.091590 0.591600 0.385310 -0.597538
O16   O     O_R   0.091590 0.408400 0.385310 -0.648296
Zn1   Zn    Zn3+2 0.500010 0.000000 0.653130 0.937648
Zn2   Zn    Zn3+2 0.000010 0.500000 0.653130 0.944401
Zn3   Zn    Zn3+2 0.499980 0.000000 0.346870 0.932314
Zn4   Zn    Zn3+2 0.999980 0.500000 0.346870 0.947154
C53   C     C_2   0.199313 0.067819 0.413984 0.513755
H5    H     H_    0.252208 0.024157 0.381618 0.057044
O17   O     O_2   0.123433 0.038563 0.426562 -0.515298
C54   C     C_2   0.253144 0.867128 0.253062 0.481942
H6    H     H_    0.316422 0.861963 0.200521 0.086549
O18   O     O_2   0.192356 0.911482 0.203629 -0.537548
C55   C     C_2   0.700691 0.569476 0.399142 0.496379
H7    H     H_    0.754189 0.526577 0.366526 0.066468
O19   O     O_2   0.624438 0.540058 0.405462 -0.515159
C56   C     C_2   0.757274 0.363472 0.247991 0.487611
H8    H     H_    0.821508 0.356310 0.198500 0.080680
O20   O     O_2   0.698039 0.407481 0.193785 -0.535797
H9    H     H_    0.377843 0.134897 0.116169 0.223325
H10   H     H_    0.286833 0.050426 0.115511 0.237285
H11   H     H_    0.881782 0.637948 0.118480 0.228779
H12   H     H_    0.787979 0.556392 0.114250 0.234072
C57   C     C_2   0.568621 0.718036 0.366135 0.563560
H13   H     H_    0.508449 0.749806 0.403717 0.016090
O21   O     O_2   0.563589 0.677974 0.259476 -0.504085
C58   C     C_2   0.603998 0.245628 0.267507 0.549515
H14   H     H_    0.532718 0.236797 0.286700 0.046941
O22   O     O_2   0.629938 0.240711 0.151558 -0.560854
C59   C     C_2   0.066040 0.215447 0.379285 0.533097
H15   H     H_    0.007071 0.248671 0.418083 0.022596
O23   O     O_2   0.057997 0.172147 0.276035 -0.512988
C60   C     C_2   0.099357 0.749616 0.275956 0.607981
H16   H     H_    0.028909 0.739858 0.299794 0.023150
O24   O     O_2   0.121304 0.748214 0.157902 -0.526199
H17   H     H_    0.821159 0.928971 0.494457 0.212685
H18   H     H_    0.775959 0.117286 0.692285 0.203366
H19   H     H_    0.320945 0.429218 0.474446 0.210183
H20   H     H_    0.285568 0.607115 0.672530 0.191481
H21   H     H_    0.434858 0.316833 0.468611 0.198166
H22   H     H_    0.400969 0.715555 0.668285 0.199385
H23   H     H_    0.935082 0.816605 0.488346 0.198904
H24   H     H_    0.891507 0.225222 0.687724 0.203634
H25   H     H_    0.443478 0.319444 0.657746 0.222578
H26   H     H_    0.345810 0.775222 0.810896 0.220522
H27   H     H_    0.937391 0.813051 0.677637 0.219114
H28   H     H_    0.830408 0.290982 0.818149 0.219722
C61   C     C_2   0.661844 0.970463 0.153550 0.623288
H29   H     H_    0.685436 0.014677 0.231624 0.081000
O25   O     O_2   0.705338 0.904162 0.131029 -0.547468
C62   C     C_2   0.164178 0.486666 0.151760 0.594953
H30   H     H_    0.190653 0.425164 0.189597 0.070837
O26   O     O_2   0.208276 0.553181 0.167216 -0.548202
C63   C     C_2   0.667454 0.000979 0.861152 0.408149
H31   H     H_    0.672373 0.993991 0.754664 0.132374
O27   O     O_2   0.737388 0.019020 0.922093 -0.581010
C64   C     C_2   0.163927 0.472054 0.859266 0.440721
H32   H     H_    0.177196 0.505054 0.766440 0.111032
O28   O     O_2   0.220812 0.421001 0.903070 -0.600927
H33   H     H_    0.375981 0.132940 0.874905 0.226922
H34   H     H_    0.285736 0.047639 0.874224 0.217830
H35   H     H_    0.881885 0.638342 0.877121 0.224739
H36   H     H_    0.788279 0.556340 0.873139 0.216032

loop_
_geom_bond_atom_site_label_1
_geom_bond_atom_site_label_2
_ccdc_geom_bond_type
O8    Zn4   S    
C44   C48   A    
C55   H7    S    
C15   N3    A    
O5    Zn3   S    
C21   O13   A    
N1    Zn3   S    
O2    Zn1   S    
O9    Zn1   S    
N3    Zn1   S    
C37   C57   S    
C57   H13   S    
O6    Zn3   S    
C28   C46   A    
C33   C39   A    
C2    C29   S    
C34   C40   A    
C32   C36   A    
C62   O26   D    
C10   N2    A    
C54   O18   D    
C38   C42   A    
C16   N4    A    
C22   C41   S    
C60   H16   S    
C52   H20   S    
C29   C33   A    
C50   H18   S    
C7    C27   S    
C18   C20   S    
C5    H21   S    
C42   C46   A    
C7    H23   S    
C6    H22   S    
O12   Zn2   S    
C53   O17   D    
C33   C53   S    
C35   C55   S    
C9    C19   S    
C10   C20   S    
C1    O5    A    
C18   H36   S    
O15   Zn4   S    
C25   C47   A    
C40   C44   A    
C51   H3    S    
C19   H9    S    
C26   C48   A    
C12   N2    A    
C27   C45   A    
C20   H12   S    
O10   Zn1   S    
C11   C61   S    
C34   C54   S    
C57   O21   D    
C53   H5    S    
C25   C29   A    
C30   C34   A    
C27   C31   A    
C23   O11   A    
C28   C32   A    
C54   H6    S    
C7    C49   S    
C38   C58   S    
O1    Zn1   S    
C4    O8    A    
C24   O16   A    
C39   C43   A    
C23   C44   S    
C5    H25   S    
C64   O28   D    
C63   O27   D    
C7    H27   S    
C56   O20   D    
C12   C62   S    
C45   C49   S    
N4    Zn2   S    
C58   O22   D    
O13   Zn3   S    
C18   H35   S    
C59   O23   D    
C50   H2    S    
C61   H29   S    
C19   H10   S    
C5    C25   S    
C20   H11   S    
C12   C14   A    
C26   C30   A    
C3    O3    A    
O14   Zn3   S    
C55   O19   D    
C17   H33   S    
C8    C28   S    
C31   C35   A    
C22   O14   A    
C63   H31   S    
C8    C50   S    
C59   H15   S    
C24   O12   A    
C40   C60   S    
C14   C64   S    
C36   C56   S    
C15   C17   S    
C8    H28   S    
C46   C50   S    
C51   H19   S    
C35   C37   A    
O4    Zn2   S    
C3    O7    A    
O7    Zn4   S    
O16   Zn4   S    
C23   O15   A    
C2    O6    A    
C1    O1    A    
C47   C51   S    
C39   C59   S    
C13   N3    A    
N2    Zn4   S    
C14   N4    A    
C4    O4    A    
C36   C38   A    
C64   H32   S    
C9    C15   A    
C49   H17   S    
C10   C16   A    
C11   C13   A    
C56   H8    S    
C6    C26   S    
C60   O24   D    
C49   H1    S    
C1    C30   S    
C17   C19   S    
C22   O10   A    
C9    N1    A    
C37   C41   A    
C3    C32   S    
C61   O25   D    
C4    C31   S    
C8    H24   S    
C21   C42   S    
C13   C63   S    
C2    O2    A    
C48   C52   S    
C16   C18   S    
C21   O9    A    
C17   H34   S    
C24   C43   S    
C41   C45   A    
C5    C51   S    
C58   H14   S    
C6    C52   S    
C11   N1    A    
C43   C47   A    
C6    H26   S    
O11   Zn2   S    
C52   H4    S    
C62   H30   S    
O3    Zn2   S    
