data_str_m4_o1_o24_f0_acs.sym.29
_audit_creation_date              2013-03-05T15:45:46-0500
_audit_creation_method            fapswitch 2.2
_symmetry_space_group_name_H-M    P1
_symmetry_Int_Tables_number       1
_space_group_crystal_system       triclinic
_cell_length_a                    18.933169
_cell_length_b                    10.949043
_cell_length_c                    18.748961
_cell_angle_alpha                 90.043385
_cell_angle_beta                  90.822611
_cell_angle_gamma                 89.991702
_cell_volume                      3886.25942026

loop_
_atom_site_label
_atom_site_type_symbol
_atom_site_description
_atom_site_fract_x
_atom_site_fract_y
_atom_site_fract_z
_atom_type_partial_charge
O1    O     O_R   0.214270 0.709000 0.827470 -0.461834
O2    O     O_R   0.785730 0.709000 0.172530 -0.470328
O3    O     O_R   0.714270 0.209000 0.827470 -0.462241
O4    O     O_R   0.285730 0.209000 0.172530 -0.471033
O5    O     O_R   0.236160 0.958490 0.823130 -0.493585
O6    O     O_R   0.763840 0.958490 0.176870 -0.485065
O7    O     O_R   0.736160 0.458490 0.823130 -0.491263
O8    O     O_R   0.263840 0.458490 0.176870 -0.486268
C1    C     C_R   0.270861 0.045831 0.852472 0.550335
C2    C     C_R   0.728294 0.044757 0.146602 0.536264
C3    C     C_R   0.770859 0.545835 0.852469 0.552870
C4    C     C_R   0.228285 0.544738 0.146591 0.538476
O9    O     O_R   0.332080 0.075470 0.831280 -0.454723
O10   O     O_R   0.667920 0.075470 0.168720 -0.451806
O11   O     O_R   0.832080 0.575470 0.831280 -0.452275
O12   O     O_R   0.167920 0.575470 0.168720 -0.451463
O13   O     O_R   0.446300 0.918110 0.826620 -0.501151
O14   O     O_R   0.553700 0.918110 0.173380 -0.481031
O15   O     O_R   0.946300 0.418110 0.826620 -0.496507
O16   O     O_R   0.053700 0.418110 0.173380 -0.486410
C5    C     C_R   0.469967 0.822043 0.855636 0.540104
C6    C     C_R   0.530647 0.821413 0.143900 0.551328
C7    C     C_R   0.969946 0.322040 0.855649 0.546858
C8    C     C_R   0.030620 0.321415 0.143915 0.535150
O17   O     O_R   0.457110 0.716200 0.831760 -0.502783
O18   O     O_R   0.542890 0.716200 0.168240 -0.514850
O19   O     O_R   0.957110 0.216200 0.831760 -0.501297
O20   O     O_R   0.042890 0.216200 0.168240 -0.520656
O21   O     O_R   0.320980 0.624310 0.823030 -0.499180
O22   O     O_R   0.679020 0.624310 0.176970 -0.502985
O23   O     O_R   0.820980 0.124310 0.823030 -0.501066
O24   O     O_R   0.179020 0.124310 0.176970 -0.495142
C9    C     C_R   0.260057 0.634549 0.851454 0.550416
C10   C     C_R   0.739385 0.637956 0.147193 0.542238
C11   C     C_R   0.760059 0.134559 0.851460 0.547111
C12   C     C_R   0.239383 0.137965 0.147190 0.549300
O25   O     O_R   0.213890 0.710430 0.665540 -0.437862
O26   O     O_R   0.786110 0.710430 0.334460 -0.444159
O27   O     O_R   0.713890 0.210430 0.665540 -0.423563
O28   O     O_R   0.286110 0.210430 0.334460 -0.460541
O29   O     O_R   0.235810 0.959820 0.673020 -0.441338
O30   O     O_R   0.764190 0.959820 0.326980 -0.435169
O31   O     O_R   0.735810 0.459820 0.673020 -0.436062
O32   O     O_R   0.264190 0.459820 0.326980 -0.444820
C13   C     C_R   0.270263 0.049256 0.647282 0.584408
C14   C     C_R   0.727543 0.042515 0.356493 0.545661
C15   C     C_R   0.774026 0.538361 0.642075 0.561170
C16   C     C_R   0.229595 0.548548 0.353389 0.562189
O33   O     O_R   0.331700 0.076900 0.669350 -0.523609
O34   O     O_R   0.668300 0.076900 0.330650 -0.551864
O35   O     O_R   0.831700 0.576900 0.669350 -0.512383
O36   O     O_R   0.168300 0.576900 0.330650 -0.520755
O37   O     O_R   0.445950 0.919440 0.676520 -0.507806
O38   O     O_R   0.554050 0.919440 0.323480 -0.488787
O39   O     O_R   0.945950 0.419440 0.676520 -0.505581
O40   O     O_R   0.054050 0.419440 0.323480 -0.468967
C17   C     C_R   0.470724 0.824130 0.647462 0.603638
C18   C     C_R   0.562532 0.819947 0.360482 0.593198
C19   C     C_R   0.937903 0.319515 0.639457 0.589171
C20   C     C_R   0.028091 0.323614 0.351870 0.537362
O41   O     O_R   0.456730 0.717630 0.669840 -0.424343
O42   O     O_R   0.543270 0.717630 0.330160 -0.420035
O43   O     O_R   0.956730 0.217630 0.669840 -0.422928
O44   O     O_R   0.043270 0.217630 0.330160 -0.475342
O45   O     O_R   0.320620 0.625640 0.672920 -0.496710
O46   O     O_R   0.679380 0.625640 0.327080 -0.476820
O47   O     O_R   0.820620 0.125640 0.672920 -0.488390
O48   O     O_R   0.179380 0.125640 0.327080 -0.444185
C21   C     C_R   0.259660 0.633733 0.644102 0.567779
C22   C     C_R   0.743042 0.628916 0.352408 0.547710
C23   C     C_R   0.757631 0.129704 0.646726 0.560021
C24   C     C_R   0.239802 0.135666 0.356604 0.583577
Cr1   Cr    Cr6+3 0.229630 0.835900 0.747350 1.142814
Cr2   Cr    Cr6+3 0.770370 0.835900 0.252650 1.136061
Cr3   Cr    Cr6+3 0.729630 0.335900 0.747350 1.143104
Cr4   Cr    Cr6+3 0.270370 0.335900 0.252650 1.141334
Cr5   Cr    Cr6+3 0.387410 0.989850 0.750850 1.102169
Cr6   Cr    Cr6+3 0.612590 0.989850 0.249150 1.107864
Cr7   Cr    Cr6+3 0.887410 0.489850 0.750850 1.105780
Cr8   Cr    Cr6+3 0.112590 0.489850 0.249150 1.130077
Cr9   Cr    Cr6+3 0.385800 0.677120 0.749340 1.113534
Cr10  Cr    Cr6+3 0.614200 0.677120 0.250660 1.106083
Cr11  Cr    Cr6+3 0.885800 0.177120 0.749340 1.112652
Cr12  Cr    Cr6+3 0.114200 0.177120 0.250660 1.111508
O49   O     O_3   0.334280 0.834290 0.749180 -0.304835
O50   O     O_3   0.665720 0.834290 0.250820 -0.327116
O51   O     O_3   0.834280 0.334290 0.749180 -0.326260
O52   O     O_3   0.165720 0.334290 0.250820 -0.312314
C25   C     C_3   0.450069 0.897027 0.031779 -0.115350
C26   C     C_3   0.502665 0.945872 0.976059 -0.075690
C27   C     C_3   0.950027 0.397042 0.031800 -0.116749
C28   C     C_3   0.002629 0.445864 0.976078 -0.075216
C29   C     C_3   0.436702 0.782902 0.985129 -0.111502
C30   C     C_3   0.563785 0.877107 0.014254 -0.110230
C31   C     C_3   0.936648 0.282917 0.985151 -0.113355
C32   C     C_3   0.063741 0.377083 0.014276 -0.107852
H1    H     H_    0.383598 0.747288 0.971119 0.120884
H2    H     H_    0.616550 0.914916 0.028209 0.124732
H3    H     H_    0.883539 0.247329 0.971137 0.120619
H4    H     H_    0.116511 0.414871 0.028232 0.124089
H5    H     H_    0.408368 0.948920 0.059444 0.121480
H6    H     H_    0.504495 0.040521 0.955162 0.218644
H7    H     H_    0.908332 0.448943 0.059468 0.119023
H8    H     H_    0.004465 0.540508 0.955175 0.218596
C33   C     C_3   0.490020 0.831027 0.930761 0.031111
C34   C     C_3   0.510505 0.828094 0.068557 0.039071
C35   C     C_3   0.989974 0.331019 0.930783 0.029220
C36   C     C_3   0.010456 0.328093 0.068580 0.041197
C37   C     C_3   0.550344 0.762695 0.967724 -0.130501
C38   C     C_3   0.497474 0.713830 0.022736 -0.086860
C39   C     C_3   0.050289 0.262670 0.967752 -0.130186
C40   C     C_3   0.997411 0.213829 0.022763 -0.086722
H9    H     H_    0.591420 0.711056 0.939118 0.138841
H10   H     H_    0.494566 0.618447 0.042516 0.196565
H11   H     H_    0.091362 0.211009 0.939154 0.138755
H12   H     H_    0.994493 0.118450 0.042548 0.196463
C41   C     C_R   0.306558 0.543253 0.963699 -0.090079
C42   C     C_R   0.693585 0.545555 0.035057 -0.095743
C43   C     C_R   0.806560 0.043263 0.963710 -0.089579
C44   C     C_R   0.193580 0.045570 0.035054 -0.095820
H13   H     H_    0.354867 0.517624 0.937289 0.227352
H14   H     H_    0.648006 0.511830 0.063105 0.226453
H15   H     H_    0.854856 0.017592 0.937292 0.227486
H16   H     H_    0.148000 0.011850 0.063101 0.226519
C45   C     C_R   0.305312 0.539675 0.038013 0.182701
C46   C     C_R   0.694124 0.536687 0.960979 0.166813
C47   C     C_R   0.805324 0.039685 0.038026 0.182542
C48   C     C_R   0.194122 0.036699 0.960977 0.166906
C49   C     C_R   0.245722 0.586370 0.073938 -0.071665
C50   C     C_R   0.749728 0.592339 0.922812 -0.067852
C51   C     C_R   0.745753 0.086427 0.073961 -0.073604
C52   C     C_R   0.249730 0.092342 0.922812 -0.066567
C53   C     C_R   0.191160 0.644291 0.033631 0.198144
C54   C     C_R   0.799117 0.666312 0.959871 0.205971
C55   C     C_R   0.691213 0.144426 0.033667 0.199217
C56   C     C_R   0.299122 0.166308 0.959872 0.206373
C57   C     C_R   0.187714 0.626889 0.960227 0.211534
C58   C     C_R   0.805452 0.654982 0.033525 0.204274
C59   C     C_R   0.687743 0.127017 0.960261 0.211960
C60   C     C_R   0.305451 0.154986 0.033524 0.203378
C61   C     C_R   0.248862 0.588702 0.924151 -0.076077
C62   C     C_R   0.749316 0.601814 0.072393 -0.088447
C63   C     C_R   0.748869 0.088754 0.924170 -0.075822
C64   C     C_R   0.249313 0.101825 0.072390 -0.088420
C65   C     C_R   0.545725 0.735887 0.554520 0.178909
C66   C     C_R   0.560295 0.728030 0.481276 0.159063
C67   C     C_R   0.949750 0.219500 0.521576 0.217123
C68   C     C_R   0.959571 0.226007 0.448067 0.159216
C69   C     C_R   0.548964 0.830307 0.437314 -0.046141
C70   C     C_R   0.507062 0.835662 0.579821 -0.000047
C71   C     C_R   0.989986 0.332162 0.419015 -0.064074
C72   C     C_R   0.952379 0.327152 0.562858 -0.043219
C73   C     C_R   0.521695 0.938763 0.467324 0.242823
C74   C     C_R   0.494858 0.937330 0.535393 0.261867
C75   C     C_R   0.994349 0.438487 0.460793 0.267831
C76   C     C_R   0.968168 0.439160 0.529256 0.212653
C77   C     C_R   0.189583 0.623812 0.535146 0.146063
C78   C     C_R   0.820884 0.610610 0.456717 0.157520
C79   C     C_R   0.681334 0.109281 0.541725 0.162102
C80   C     C_R   0.308928 0.129006 0.466556 0.151576
C81   C     C_R   0.194233 0.644419 0.463147 -0.189170
C82   C     C_R   0.814146 0.622722 0.529533 -0.141319
C83   C     C_R   0.688091 0.126825 0.469308 -0.190026
C84   C     C_R   0.305273 0.147340 0.538663 -0.153378
H17   H     H_    0.149440 0.685992 0.436043 0.225832
H18   H     H_    0.852977 0.675838 0.558816 0.250311
H19   H     H_    0.647999 0.178518 0.441195 0.215823
H20   H     H_    0.350992 0.186278 0.565532 0.225209
C85   C     C_R   0.248696 0.590548 0.424741 -0.022704
C86   C     C_R   0.762734 0.556348 0.565407 -0.047800
C87   C     C_R   0.741437 0.067209 0.432164 -0.032489
C88   C     C_R   0.250712 0.093932 0.577062 -0.012300
C89   C     C_R   0.308287 0.542145 0.460430 0.276120
C90   C     C_R   0.714143 0.483273 0.526005 0.233689
C91   C     C_R   0.794111 0.001551 0.470238 0.286791
C92   C     C_R   0.190054 0.049081 0.542021 0.213468
C93   C     C_R   0.307921 0.534476 0.535272 0.182709
C94   C     C_R   0.714576 0.486588 0.450984 0.221360
C95   C     C_R   0.792329 0.998031 0.545253 0.209855
C96   C     C_R   0.187473 0.051355 0.466925 0.179544
C97   C     C_R   0.249551 0.582895 0.572729 -0.031447
C98   C     C_R   0.763060 0.563465 0.417449 -0.033291
C99   C     C_R   0.740157 0.065624 0.580392 -0.026807
C100  C     C_R   0.247835 0.091275 0.429303 0.006172
N1    N     N_R   0.123436 0.641240 0.570272 0.103902
O53   O     O_R   0.076882 0.718528 0.545767 -0.267090
O54   O     O_R   0.108920 0.575734 0.626119 -0.359847
N2    N     N_R   0.885110 0.648153 0.422426 0.149336
O55   O     O_R   0.930300 0.718788 0.455119 -0.217045
O56   O     O_R   0.903420 0.597510 0.362570 -0.299644
N3    N     N_R   0.615704 0.136940 0.576276 0.102302
O57   O     O_R   0.567237 0.201449 0.544005 -0.285376
O58   O     O_R   0.600241 0.083123 0.635982 -0.366806
N4    N     N_R   0.374737 0.149799 0.431207 0.162558
O59   O     O_R   0.417770 0.235010 0.453187 -0.223744
O60   O     O_R   0.392105 0.081817 0.377168 -0.262723
O61   O     O_3   0.364354 0.499894 0.420818 -0.620049
H21   H     H_    0.404967 0.481150 0.452789 0.399550
O62   O     O_3   0.666974 0.410282 0.561639 -0.634315
H22   H     H_    0.627981 0.388286 0.528656 0.397974
O63   O     O_3   0.845408 0.940062 0.433070 -0.593602
H23   H     H_    0.884195 0.918006 0.466189 0.407072
O64   O     O_3   0.135586 0.002713 0.582238 -0.646439
H24   H     H_    0.106819 0.946210 0.552751 0.375258
O65   O     O_3   0.363599 0.477156 0.569857 -0.654811
H25   H     H_    0.345239 0.437986 0.613498 0.341762
O66   O     O_3   0.667379 0.415516 0.412314 -0.672703
H26   H     H_    0.684629 0.407120 0.362874 0.340843
O67   O     O_3   0.840570 0.926767 0.582398 -0.664232
H27   H     H_    0.822420 0.911531 0.630928 0.342456
O68   O     O_3   0.127267 0.016255 0.429786 -0.635482
H28   H     H_    0.085538 0.043902 0.456703 0.350603
O69   O     O_3   0.364376 0.495363 0.073228 -0.609872
H29   H     H_    0.367764 0.535506 0.120520 0.338112
O70   O     O_3   0.638590 0.476336 0.928179 -0.604488
H30   H     H_    0.630426 0.513588 0.880643 0.340802
O71   O     O_3   0.864380 0.995323 0.073235 -0.609941
H31   H     H_    0.867782 0.035456 0.120530 0.334637
O72   O     O_3   0.138589 0.976347 0.928176 -0.604641
H32   H     H_    0.130426 0.013598 0.880640 0.340633
N5    N     N_R   0.138971 0.720440 0.066997 0.140029
O73   O     O_R   0.072445 0.712526 0.049153 -0.228751
O74   O     O_R   0.158286 0.798591 0.115841 -0.343812
N6    N     N_R   0.844264 0.749946 0.922353 0.119060
O75   O     O_R   0.910492 0.762889 0.940351 -0.222896
O76   O     O_R   0.819093 0.812042 0.868520 -0.364920
N7    N     N_R   0.639070 0.220648 0.067052 0.140331
O77   O     O_R   0.572543 0.212915 0.049181 -0.228457
O78   O     O_R   0.658426 0.298671 0.115952 -0.352604
N8    N     N_R   0.344281 0.249924 0.922355 0.119004
O79   O     O_R   0.410513 0.262826 0.940349 -0.223151
O80   O     O_R   0.319118 0.312040 0.868527 -0.365139
O81   O     O_3   0.125954 0.657392 0.924546 -0.591883
H33   H     H_    0.120652 0.601037 0.883346 0.328175
O82   O     O_3   0.864899 0.703445 0.066162 -0.559865
H34   H     H_    0.880367 0.645283 0.103759 0.336152
O83   O     O_3   0.625982 0.157563 0.924595 -0.591597
H35   H     H_    0.620647 0.101188 0.883407 0.327794
O84   O     O_3   0.364897 0.203447 0.066163 -0.560544
H36   H     H_    0.380369 0.145274 0.103752 0.336880
O85   O     O_3   0.565615 0.644981 0.601516 -0.644144
H37   H     H_    0.610105 0.609512 0.584372 0.353890
O86   O     O_3   0.582101 0.620006 0.451151 -0.641425
H38   H     H_    0.562771 0.551690 0.479458 0.371411
O87   O     O_3   0.936611 0.108866 0.553705 -0.602273
H39   H     H_    0.959276 0.043619 0.525442 0.378091
O88   O     O_3   0.942435 0.125469 0.406983 -0.644341
H40   H     H_    0.925779 0.155067 0.359675 0.349007
O89   O     O_3   0.516392 0.046798 0.430738 -0.520878
H41   H     H_    0.562399 0.062456 0.409072 0.339740
O90   O     O_3   0.452933 0.034043 0.554782 -0.602008
H42   H     H_    0.473393 0.070272 0.598665 0.392227
O91   O     O_3   0.029295 0.540604 0.438241 -0.526309
H43   H     H_    0.079121 0.514730 0.434332 0.314899
O92   O     O_3   0.959073 0.550808 0.561096 -0.601772
H44   H     H_    0.990807 0.555724 0.602686 0.406854

loop_
_geom_bond_atom_site_label_1
_geom_bond_atom_site_label_2
_geom_bond_distance
_ccdc_geom_bond_type
C18   O42   1.305536 A    
C78   C82   1.379290 A    
Cr11  O51   1.977952 S    
O64   H24   0.987905 S    
O4    C12   1.260277 A    
C53   C57   1.389843 A    
O39   C19   1.303435 A    
C59   O83   1.379907 S    
C43   C63   1.402806 A    
O63   H23   0.985020 S    
N4    O60   1.302703 A    
C67   C68   1.395205 A    
C44   C64   1.400408 A    
C68   C71   1.410456 A    
C28   C32   1.547759 S    
C56   C60   1.390004 A    
N6    O75   1.301571 A    
O26   C22   1.258262 A    
C65   C66   1.407111 A    
O1    C9    1.267826 A    
O90   H42   0.987294 S    
C19   C72   1.468375 S    
O15   Cr7   1.958121 S    
O7    C3    1.279759 A    
C88   C92   1.403476 A    
O89   H41   0.981541 S    
C55   N7    1.442099 S    
O36   Cr8   2.075494 S    
C81   H17   1.082831 S    
C80   C84   1.369334 A    
O84   H36   0.991405 S    
C77   N1    1.435957 S    
C51   C55   1.420715 A    
C31   C40   1.539569 S    
O35   Cr7   2.076417 S    
O30   C14   1.271805 A    
O91   H43   0.988649 S    
C31   H3    1.106485 S    
C52   C56   1.412047 A    
N1    O54   1.302221 A    
C40   H12   1.110147 S    
O20   Cr12  2.082013 S    
C74   O90   1.375125 S    
C30   H2    1.109192 S    
C87   C91   1.414589 A    
O86   H38   0.990628 S    
O21   C9    1.282408 A    
O8    Cr4   1.957896 S    
O23   Cr11  1.949213 S    
C14   C87   1.464200 S    
N2    O56   1.302783 A    
O85   H37   0.985481 S    
C42   H14   1.082131 S    
N6    O76   1.302008 A    
C2    O10   1.266866 A    
O32   Cr4   1.948984 S    
C93   C97   1.420241 A    
C1    O9    1.272851 A    
C2    C51   1.478587 S    
O44   Cr12  2.068384 S    
O38   Cr6   1.952212 S    
C69   C73   1.414350 A    
C29   C33   1.538270 S    
C82   H18   1.080840 S    
C3    O11   1.272857 A    
C22   C98   1.460218 S    
C26   H6    1.108904 S    
C4    O12   1.266834 A    
O33   Cr5   2.076417 S    
C25   C34   1.527202 S    
C45   O69   1.378759 S    
O82   H34   0.991409 S    
O6    Cr2   1.957896 S    
C8    C36   1.459712 S    
O27   Cr3   2.076674 S    
C15   O35   1.271092 A    
C83   C87   1.396605 A    
O81   H33   0.992262 S    
Cr4   O52   1.981241 S    
C70   C74   1.407894 A    
O47   C23   1.283988 A    
C65   C70   1.401163 A    
O2    Cr2   2.069026 S    
C18   C69   1.471167 S    
C37   H9    1.106139 S    
C29   C38   1.539555 S    
C81   C85   1.396490 A    
O2    C10   1.260282 A    
C44   C48   1.392363 A    
O10   Cr6   2.073163 S    
O24   C12   1.287915 A    
O42   Cr10  2.068384 S    
Cr5   O49   1.978224 S    
O62   H22   0.985976 S    
O18   Cr10  2.082013 S    
O87   H39   0.990530 S    
C17   C70   1.457025 S    
O17   Cr9   2.081612 S    
C92   O64   1.383050 S    
C58   O82   1.379390 S    
C50   C54   1.412044 A    
C67   O87   1.377528 S    
C77   C97   1.401314 A    
C48   C52   1.419200 A    
Cr7   O51   1.978224 S    
C14   O34   1.272475 A    
C26   C30   1.547772 S    
C95   C99   1.405406 A    
O31   Cr3   1.950476 S    
C41   C61   1.402795 A    
O24   Cr12  1.948485 S    
C32   C39   1.545013 S    
O11   Cr7   2.071995 S    
O30   Cr2   1.948984 S    
C4    C49   1.478571 S    
O22   C10   1.287921 A    
C89   O61   1.383620 S    
O66   H26   0.991418 S    
O48   Cr12  1.960554 S    
C72   C76   1.413143 A    
C84   H20   1.082642 S    
C91   O63   1.378651 S    
O37   C17   1.269715 A    
O67   H27   0.991492 S    
C5    O17   1.264449 A    
C58   C62   1.422178 A    
O72   H32   0.990542 S    
O16   Cr8   1.957389 S    
O7    Cr3   1.956445 S    
C41   H13   1.083141 S    
O26   Cr2   2.078155 S    
C9    C61   1.471055 S    
O71   H31   0.990606 S    
C6    C34   1.459751 S    
C56   N8    1.443055 S    
C68   O88   1.379128 S    
O13   C5    1.263662 A    
O28   Cr4   2.078155 S    
O43   Cr11  2.068950 S    
N2    O55   1.300120 A    
O12   Cr8   2.073163 S    
C20   C71   1.462871 S    
Cr12  O52   1.978193 S    
C66   O86   1.376194 S    
C96   O68   1.381592 S    
O15   C7    1.263656 A    
O70   H30   0.990543 S    
N3    O58   1.302486 A    
O68   H28   0.990790 S    
O21   Cr9   1.949213 S    
N5    O73   1.301450 A    
C79   N3    1.441555 S    
O46   Cr10  1.960554 S    
C66   C69   1.405594 A    
O39   Cr7   1.951252 S    
O25   C21   1.275526 A    
C28   C35   1.533751 S    
O45   Cr9   1.960035 S    
N7    O77   1.301452 A    
C82   C86   1.395625 A    
O3    C11   1.267813 A    
C83   H19   1.078508 S    
O8    C4    1.287192 A    
C7    C35   1.456810 S    
C94   O66   1.382196 S    
O13   Cr5   1.958121 S    
C13   O33   1.265672 A    
C90   O62   1.378677 S    
C65   O85   1.378622 S    
C59   C63   1.412330 A    
O47   Cr11  1.960035 S    
Cr2   O50   1.981241 S    
N8    O80   1.302000 A    
C78   C98   1.408375 A    
C48   O72   1.378900 S    
Cr1   O49   1.981237 S    
C94   C98   1.401455 A    
C31   C35   1.538279 S    
C49   C53   1.420757 A    
C80   C100  1.404613 A    
O65   H25   0.991462 S    
Cr3   O51   1.981237 S    
O14   Cr6   1.957389 S    
N7    O78   1.301503 A    
N5    O74   1.301487 A    
C7    O19   1.264429 A    
C57   C61   1.412283 A    
O9    Cr5   2.071995 S    
N8    O79   1.301571 A    
O37   Cr5   1.951252 S    
C79   C83   1.379184 A    
C19   O43   1.300390 A    
C84   C88   1.396255 A    
C89   C93   1.405894 A    
C57   O81   1.379907 S    
O92   H44   0.978983 S    
C3    C50   1.474046 S    
C77   C81   1.372870 A    
C38   H10   1.110149 S    
O34   Cr6   2.075494 S    
C15   C86   1.463671 S    
O3    Cr3   2.070610 S    
C47   O71   1.378764 S    
C8    O20   1.259665 A    
C80   N4    1.437884 S    
O38   C18   1.300638 A    
C1    C52   1.474014 S    
C36   C40   1.535089 S    
N3    O57   1.300597 A    
O45   C21   1.270448 A    
C33   C37   1.523919 S    
C10   C62   1.471557 S    
C54   N6    1.443060 S    
O27   C23   1.264594 A    
O22   Cr10  1.948485 S    
O28   C24   1.273713 A    
C39   C40   1.543592 S    
C25   H5    1.107425 S    
O14   C6    1.268569 A    
C24   C100  1.453371 S    
C35   C39   1.523922 S    
C27   C36   1.527204 S    
C90   C94   1.407192 A    
C60   C64   1.422166 A    
C26   C33   1.533756 S    
C27   H7    1.107420 S    
O31   C15   1.269904 A    
C42   C62   1.400413 A    
C78   N2    1.443589 S    
O6    C2    1.287165 A    
C91   C95   1.407907 A    
O88   H40   0.991755 S    
C76   O92   1.371920 S    
C17   O41   1.268849 A    
C86   C90   1.418479 A    
C43   H15   1.083138 S    
C54   C58   1.390039 A    
C53   N5    1.442080 S    
O5    Cr1   1.956445 S    
C95   O67   1.382181 S    
C30   C37   1.545041 S    
O25   Cr1   2.076674 S    
C71   C75   1.404426 A    
O40   Cr8   1.952212 S    
O29   C13   1.275623 A    
C20   O44   1.263888 A    
C55   C59   1.389895 A    
O1    Cr1   2.070610 S    
C47   C51   1.417421 A    
O19   Cr11  2.081612 S    
C67   C72   1.410110 A    
C25   C26   1.549164 S    
C13   C88   1.447934 S    
Cr8   O52   1.978013 S    
O32   C16   1.275296 A    
Cr10  O50   1.978193 S    
C37   C38   1.543597 S    
C39   H11   1.106137 S    
C75   O91   1.369521 S    
C85   C89   1.407203 A    
Cr6   O50   1.978013 S    
N1    O53   1.301083 A    
O46   C22   1.289636 A    
C73   O89   1.370783 S    
O69   H29   0.990595 S    
O83   H35   0.992268 S    
C32   H4    1.109186 S    
C29   H1    1.106493 S    
C93   O65   1.380728 S    
N4    O59   1.301573 A    
O23   C11   1.282439 A    
C60   O84   1.379382 S    
C25   C29   1.543544 S    
O61   H21   0.989738 S    
Cr9   O49   1.977952 S    
O4    Cr4   2.069026 S    
C30   C34   1.540335 S    
C46   O70   1.378903 S    
C28   H8    1.108897 S    
O29   Cr1   1.950476 S    
C16   C85   1.455040 S    
C44   H16   1.082130 S    
C16   O36   1.269168 A    
O40   C20   1.278362 A    
C92   C96   1.408372 A    
C27   C31   1.543566 S    
C34   C38   1.535091 S    
C45   C49   1.417425 A    
C6    O18   1.259655 A    
C11   C63   1.471110 S    
C75   C76   1.382631 A    
C46   C50   1.419201 A    
C32   C36   1.540324 S    
O41   Cr9   2.068950 S    
O5    C1    1.279769 A    
C42   C46   1.392378 A    
C79   C99   1.404129 A    
C73   C74   1.380532 A    
C12   C64   1.471546 S    
C41   C45   1.394434 A    
O16   C8    1.268594 A    
C5    C33   1.456757 S    
C27   C28   1.549170 S    
C96   C100  1.420722 A    
C21   C97   1.459009 S    
O48   C24   1.268421 A    
C23   C99   1.461308 S    
C43   C47   1.394465 A    
