data_str_m9_o16_o23_f0_sra.sym.11
_audit_creation_date              2012-12-11T15:12:39-0500
_audit_creation_method            fapswitch 2.2
_symmetry_space_group_name_H-M    P1
_symmetry_Int_Tables_number       1
_space_group_crystal_system       triclinic
_cell_length_a                    22.246399
_cell_length_b                    6.978581
_cell_length_c                    19.403579
_cell_angle_alpha                 89.998259
_cell_angle_beta                  99.260725
_cell_angle_gamma                 89.999615
_cell_volume                      2973.11012123

loop_
_atom_site_label
_atom_site_type_symbol
_atom_type_description
_atom_site_fract_x
_atom_site_fract_y
_atom_site_fract_z
_atom_type_partial_charge
O1    O     O_R   0.448420 0.506120 0.415750 -0.530655
O2    O     O_R   0.551580 0.006120 0.584250 -0.530672
O3    O     O_R   0.436490 0.174470 0.555610 -0.525528
O4    O     O_R   0.563510 0.674470 0.444390 -0.525513
C1    C     C_R   0.421941 0.344025 0.576659 0.709335
C2    C     C_R   0.578058 0.844028 0.423340 0.709347
O5    O     O_R   0.441310 0.176330 0.414520 -0.543208
O6    O     O_R   0.558690 0.676330 0.585480 -0.543204
O7    O     O_R   0.556430 0.007110 0.442150 -0.531545
O8    O     O_R   0.443570 0.507110 0.557850 -0.531530
C3    C     C_R   0.427535 0.344624 0.387882 0.793519
C4    C     C_R   0.572466 0.844617 0.612118 0.793508
O9    O     O_3   0.537770 0.339560 0.509230 -0.371166
O10   O     O_3   0.462230 0.839560 0.490770 -0.371162
V1    V     V_3+5 0.492990 0.064280 0.498290 1.487995
V2    V     V_3+5 0.507010 0.564280 0.501710 1.488025
C5    C     C_R   0.866593 0.998403 0.696418 -0.008356
C6    C     C_R   0.133402 0.498285 0.303584 -0.008349
H1    H     H_    0.953390 0.027163 0.763759 0.145499
H2    H     H_    0.046604 0.527046 0.236244 0.145497
H3    H     H_    0.780019 0.972961 0.580495 0.120639
H4    H     H_    0.219973 0.472763 0.419508 0.120644
C7    C     C_R   0.884075 0.941950 0.821800 -0.085951
C8    C     C_R   0.115926 0.441929 0.178199 -0.085949
C9    C     C_R   0.587954 0.804861 0.742203 -0.109740
C10   C     C_R   0.412057 0.305037 0.257792 -0.109720
C11   C     C_R   0.627533 0.781648 0.805965 0.376495
C12   C     C_R   0.372484 0.281925 0.194023 0.376551
C13   C     C_R   0.689874 0.818293 0.810741 -0.255268
C14   C     C_R   0.310140 0.318499 0.189248 -0.255267
C15   C     C_R   0.716099 0.869231 0.751728 0.035994
C16   C     C_R   0.283906 0.369287 0.248267 0.036004
C17   C     C_R   0.676715 0.879960 0.685986 0.032642
C18   C     C_R   0.323286 0.379947 0.314013 0.032654
C19   C     C_R   0.780303 0.906851 0.755761 0.108119
C20   C     C_R   0.219699 0.406852 0.244236 0.108125
C21   C     C_R   0.803701 0.953466 0.693427 0.053400
C22   C     C_R   0.196296 0.453381 0.306574 0.053397
C23   C     C_R   0.763964 0.951043 0.629357 -0.213837
C24   C     C_R   0.236031 0.450907 0.370645 -0.213839
C25   C     C_R   0.702131 0.917379 0.625789 -0.157686
C26   C     C_R   0.297865 0.417266 0.374212 -0.157671
C27   C     C_R   0.822072 0.900943 0.819611 -0.221948
C28   C     C_R   0.177931 0.400966 0.180386 -0.221939
C29   C     C_R   0.905639 0.990701 0.760696 -0.147379
C30   C     C_R   0.094357 0.490614 0.239306 -0.147381
C31   C     C_R   0.612737 0.849197 0.681127 -0.175973
C32   C     C_R   0.387266 0.349232 0.318872 -0.175991
H5    H     H_    0.807976 0.868685 0.868892 0.095339
H6    H     H_    0.192030 0.368747 0.131103 0.095334
H7    H     H_    0.716464 0.802919 0.861913 0.126994
H8    H     H_    0.283554 0.303217 0.138072 0.126985
H9    H     H_    0.674260 0.920216 0.574681 0.091156
H10   H     H_    0.325733 0.420054 0.425322 0.091137
C33   C     C_3   0.810047 0.782339 0.263059 -0.396608
C34   C     C_3   0.189947 0.282331 0.736938 -0.396602
C35   C     C_3   0.777935 0.121749 0.240866 -0.267768
C36   C     C_3   0.222064 0.621732 0.759129 -0.267778
C37   C     C_3   0.727228 0.100017 0.288680 0.286383
C38   C     C_3   0.272766 0.599992 0.711310 0.286372
H11   H     H_    0.820671 0.642489 0.240630 0.142194
H12   H     H_    0.179317 0.142484 0.759367 0.142186
H13   H     H_    0.821465 0.161713 0.274688 0.148214
H14   H     H_    0.178534 0.661715 0.725310 0.148202
H15   H     H_    0.687296 0.189404 0.266167 0.130085
H16   H     H_    0.312699 0.689379 0.733816 0.130091
C39   C     C_1   0.622213 0.851791 0.375922 -0.154551
C40   C     C_1   0.377784 0.351780 0.624074 -0.154556
C41   C     C_3   0.788395 0.927791 0.204164 0.077793
C42   C     C_3   0.211601 0.427773 0.795832 0.077807
C43   C     C_3   0.761436 0.752712 0.311544 0.345993
C44   C     C_3   0.238559 0.252688 0.688455 0.346000
C45   C     C_3   0.705188 0.885633 0.288319 0.060840
C46   C     C_3   0.294807 0.385608 0.711676 0.060853
C47   C     C_3   0.677034 0.837225 0.210497 -0.333076
C48   C     C_3   0.322961 0.337197 0.789499 -0.333099
C49   C     C_3   0.726575 0.858340 0.161267 0.258476
C50   C     C_3   0.273420 0.358300 0.838729 0.258480
C51   C     C_1   0.659112 0.863330 0.336165 0.063153
C52   C     C_1   0.340883 0.363310 0.663830 0.063162
C53   C     C_1   0.836395 0.941553 0.158568 -0.025031
C54   C     C_1   0.163603 0.441546 0.841429 -0.025040
C55   C     C_1   0.875158 0.945354 0.121030 -0.199680
C56   C     C_1   0.124840 0.445355 0.878968 -0.199677
H17   H     H_    0.709408 0.972851 0.122961 0.090843
H18   H     H_    0.290589 0.472791 0.877040 0.090851
H19   H     H_    0.853502 0.834961 0.293641 0.168146
H20   H     H_    0.146495 0.334973 0.706355 0.168150
H21   H     H_    0.745233 0.602455 0.305065 0.091084
H22   H     H_    0.254762 0.102430 0.694940 0.091086
H23   H     H_    0.641456 0.947508 0.193750 0.081542
H24   H     H_    0.358537 0.447483 0.806244 0.081572
O11   O     O_R   0.056480 0.288780 0.942210 -0.533634
O12   O     O_R   0.943520 0.788780 0.057790 -0.533632
O13   O     O_R   0.058700 0.616820 0.085490 -0.538170
O14   O     O_R   0.941300 0.116820 0.914510 -0.538176
C57   C     C_R   0.073544 0.448392 0.111338 0.702622
C58   C     C_R   0.926457 0.948397 0.888661 0.702615
O15   O     O_R   0.063520 0.618570 0.944410 -0.539231
O16   O     O_R   0.936480 0.118570 0.055590 -0.539230
O17   O     O_R   0.948420 0.787670 0.915740 -0.533631
O18   O     O_R   0.051580 0.287670 0.084260 -0.533632
C59   C     C_R   0.078778 0.450620 0.924011 0.725181
C60   C     C_R   0.921221 0.950618 0.075988 0.725181
O19   O     O_3   0.962260 0.453430 0.990800 -0.368058
O20   O     O_3   0.037740 0.953430 0.009200 -0.368057
V3    V     V_3+5 0.007000 0.728750 0.001710 1.421289
V4    V     V_3+5 0.993000 0.228750 0.998290 1.421286
C61   C     C_2   0.764604 0.281875 0.188383 0.326775
H25   H     H_    0.802003 0.365560 0.174720 0.091408
O21   O     O_2   0.713107 0.310197 0.157541 -0.523150
C62   C     C_2   0.235403 0.781846 0.811611 0.326767
H26   H     H_    0.198007 0.865545 0.825276 0.091433
O22   O     O_2   0.286901 0.810143 0.842452 -0.523139
O23   O     O_3   0.751362 0.160747 0.357661 -0.533617
C63   C     C_3   0.708054 0.261519 0.390272 0.139344
H27   H     H_    0.659757 0.227333 0.369233 0.138632
H28   H     H_    0.713599 0.417469 0.384112 0.138557
C64   C     C_3   0.718899 0.215596 0.467734 -0.692267
H29   H     H_    0.766087 0.255114 0.491278 0.216586
H30   H     H_    0.686241 0.296271 0.494401 0.176525
H31   H     H_    0.712312 0.059877 0.475043 0.221666
O24   O     O_3   0.248627 0.660713 0.642328 -0.533616
C65   C     C_3   0.291928 0.761496 0.609711 0.139318
H32   H     H_    0.340227 0.727318 0.630746 0.138623
H33   H     H_    0.286379 0.917445 0.615869 0.138552
C66   C     C_3   0.281081 0.715574 0.532249 -0.692230
H34   H     H_    0.233888 0.755060 0.508709 0.216599
H35   H     H_    0.313729 0.796274 0.505576 0.176512
H36   H     H_    0.287679 0.559860 0.524943 0.221655
O25   O     O_3   0.735769 0.683027 0.126925 -0.535739
C67   C     C_3   0.730726 0.708793 0.053803 0.123277
H37   H     H_    0.759329 0.830199 0.040735 0.101631
H38   H     H_    0.682515 0.737093 0.030684 0.124114
C68   C     C_3   0.752315 0.528870 0.020894 -0.671612
H39   H     H_    0.721042 0.407692 0.026103 0.237190
H40   H     H_    0.753190 0.554417 0.964604 0.153246
H41   H     H_    0.799054 0.491073 0.046693 0.215979
O26   O     O_3   0.264223 0.182974 0.873064 -0.535746
C69   C     C_3   0.269255 0.208708 0.946186 0.123301
H42   H     H_    0.240676 0.330170 0.959256 0.101621
H43   H     H_    0.317469 0.236893 0.969317 0.124117
C70   C     C_3   0.247620 0.028826 0.979076 -0.671743
H44   H     H_    0.278862 0.907573 0.973856 0.237222
H45   H     H_    0.246748 0.054345 0.035368 0.153227
H46   H     H_    0.200873 0.991158 0.953270 0.215992
C71   C     C_2   0.642395 0.649299 0.199278 0.518578
H47   H     H_    0.619902 0.612970 0.147053 0.075481
O27   O     O_2   0.638100 0.539110 0.247090 -0.543744
C72   C     C_2   0.357604 0.149275 0.800721 0.518588
H48   H     H_    0.380099 0.112946 0.852947 0.075458
O28   O     O_2   0.361900 0.039087 0.752910 -0.543725
C73   C     C_2   0.892789 0.062382 0.634234 0.358400
H49   H     H_    0.864474 0.124382 0.589148 0.044604
O29   O     O_2   0.947409 0.049992 0.633203 -0.524583
C74   C     C_2   0.107203 0.562198 0.365773 0.358388
H50   H     H_    0.135514 0.624179 0.410862 0.044611
O30   O     O_2   0.052583 0.549774 0.366801 -0.524581
C75   C     C_2   0.521140 0.779344 0.741837 0.359928
H51   H     H_    0.504950 0.716796 0.786641 0.097755
O31   O     O_2   0.483123 0.831999 0.693007 -0.527220
C76   C     C_2   0.478874 0.279567 0.258160 0.359939
H52   H     H_    0.495070 0.217094 0.213345 0.097767
O32   O     O_2   0.516886 0.332177 0.307007 -0.527210
O33   O     O_3   0.604853 0.730686 0.865730 -0.563593
C77   C     C_3   0.609286 0.529537 0.873419 0.063030
H53   H     H_    0.657814 0.484774 0.885945 0.131011
H54   H     H_    0.587524 0.453952 0.825120 0.113262
C78   C     C_3   0.576640 0.466975 0.932792 -0.691044
H55   H     H_    0.527691 0.506315 0.920742 0.216362
H56   H     H_    0.580484 0.309205 0.939616 0.189358
H57   H     H_    0.597233 0.537372 0.982260 0.221922
O34   O     O_3   0.395177 0.231169 0.134250 -0.563594
C79   C     C_3   0.390754 0.030056 0.126484 0.062835
H58   H     H_    0.342234 0.985342 0.113877 0.131112
H59   H     H_    0.412466 0.954321 0.174766 0.113323
C80   C     C_3   0.423469 0.967685 0.067156 -0.691164
H60   H     H_    0.472411 0.006952 0.079292 0.216357
H61   H     H_    0.419624 0.809955 0.060259 0.189403
H62   H     H_    0.402935 0.038259 0.017710 0.221918
O35   O     O_3   0.785896 0.790562 0.382522 -0.524528
C81   C     C_3   0.827965 0.648159 0.411245 0.096404
H63   H     H_    0.874087 0.683547 0.399994 0.151526
H64   H     H_    0.815890 0.501833 0.390944 0.127745
C82   C     C_3   0.830821 0.645225 0.490075 -0.668489
H65   H     H_    0.784767 0.618583 0.503244 0.209518
H66   H     H_    0.862109 0.530032 0.513340 0.189344
H67   H     H_    0.847886 0.784995 0.512544 0.227154
O36   O     O_3   0.214100 0.290524 0.617475 -0.524531
C83   C     C_3   0.172024 0.148131 0.588764 0.096398
H68   H     H_    0.125904 0.183546 0.600014 0.151531
H69   H     H_    0.184095 0.001808 0.609074 0.127739
C84   C     C_3   0.169165 0.145167 0.509933 -0.668486
H70   H     H_    0.215218 0.118518 0.496762 0.209523
H71   H     H_    0.137877 0.029968 0.486678 0.189351
H72   H     H_    0.152097 0.284929 0.487455 0.227140

loop_
_geom_bond_atom_site_label_1
_geom_bond_atom_site_label_2
_ccdc_geom_bond_type
C40   C52   T    
C70   H46   S    
O15   C59   A    
O17   V3    S    
C83   H68   S    
C7    C29   A    
C68   H41   S    
C45   C47   S    
C78   H55   S    
C43   O35   S    
C41   C49   S    
C71   H47   S    
O1    C3    A    
C69   C70   S    
O2    C4    A    
C50   O26   S    
O11   C59   A    
C2    O7    A    
C62   O22   D    
O3    V1    S    
C68   H39   S    
C23   C25   A    
O35   C81   S    
O5    C3    A    
O19   V3    S    
O33   C77   S    
C46   C48   S    
C36   C62   S    
C16   C20   A    
C74   H50   S    
C19   C21   A    
C5    C29   A    
C26   H10   S    
C61   O21   D    
O11   V4    S    
C12   O34   S    
C34   H20   S    
C11   C13   A    
O20   V3    S    
C36   C38   S    
C70   H44   S    
O16   C60   A    
C7    C27   A    
C63   H27   S    
C68   H40   S    
C49   O25   S    
C37   O23   S    
C79   H58   S    
C83   C84   S    
C81   H63   S    
C35   C61   S    
C67   H37   S    
C80   H61   S    
C18   C26   A    
C9    C75   S    
C75   O31   D    
O18   V4    S    
O10   V2    S    
C73   O29   D    
C19   C27   A    
C9    C31   A    
C57   O18   A    
C47   H23   S    
C50   H18   S    
C24   C26   A    
O14   V4    S    
C38   H16   S    
O6    V2    S    
C22   C24   A    
C46   C52   S    
C77   H54   S    
C78   H56   S    
C3    C32   S    
O36   C83   S    
C4    C31   S    
O12   C60   A    
C6    C30   A    
C62   H26   S    
C53   C55   T    
C1    C40   S    
C35   H13   S    
C76   O32   D    
C64   H30   S    
C36   H14   S    
O19   V4    S    
O12   V3    S    
O16   V4    S    
C55   C60   S    
C82   H66   S    
C8    C57   S    
O24   C65   S    
C39   C51   T    
C69   H42   S    
C44   C46   S    
C43   C45   S    
C27   H5    S    
C82   H67   S    
O5    V1    S    
C34   C44   S    
C5    C73   S    
O34   C79   S    
C10   C76   S    
O14   C58   A    
C81   C82   S    
C16   C18   A    
C33   C43   S    
O4    V2    S    
C38   O24   S    
C66   H35   S    
C44   H22   S    
C75   H51   S    
H3    C23   S    
C48   C72   S    
O6    C4    A    
C80   H62   S    
H4    C24   S    
C84   H71   S    
C45   C51   S    
O1    V2    S    
C5    C21   A    
O2    V1    S    
C47   C49   S    
C79   C80   S    
C25   H9    S    
C33   C41   S    
O13   V3    S    
C43   H21   S    
C11   O33   S    
C65   C66   S    
O4    C2    A    
C2    C39   S    
C48   H24   S    
C84   H70   S    
C17   C25   A    
C34   C42   S    
O9    V1    S    
C77   H53   S    
C17   C31   A    
C78   H57   S    
C34   H12   S    
C20   C28   A    
C35   C37   S    
C18   C32   A    
O25   C67   S    
C44   O36   S    
C6    C74   S    
O26   C69   S    
C65   H33   S    
C76   H52   S    
C13   H7    S    
C42   C50   S    
C28   H6    S    
C70   H45   S    
C14   H8    S    
O13   C57   A    
C15   C17   A    
C83   H69   S    
C81   H64   S    
C71   O27   D    
C13   C15   A    
C10   C12   A    
C36   C42   S    
C48   C50   S    
O3    C1    A    
C64   H29   S    
H1    C29   S    
C66   H34   S    
C69   H43   S    
C10   C32   A    
C9    C11   A    
C58   O17   A    
O15   V3    S    
C54   C56   T    
C72   H48   S    
C63   C64   S    
C47   C71   S    
C74   O30   D    
C6    C22   A    
C66   H36   S    
C8    C30   A    
C12   C14   A    
C21   C23   A    
O8    V2    S    
C61   H25   S    
C37   H15   S    
C20   C22   A    
C14   C16   A    
C82   H65   S    
O20   V4    S    
C67   C68   S    
C8    C28   A    
C33   H11   S    
C15   C19   A    
C38   C46   S    
C64   H31   S    
C63   H28   S    
C72   O28   D    
C33   H19   S    
C37   C45   S    
C42   C54   S    
C79   H59   S    
C41   C53   S    
C49   H17   S    
C84   H72   S    
C1    O8    A    
C7    C58   S    
C77   C78   S    
C67   H38   S    
C80   H60   S    
O9    V2    S    
C56   C59   S    
O10   V1    S    
C35   C41   S    
C73   H49   S    
H2    C30   S    
O23   C63   S    
O7    V1    S    
C65   H32   S    
