data_str_m9_o11_o18_f0_sra.sym.93
_audit_creation_date              2012-12-11T14:21:23-0500
_audit_creation_method            fapswitch 2.2
_symmetry_space_group_name_H-M    P1
_symmetry_Int_Tables_number       1
_space_group_crystal_system       triclinic
_cell_length_a                    22.035001
_cell_length_b                    7.206753
_cell_length_c                    14.893791
_cell_angle_alpha                 90.027087
_cell_angle_beta                  106.863987
_cell_angle_gamma                 90.0136
_cell_volume                      2263.43517145

loop_
_atom_site_label
_atom_site_type_symbol
_atom_type_description
_atom_site_fract_x
_atom_site_fract_y
_atom_site_fract_z
_atom_type_partial_charge
O1    O     O_R   0.584770 0.505770 0.002090 -0.542100
O2    O     O_R   0.415230 0.005770 0.997910 -0.542126
O3    O     O_R   0.467060 0.173340 0.861950 -0.538581
O4    O     O_R   0.532940 0.673340 0.138050 -0.538639
C1    C     C_R   0.455168 0.344056 0.825901 0.689615
C2    C     C_R   0.544823 0.844169 0.174087 0.688900
O5    O     O_R   0.587510 0.175890 0.993210 -0.529654
O6    O     O_R   0.412490 0.675890 0.006790 -0.529262
O7    O     O_R   0.536540 0.008150 0.130100 -0.536812
O8    O     O_R   0.463460 0.508150 0.869900 -0.536683
C3    C     C_R   0.613158 0.343843 0.998657 0.726602
C4    C     C_R   0.386835 0.843791 0.001307 0.726518
O9    O     O_3   0.483140 0.340040 0.044760 -0.376485
O10   O     O_3   0.516860 0.840040 0.955240 -0.376532
V1    V     V_3+5 0.503130 0.064190 0.991700 1.479272
V2    V     V_3+5 0.496870 0.564190 0.008300 1.479253
C5    C     C_2   0.213375 0.737530 0.000857 -0.245610
C6    C     C_2   0.786563 0.237524 0.999032 -0.246833
C7    C     C_2   0.183954 0.891244 0.019970 -0.164091
C8    C     C_2   0.816023 0.391119 0.979853 -0.164109
H1    H     H_    0.184983 0.615802 0.973077 0.168262
H2    H     H_    0.814925 0.115905 0.026929 0.168472
C9    C     C_2   0.283093 0.717468 0.017039 0.056688
C10   C     C_2   0.716834 0.217570 0.982794 0.057428
C11   C     C_2   0.318024 0.853544 0.992669 -0.354521
C12   C     C_2   0.681953 0.353714 0.007198 -0.354106
H3    H     H_    0.294287 0.980641 0.962521 0.145022
H4    H     H_    0.705735 0.480835 0.037370 0.145011
C13   C     C_R   0.926349 0.888278 0.724044 -0.033689
C14   C     C_R   0.073632 0.388949 0.275997 -0.034190
C15   C     C_R   0.573256 0.850303 0.275675 -0.032562
C16   C     C_R   0.426762 0.349669 0.724286 -0.033258
C17   C     C_R   0.935521 0.922454 0.567501 -0.163238
C18   C     C_R   0.064739 0.429456 0.432376 -0.163254
C19   C     C_R   0.963662 0.916337 0.663985 -0.176434
C20   C     C_R   0.036522 0.421383 0.335949 -0.176111
C21   C     C_R   0.860669 0.867020 0.687801 -0.203016
C22   C     C_R   0.139210 0.365341 0.312317 -0.202884
C23   C     C_R   0.830489 0.876658 0.589981 0.082343
C24   C     C_R   0.169500 0.377239 0.410058 0.082295
C25   C     C_R   0.869526 0.904242 0.530164 0.140639
C26   C     C_R   0.130650 0.409168 0.469754 0.140559
C27   C     C_R   0.763195 0.862455 0.549809 0.049100
C28   C     C_R   0.236746 0.361381 0.450244 0.049060
C29   C     C_R   0.736277 0.875923 0.450201 0.058470
C30   C     C_R   0.263794 0.377468 0.549739 0.058407
C31   C     C_R   0.777533 0.902287 0.394163 -0.183136
C32   C     C_R   0.222711 0.408076 0.605660 -0.183091
C33   C     C_R   0.842608 0.915760 0.433528 -0.200798
C34   C     C_R   0.157684 0.423165 0.566289 -0.200705
C35   C     C_R   0.721926 0.836051 0.605838 -0.160521
C36   C     C_R   0.277846 0.330870 0.394325 -0.160046
C37   C     C_R   0.656829 0.822485 0.566396 -0.179408
C38   C     C_R   0.342893 0.315656 0.433773 -0.179185
C39   C     C_R   0.629925 0.834041 0.469704 0.127972
C40   C     C_R   0.369908 0.329517 0.530371 0.128010
C41   C     C_R   0.669001 0.861746 0.409971 0.081995
C42   C     C_R   0.331019 0.361521 0.589985 0.081851
C43   C     C_R   0.563928 0.815770 0.432183 -0.158461
C44   C     C_R   0.435817 0.309050 0.567934 -0.158487
C45   C     C_R   0.535863 0.822012 0.335627 -0.166875
C46   C     C_R   0.463952 0.317071 0.664439 -0.166515
C47   C     C_R   0.638900 0.871532 0.312125 -0.207655
C48   C     C_R   0.361224 0.373366 0.687760 -0.207699
H5    H     H_    0.872230 0.936675 0.387583 0.125565
H6    H     H_    0.128200 0.447426 0.612135 0.125531
H7    H     H_    0.664810 0.890920 0.261668 0.109243
H8    H     H_    0.335440 0.395801 0.738136 0.109545
H9    H     H_    0.485051 0.803676 0.307565 0.126013
H10   H     H_    0.514657 0.296605 0.692561 0.126735
H11   H     H_    0.627192 0.801498 0.612317 0.140588
H12   H     H_    0.372394 0.291414 0.387945 0.139928
H13   H     H_    0.965333 0.944235 0.521943 0.118331
H14   H     H_    0.035077 0.454666 0.477832 0.118367
H15   H     H_    0.014482 0.934604 0.691917 0.107899
H16   H     H_    0.985805 0.441713 0.307958 0.108120
H17   H     H_    0.834794 0.847728 0.738329 0.118497
H18   H     H_    0.164957 0.342906 0.261873 0.118635
H19   H     H_    0.761291 0.913797 0.318970 0.131416
H20   H     H_    0.239061 0.421848 0.680758 0.131289
H21   H     H_    0.738196 0.824575 0.681048 0.146883
H22   H     H_    0.261473 0.317307 0.319203 0.146656
H23   H     H_    0.534061 0.793853 0.477647 0.123047
H24   H     H_    0.465534 0.283752 0.522570 0.123058
O11   O     O_R   0.036450 0.233070 0.130130 -0.539397
O12   O     O_R   0.963550 0.733070 0.869870 -0.539289
O13   O     O_R   0.912470 0.560570 0.006790 -0.522111
O14   O     O_R   0.087530 0.060570 0.993210 -0.522231
C49   C     C_R   0.886235 0.393057 0.998010 0.677019
C50   C     C_R   0.113757 0.893098 0.001945 0.676791
O15   O     O_R   0.032920 0.562940 0.138050 -0.540099
O16   O     O_R   0.967080 0.062940 0.861950 -0.540112
O17   O     O_R   0.084790 0.730500 0.002090 -0.538273
O18   O     O_R   0.915210 0.230500 0.997910 -0.538352
C51   C     C_R   0.045022 0.394668 0.174491 0.693666
C52   C     C_R   0.954984 0.894552 0.825522 0.693636
O19   O     O_3   0.016820 0.396170 0.955260 -0.376879
O20   O     O_3   0.983180 0.896170 0.044740 -0.376890
V3    V     V_3+5 0.996880 0.672090 0.008300 1.483376
V4    V     V_3+5 0.003120 0.172090 0.991700 1.483170
C53   C     C_2   0.220795 0.051968 0.071464 0.768742
O21   O     O_2   0.202687 0.210622 0.050011 -0.558166
O22   O     O_R   0.275255 0.021136 0.146367 -0.656229
H25   H     H_    0.295687 0.140638 0.176433 0.303626
C54   C     C_2   0.779212 0.551631 0.928188 0.768873
O23   O     O_2   0.797449 0.710366 0.949307 -0.558332
O24   O     O_R   0.724658 0.520499 0.853473 -0.655951
H26   H     H_    0.704275 0.639878 0.823280 0.303260
C55   C     C_2   0.310845 0.538739 0.056673 0.836082
O25   O     O_2   0.323236 0.511786 0.141078 -0.564939
O26   O     O_R   0.321398 0.400086 0.997367 -0.660843
H27   H     H_    0.340702 0.284562 0.033080 0.295329
C56   C     C_2   0.688969 0.038901 0.943127 0.836080
O27   O     O_2   0.675372 0.013172 0.858494 -0.565401
O28   O     O_R   0.679468 0.899153 0.002607 -0.661193
H28   H     H_    0.659817 0.783933 0.966846 0.295313

loop_
_geom_bond_atom_site_label_1
_geom_bond_atom_site_label_2
_ccdc_geom_bond_type
C53   O21   D    
C39   C43   A    
C7    C53   S    
C15   C45   A    
O26   H27   S    
C18   C26   A    
C31   H19   S    
O2    C4    A    
C2    O7    A    
C23   C25   A    
O5    C3    A    
C54   O24   S    
C19   H15   S    
C5    C9    S    
C33   H5    S    
C6    C10   S    
C48   H8    S    
C10   C12   D    
C56   O27   D    
C55   O26   S    
C44   H24   S    
O28   H28   S    
O16   C52   A    
C46   H10   S    
C44   C46   A    
C29   C31   A    
C49   O18   A    
C20   H16   S    
C17   C19   A    
C28   C30   A    
O1    C3    A    
O24   H26   S    
C43   H23   S    
O17   V3    S    
C18   C20   A    
C1    C16   S    
C28   C36   A    
C32   C34   A    
C2    C15   S    
C10   C56   S    
C53   O22   S    
C30   C42   A    
C25   C33   A    
C36   C38   A    
C41   C47   A    
O13   V3    S    
C37   C39   A    
C42   C48   A    
C9    C55   S    
C47   H7    S    
C43   C45   A    
C15   C47   A    
C16   C48   A    
O4    C2    A    
C23   C27   A    
O5    V1    S    
C22   H18   S    
C3    C12   S    
C21   H17   S    
C5    H1    S    
C40   C44   A    
C35   C37   A    
O4    V2    S    
C14   C51   S    
O2    V1    S    
C27   C29   A    
O18   V4    S    
O6    C4    A    
C29   C41   A    
O1    V2    S    
C36   H22   S    
O12   V3    S    
C34   H6    S    
O14   V4    S    
O12   C52   A    
C26   C34   A    
C17   H13   S    
C18   H14   S    
C39   C41   A    
C37   H11   S    
O19   V4    S    
O3    V1    S    
O16   V4    S    
C50   O17   A    
C8    C54   S    
C8    C49   S    
C45   H9    S    
C35   H21   S    
C6    H2    S    
O14   C50   A    
O3    C1    A    
C13   C52   S    
C38   C40   A    
C11   H3    S    
C54   O23   D    
C13   C19   A    
C12   H4    S    
C14   C20   A    
C4    C11   S    
C17   C25   A    
C32   H20   S    
O13   C49   A    
O7    V1    S    
C16   C46   A    
C1    O8    A    
C21   C23   A    
C7    C50   S    
O8    V2    S    
C31   C33   A    
C22   C24   A    
O11   C51   A    
C27   C35   A    
C24   C26   A    
C5    C7    D    
C40   C42   A    
C6    C8    D    
C9    C11   D    
O15   C51   A    
C30   C32   A    
C24   C28   A    
C38   H12   S    
O6    V2    S    
O20   V3    S    
O9    V2    S    
C13   C21   A    
O22   H25   S    
O11   V4    S    
O10   V1    S    
C14   C22   A    
O15   V3    S    
C55   O25   D    
C56   O28   S    
