data_str_m2_o5_o29_f0_pcu.sym.37
_audit_creation_date              2013-03-05T16:36:13-0500
_audit_creation_method            fapswitch 2.2
_symmetry_space_group_name_H-M    P1
_symmetry_Int_Tables_number       1
_space_group_crystal_system       triclinic
_cell_length_a                    27.78935
_cell_length_b                    9.074288
_cell_length_c                    7.784314
_cell_angle_alpha                 90.000018
_cell_angle_beta                  90.000033
_cell_angle_gamma                 89.992921
_cell_volume                      1962.95927772

loop_
_atom_site_label
_atom_site_type_symbol
_atom_site_description
_atom_site_fract_x
_atom_site_fract_y
_atom_site_fract_z
_atom_type_partial_charge
O1    O     O_R   0.500000 0.288390 0.642760 -0.575961
O2    O     O_R   0.500000 0.711610 0.357240 -0.576216
O3    O     O_R   0.500000 0.711610 0.642760 -0.575960
O4    O     O_R   0.500000 0.288390 0.357240 -0.576216
C1    C     C_R   0.500000 0.220046 0.500000 0.847557
C2    C     C_R   0.500000 0.779954 0.500000 0.847557
O5    O     O_R   0.430260 0.500000 0.642770 -0.578141
O6    O     O_R   0.569740 0.500000 0.357230 -0.578364
O7    O     O_R   0.569740 0.500000 0.642770 -0.578141
O8    O     O_R   0.430260 0.500000 0.357230 -0.578364
C3    C     C_R   0.407258 0.500176 0.500030 0.851600
C4    C     C_R   0.592742 0.499824 0.500031 0.851601
Cu1   Cu    Cu3+1 0.500000 0.500000 0.669080 1.036847
Cu2   Cu    Cu3+1 0.500000 0.500000 0.330920 1.035993
C5    C     C_R   0.177585 0.373369 0.542701 0.671624
C6    C     C_R   0.822415 0.626631 0.542702 0.671623
C7    C     C_R   0.177359 0.628404 0.467398 0.680178
C8    C     C_R   0.822641 0.371596 0.467398 0.680179
O9    O     O_2   0.202420 0.251230 0.586506 -0.455916
O10   O     O_2   0.797580 0.748770 0.586506 -0.455916
O11   O     O_2   0.201953 0.750795 0.422872 -0.477972
O12   O     O_2   0.798047 0.249205 0.422872 -0.477972
N1    N     N_R   0.201640 0.500912 0.504294 -0.432531
N2    N     N_R   0.798360 0.499088 0.504294 -0.432531
C9    C     C_R   0.279208 0.569457 0.637901 0.437639
C10   C     C_R   0.720792 0.430543 0.637901 0.437640
C11   C     C_R   0.278661 0.432455 0.366442 0.414528
C12   C     C_R   0.721339 0.567545 0.366443 0.414531
C13   C     C_R   0.329461 0.567415 0.635681 -0.232389
C14   C     C_R   0.670539 0.432585 0.635682 -0.232389
C15   C     C_R   0.328967 0.434444 0.366202 -0.242205
C16   C     C_R   0.671033 0.565555 0.366203 -0.242205
C17   C     C_R   0.253355 0.501021 0.502794 0.078490
C18   C     C_R   0.746645 0.498979 0.502794 0.078489
C19   C     C_R   0.101580 0.500567 0.506331 -0.041459
C20   C     C_R   0.898420 0.499432 0.506331 -0.041459
C21   C     C_R   0.127165 0.369100 0.535884 -0.040636
C22   C     C_R   0.872835 0.630900 0.535884 -0.040636
C23   C     C_R   0.126958 0.632282 0.476140 -0.021591
C24   C     C_R   0.873042 0.367717 0.476141 -0.021591
C25   C     C_R   0.101937 0.237065 0.558570 -0.129362
C26   C     C_R   0.898063 0.762935 0.558570 -0.129362
C27   C     C_R   0.101540 0.764103 0.454307 -0.114305
C28   C     C_R   0.898460 0.235897 0.454307 -0.114305
C29   C     C_R   0.354456 0.500833 0.500418 -0.179572
C30   C     C_R   0.645544 0.499166 0.500418 -0.179573
H1    H     H_    0.348423 0.381133 0.262839 0.207388
H2    H     H_    0.651577 0.618867 0.262839 0.207387
H3    H     H_    0.349279 0.620384 0.738386 0.212267
H4    H     H_    0.650721 0.379616 0.738386 0.212267
H5    H     H_    0.120760 0.134677 0.583305 0.193729
H6    H     H_    0.879240 0.865322 0.583306 0.193729
H7    H     H_    0.120200 0.866693 0.429220 0.191395
H8    H     H_    0.879800 0.133307 0.429220 0.191395
C31   C     C_R   0.974724 0.364297 0.497717 0.044916
C32   C     C_R   0.025276 0.635703 0.497717 0.044916
C33   C     C_R   0.974537 0.635390 0.516249 0.046344
C34   C     C_R   0.025463 0.364610 0.516248 0.046344
C35   C     C_R   0.949382 0.499700 0.506827 0.076719
C36   C     C_R   0.050618 0.500299 0.506827 0.076719
C37   C     C_R   0.948396 0.233541 0.468082 -0.201559
C38   C     C_R   0.051604 0.766459 0.468082 -0.201559
C39   C     C_R   0.948016 0.765820 0.545754 -0.200018
C40   C     C_R   0.051984 0.234180 0.545754 -0.200017
H9    H     H_    0.965794 0.128661 0.448038 0.131499
H10   H     H_    0.034206 0.871339 0.448038 0.131499
H11   H     H_    0.965264 0.870865 0.566188 0.132709
H12   H     H_    0.034736 0.129135 0.566188 0.132708
C41   C     C_1   0.500000 0.065410 0.500000 -0.145420
C42   C     C_1   0.500000 0.934590 0.500000 -0.145420
N3    N     N_1   0.500000 0.500000 0.076820 -0.035980
N4    N     N_1   0.500000 0.500000 0.923180 -0.035916
S1    S     S_3+6 0.248864 0.338414 0.197414 0.071333
O13   O     O_2   0.279317 0.340757 0.037840 -0.225681
O14   O     O_2   0.241207 0.180971 0.250715 -0.219615
O15   O     O_3   0.195266 0.416120 0.154596 -0.518338
H13   H     H_    0.178586 0.345030 0.078588 0.388592
S2    S     S_3+6 0.751136 0.661586 0.197415 0.071334
O16   O     O_2   0.720683 0.659243 0.037840 -0.225681
O17   O     O_2   0.758793 0.819029 0.250716 -0.219617
O18   O     O_3   0.804734 0.583879 0.154597 -0.518337
H14   H     H_    0.821414 0.654970 0.078589 0.388591
S3    S     S_3+6 0.250255 0.661774 0.809931 0.081694
O19   O     O_2   0.241093 0.818903 0.758573 -0.207209
O20   O     O_2   0.203186 0.588990 0.852421 -0.270637
O21   O     O_3   0.285883 0.660697 0.984659 -0.499262
H15   H     H_    0.265742 0.701579 0.078243 0.403686
S4    S     S_3+6 0.749745 0.338226 0.809932 0.081694
O22   O     O_2   0.758906 0.181096 0.758573 -0.207211
O23   O     O_2   0.796814 0.411010 0.852421 -0.270636
O24   O     O_3   0.714117 0.339303 0.984659 -0.499264
H16   H     H_    0.734257 0.298417 0.078241 0.403687

loop_
_geom_bond_atom_site_label_1
_geom_bond_atom_site_label_2
_geom_bond_distance
_ccdc_geom_bond_type
O5    Cu1   1.948821 S    
C31   C35   1.417903 A    
S1    O14   1.502884 D    
S1    O13   1.503201 D    
C20   C35   1.416197 A    
O18   H14   0.990529 S    
Cu2   N3    1.977993 S    
C13   H3    1.083324 S    
C11   C17   1.417084 A    
O5    C3    1.281880 A    
C7    N1    1.369664 A    
C21   C25   1.399421 A    
C8    N2    1.369665 A    
C40   H12   1.078777 S    
C19   C21   1.407621 A    
C22   C26   1.399420 A    
S2    O17   1.502885 D    
C33   C35   1.417861 A    
C34   C36   1.417861 A    
O7    Cu1   1.948818 S    
C32   C33   1.417354 A    
C7    C23   1.402717 A    
C8    C24   1.402717 A    
C5    C21   1.402686 A    
C1    C41   1.403212 S    
C5    O9    1.349363 S    
C27   H7    1.083413 S    
N1    C17   1.437180 S    
C12   S2    1.773487 S    
O3    Cu1   1.931110 S    
C6    O10   1.349363 S    
O3    C2    1.272626 A    
C5    N1    1.369643 A    
C14   H4    1.083325 S    
C12   C18   1.417084 A    
C6    N2    1.369642 A    
C15   H1    1.083377 S    
Cu1   Cu2   2.632344 S    
C34   C40   1.412990 A    
C16   H2    1.083376 S    
O2    C2    1.272626 A    
C10   C18   1.417049 A    
C33   C39   1.412991 A    
C9    C13   1.396717 A    
C39   H11   1.078777 S    
C38   H10   1.078769 S    
C11   C15   1.398094 A    
C20   C24   1.407605 A    
O15   H13   0.990530 S    
C4    C30   1.467337 S    
O8    Cu2   1.948821 S    
O24   H16   0.990721 S    
O21   H15   0.990729 S    
C23   C27   1.399443 A    
C7    O11   1.349392 S    
C32   C36   1.417903 A    
C13   C29   1.398592 A    
C19   C36   1.416197 A    
C19   C23   1.407607 A    
C37   H9    1.078769 S    
S3    O19   1.502522 D    
S4    O24   1.682353 S    
C12   C16   1.398094 A    
O6    C4    1.282291 A    
S3    O20   1.502256 D    
S4    O23   1.502255 D    
C10   C14   1.396717 A    
S1    O15   1.681228 S    
C32   C38   1.412995 A    
C3    C29   1.467337 S    
O1    Cu1   1.931110 S    
O1    C1    1.272626 A    
C2    C42   1.403212 S    
O6    Cu2   1.948818 S    
C8    O12   1.349391 S    
C16   C30   1.398685 A    
C14   C30   1.398594 A    
O4    C1    1.272627 A    
Cu1   N4    1.977993 S    
C28   C37   1.391987 A    
C20   C22   1.407622 A    
N3    N4    1.195983 T    
S2    O16   1.503201 D    
S2    O18   1.681229 S    
C31   C37   1.412994 A    
O4    Cu2   1.931111 S    
C41   C42   1.187096 T    
O2    Cu2   1.931110 S    
O7    C4    1.281880 A    
N2    C18   1.437180 S    
C9    C17   1.417050 A    
O8    C3    1.282291 A    
C28   H8    1.083412 S    
C24   C28   1.399444 A    
S3    O21   1.682352 S    
S4    O22   1.502522 D    
C10   S4    1.772638 S    
C15   C29   1.398685 A    
C31   C34   1.417353 A    
C6    C22   1.402686 A    
C9    S3    1.772638 S    
C25   C40   1.391985 A    
C11   S1    1.773488 S    
C26   C39   1.391985 A    
C25   H5    1.083408 S    
C27   C38   1.391987 A    
C26   H6    1.083407 S    
