data_str_m3_o10_o28_f0_pcu.sym.89
_audit_creation_date              2012-12-10T16:58:32-0500
_audit_creation_method            fapswitch 2.2
_symmetry_space_group_name_H-M    P1
_symmetry_Int_Tables_number       1
_space_group_crystal_system       triclinic
_cell_length_a                    7.736661
_cell_length_b                    8.556993
_cell_length_c                    23.431395
_cell_angle_alpha                 90.837311
_cell_angle_beta                  86.056417
_cell_angle_gamma                 93.929207
_cell_volume                      1543.8313727

loop_
_atom_site_label
_atom_site_type_symbol
_atom_type_description
_atom_site_fract_x
_atom_site_fract_y
_atom_site_fract_z
_atom_type_partial_charge
C1    C     C_R   0.546094 0.794907 0.498501 0.974120
C2    C     C_R   0.336506 0.528780 0.302471 -0.252945
C3    C     C_R   0.679330 0.510917 0.756318 0.223500
C4    C     C_R   0.331038 0.533382 0.243026 0.228232
C5    C     C_R   0.522377 0.498826 0.791113 0.291093
C6    C     C_R   0.484885 0.510818 0.208817 0.322243
C7    C     C_2   0.570331 0.958531 0.497646 -0.374195
C8    C     C_2   0.429669 0.041467 0.502375 -0.374884
C9    C     C_R   0.502694 0.499850 0.610601 0.884327
C10   C     C_R   0.497458 0.500419 0.389370 0.885872
C11   C     C_R   0.425595 0.378946 0.120714 0.494591
C12   C     C_R   0.453907 0.205092 0.501508 0.974281
C13   C     C_R   0.570917 0.631913 0.880156 0.509106
C14   C     C_R   0.563445 0.637534 0.119259 0.479980
C15   C     C_R   0.463539 0.363508 0.880295 0.484837
C16   C     C_R   0.583139 0.635224 0.059025 -0.057163
C17   C     C_R   0.445193 0.362388 0.940700 -0.038032
C18   C     C_R   0.508028 0.502723 0.030090 -0.050203
C19   C     C_R   0.510992 0.498350 0.969979 -0.057126
C20   C     C_R   0.430592 0.373944 0.061207 -0.030008
C21   C     C_R   0.578603 0.631456 0.939217 -0.047197
C22   C     C_R   0.671088 0.759473 0.026446 0.167516
C23   C     C_R   0.362510 0.485772 0.766476 -0.143608
C24   C     C_R   0.365929 0.233094 0.973106 0.153304
C25   C     C_R   0.657828 0.759551 0.967360 -0.212555
C26   C     C_R   0.359272 0.242668 0.032815 -0.229464
C27   C     C_3   0.794396 0.885533 0.050495 -0.372910
C28   C     C_3   0.707068 0.038610 0.061382 -0.763225
C29   C     C_3   0.279382 0.085583 0.947597 -0.333950
C30   C     C_3   0.103967 0.116878 0.925245 -0.800610
C31   C     C_3   0.856125 0.520805 0.780685 -0.430526
C32   C     C_3   0.955166 0.678543 0.767415 -0.801524
C33   C     C_3   0.161316 0.561333 0.217525 -0.456906
C34   C     C_R   0.639292 0.485361 0.233707 -0.155023
C35   C     C_3   0.156574 0.730222 0.198006 -0.781855
C36   C     C_R   0.355609 0.487036 0.707649 -0.216798
C37   C     C_R   0.643322 0.481769 0.292562 -0.212918
C38   C     C_R   0.509594 0.499212 0.672581 -0.072723
C39   C     C_R   0.492089 0.503290 0.327311 -0.066975
C40   C     C_R   0.670627 0.509703 0.696968 -0.232609
H1    H     H_    0.718886 0.857427 0.942857 0.190111
H2    H     H_    0.297044 0.989843 0.506881 0.179762
H3    H     H_    0.013999 0.383108 0.456921 0.191273
H4    H     H_    0.985999 0.616871 0.543088 0.189416
H5    H     H_    0.672899 0.086841 0.020212 0.234881
H6    H     H_    0.587626 0.019847 0.090169 0.305316
H7    H     H_    0.797756 0.125473 0.081590 0.244813
H8    H     H_    0.852577 0.847006 0.089375 0.243498
H9    H     H_    0.908198 0.908499 0.019402 0.180786
H10   H     H_    0.014696 0.156263 0.960941 0.240051
H11   H     H_    0.117541 0.208291 0.891879 0.281359
H12   H     H_    0.297107 0.145778 0.057534 0.189819
H13   H     H_    0.045108 0.007343 0.906614 0.248123
H14   H     H_    0.366081 0.031581 0.914453 0.268127
H15   H     H_    0.254080 0.992889 0.980501 0.172004
H16   H     H_    0.999199 0.684929 0.721349 0.239858
H17   H     H_    0.872542 0.777119 0.778186 0.306821
H18   H     H_    0.070834 0.693126 0.792947 0.248242
H19   H     H_    0.846350 0.503563 0.827633 0.211367
H20   H     H_    0.932480 0.424991 0.761899 0.198093
H21   H     H_    0.182123 0.812735 0.233970 0.275045
H22   H     H_    0.254156 0.756048 0.161934 0.274499
H23   H     H_    0.243256 0.473511 0.793450 0.146551
H24   H     H_    0.026127 0.748591 0.183268 0.253401
H25   H     H_    0.138425 0.480013 0.181109 0.229032
H26   H     H_    0.050950 0.536960 0.249769 0.200293
H27   H     H_    0.756351 0.467478 0.207010 0.139264
H28   H     H_    0.229970 0.476769 0.689689 0.167512
H29   H     H_    0.764693 0.461601 0.310765 0.162727
H30   H     H_    0.790112 0.517328 0.669857 0.163460
H31   H     H_    0.219553 0.546324 0.329315 0.162030
H32   H     H_    0.702957 0.010156 0.493142 0.179924
N1    N     N_R   0.487423 0.510452 0.148046 -0.346112
N2    N     N_R   0.521442 0.497654 0.852019 -0.356351
N3    N     N_2   0.950330 0.457950 0.484560 -0.175887
N4    N     N_2   0.049670 0.542050 0.515440 -0.176389
O1    O     O_R   0.389250 0.738570 0.503790 -0.611429
O2    O     O_2   0.613230 0.765121 0.850784 -0.568406
O3    O     O_2   0.613111 0.766241 0.149407 -0.568335
O4    O     O_2   0.426344 0.233122 0.849383 -0.559201
O5    O     O_R   0.610750 0.261430 0.496210 -0.611129
O6    O     O_R   0.678390 0.711620 0.493890 -0.629289
O7    O     O_R   0.321610 0.288380 0.506110 -0.629417
O8    O     O_R   0.355400 0.513520 0.588790 -0.621459
O9    O     O_R   0.644600 0.486480 0.411210 -0.621227
O10   O     O_R   0.644550 0.486570 0.578900 -0.631396
O11   O     O_R   0.355450 0.513430 0.421100 -0.630794
O12   O     O_2   0.359306 0.253674 0.151374 -0.577090
Zn1   Zn    Zn3+2 0.306930 0.518000 0.506610 0.944301
Zn2   Zn    Zn3+2 0.693070 0.482000 0.493390 0.945083

loop_
_geom_bond_atom_site_label_1
_geom_bond_atom_site_label_2
_ccdc_geom_bond_type
C27   H8    S    
C30   H11   S    
C10   O9    A    
C37   H29   S    
C34   C37   A    
C1    O1    A    
C32   H18   S    
C33   H25   S    
C7    C8    D    
C28   H7    S    
O1    Zn1   S    
C40   H30   S    
C19   C21   A    
C8    H2    S    
C29   H14   S    
C18   C19   A    
C31   H19   S    
C5    N2    S    
H4    N4    S    
C24   C29   S    
N3    Zn2   S    
C33   C35   S    
C13   O2    S    
C2    C39   A    
C15   O4    S    
C22   C25   A    
C35   H24   S    
N4    Zn1   S    
C23   H23   S    
C30   H10   S    
C32   H17   S    
C33   H26   S    
H3    N3    S    
O7    Zn1   S    
C30   H13   S    
C10   O11   A    
C17   C24   A    
C14   N1    A    
C4    C6    A    
C11   N1    A    
C25   H1    S    
C7    H32   S    
C28   H5    S    
C29   H15   S    
C1    O6    A    
C11   C20   A    
C6    C34   A    
C12   O7    A    
C10   C39   S    
C31   H20   S    
C2    C4    A    
N3    N4    D    
C29   C30   S    
C26   H12   S    
C9    O10   A    
C31   C32   S    
C5    C23   A    
C11   O12   S    
C8    C12   S    
C28   H6    S    
C13   C21   A    
C35   H21   S    
C14   O3    S    
C3    C31   S    
O5    Zn2   S    
C3    C40   A    
C22   C27   S    
O11   Zn1   S    
O10   Zn2   S    
C14   C16   A    
O8    Zn1   S    
C2    H31   S    
C6    N1    S    
C15   C17   A    
C21   C25   A    
C4    C33   S    
C16   C22   A    
C1    C7    S    
C24   C26   A    
C3    C5    A    
C34   H27   S    
O9    Zn2   S    
C36   H28   S    
O6    Zn2   S    
C36   C38   A    
C37   C39   A    
C38   C40   A    
C20   C26   A    
C9    C38   S    
C17   C19   A    
C12   O5    A    
C35   H22   S    
C18   C20   A    
C9    O8    A    
C15   N2    A    
C13   N2    A    
C16   C18   A    
C23   C36   A    
C27   C28   S    
C32   H16   S    
C27   H9    S    
