data_str_m9_o1_o2_f0_sra.sym.58
_audit_creation_date              2013-03-05T15:56:47-0500
_audit_creation_method            fapswitch 2.2
_symmetry_space_group_name_H-M    P1
_symmetry_Int_Tables_number       1
_space_group_crystal_system       triclinic
_cell_length_a                    6.924934
_cell_length_b                    14.817681
_cell_length_c                    15.853363
_cell_angle_alpha                 89.93456
_cell_angle_beta                  89.811705
_cell_angle_gamma                 90.097406
_cell_volume                      1626.72456347

loop_
_atom_site_label
_atom_site_type_symbol
_atom_site_description
_atom_site_fract_x
_atom_site_fract_y
_atom_site_fract_z
_atom_type_partial_charge
O1    O     O_R   0.638180 0.333920 0.163320 -0.597795
O2    O     O_R   0.361820 0.666080 0.836680 -0.596719
O3    O     O_R   0.308470 0.344960 0.336080 -0.578967
O4    O     O_R   0.691530 0.655040 0.663920 -0.580963
O5    O     O_R   0.138140 0.166110 0.336680 -0.587954
O6    O     O_R   0.861860 0.833890 0.663320 -0.584802
C1    C     C_R   0.476397 0.367233 0.365076 0.993640
C2    C     C_R   0.522262 0.630580 0.636997 0.996079
O7    O     O_R   0.308460 0.344950 0.163930 -0.595588
O8    O     O_R   0.691540 0.655050 0.836070 -0.597024
O9    O     O_R   0.138140 0.166100 0.163310 -0.599857
O10   O     O_R   0.861860 0.833900 0.836690 -0.600481
C3    C     C_R   0.477830 0.367220 0.134987 0.936650
C4    C     C_R   0.522163 0.632752 0.864988 0.936052
O11   O     O_R   0.638180 0.333930 0.336700 -0.591232
O12   O     O_R   0.361820 0.666070 0.663300 -0.593133
O13   O     O_3   0.471670 0.191340 0.250000 -0.277519
O14   O     O_3   0.528330 0.808660 0.750000 -0.277110
V1    V     V_3+5 0.196830 0.260900 0.250000 1.197014
V2    V     V_3+5 0.803170 0.739100 0.750000 1.195580
O15   O     O_R   0.808420 0.155070 0.163920 -0.603491
O16   O     O_R   0.191580 0.844930 0.836080 -0.603198
C5    C     C_R   0.977680 0.132785 0.134957 0.906069
C6    C     C_R   0.022330 0.867182 0.865072 0.905949
O17   O     O_R   0.808420 0.155080 0.336070 -0.591571
O18   O     O_R   0.191580 0.844920 0.663930 -0.591986
C7    C     C_R   0.976649 0.137383 0.368131 0.941823
C8    C     C_R   0.023914 0.863253 0.632087 0.942190
V3    V     V_3+5 0.696830 0.239130 0.250000 1.183343
V4    V     V_3+5 0.303170 0.760870 0.750000 1.185595
O19   O     O_3   0.971850 0.308690 0.250010 -0.255801
O20   O     O_3   0.028150 0.691310 0.749990 -0.256712
H1    H     H_    0.037034 0.846152 0.238459 0.170480
H2    H     H_    0.121016 0.158847 0.755511 0.172354
C9    C     C_R   0.066015 0.183247 0.543262 -0.319217
C10   C     C_R   0.073601 0.820894 0.451550 -0.305748
C11   C     C_R   0.112254 0.206560 0.626701 0.436701
C12   C     C_R   0.091097 0.799853 0.365349 0.447568
C13   C     C_R   0.092166 0.141854 0.690348 -0.225963
C14   C     C_R   0.030375 0.862156 0.305042 -0.214475
C15   C     C_R   0.047057 0.053012 0.670410 -0.211910
C16   C     C_R   0.980277 0.948951 0.329033 -0.217145
C17   C     C_R   0.024092 0.025928 0.585693 0.135534
C18   C     C_R   0.990685 0.975643 0.414347 0.134507
C19   C     C_R   0.022459 0.093081 0.521253 0.064219
C20   C     C_R   0.021556 0.908824 0.477543 0.070050
C21   C     C_R   0.016685 0.933225 0.564230 -0.262561
C22   C     C_R   0.988079 0.068073 0.436125 -0.260770
H3    H     H_    0.074223 0.235099 0.495241 0.156585
H4    H     H_    0.114342 0.770342 0.497507 0.136061
H5    H     H_    0.041576 0.005042 0.721858 0.122074
H6    H     H_    0.947282 0.996309 0.279173 0.125967
C23   C     C_R   0.179465 0.975111 0.966834 -0.134854
C24   C     C_R   0.820572 0.024794 0.033251 -0.133666
H7    H     H_    0.320280 0.957050 0.942316 0.122785
H8    H     H_    0.679754 0.042862 0.057763 0.122854
C25   C     C_R   0.168559 0.038582 0.032107 -0.125997
C26   C     C_R   0.831479 0.961314 0.967987 -0.124428
H9    H     H_    0.301433 0.067596 0.055667 0.124557
H10   H     H_    0.698604 0.932295 0.944432 0.124192
C27   C     C_R   0.988951 0.064365 0.066241 -0.126449
C28   C     C_R   0.011081 0.935554 0.933832 -0.125227
C29   C     C_R   0.330281 0.495240 0.452039 0.322604
C30   C     C_R   0.656014 0.494936 0.557301 0.251911
C31   C     C_R   0.346165 0.557051 0.518430 -0.057814
C32   C     C_R   0.642004 0.433674 0.490236 -0.130240
H11   H     H_    0.229266 0.604293 0.528639 0.147215
H12   H     H_    0.754932 0.383881 0.482259 0.154598
C33   C     C_R   0.510123 0.560032 0.570248 -0.254900
C34   C     C_R   0.482910 0.433989 0.435357 -0.236101
C35   C     C_R   0.320568 0.474814 0.033204 -0.096060
C36   C     C_R   0.679406 0.525084 0.966698 -0.108663
H13   H     H_    0.179775 0.456502 0.057773 0.125424
H14   H     H_    0.820198 0.543392 0.942124 0.127686
C37   C     C_R   0.331317 0.538339 0.967900 -0.096646
C38   C     C_R   0.668657 0.461557 0.032001 -0.110132
H15   H     H_    0.198417 0.567165 0.944323 0.125663
H16   H     H_    0.801556 0.432725 0.055571 0.127325
C39   C     C_R   0.510887 0.564377 0.933743 -0.129155
C40   C     C_R   0.489092 0.435542 0.066181 -0.130909
N1    N     N_R   0.189846 0.294096 0.645977 0.245070
O21   O     O_R   0.214086 0.319134 0.723921 -0.386717
O22   O     O_R   0.258074 0.344976 0.585986 -0.422966
N2    N     N_R   0.189234 0.719779 0.338726 0.237619
O23   O     O_R   0.159515 0.687082 0.263683 -0.385598
O24   O     O_R   0.338982 0.692387 0.380812 -0.426150
I1    I     I_    0.068106 0.502418 0.382279 -0.268653
I2    I     I_    0.891903 0.477228 0.640622 -0.260567

loop_
_geom_bond_atom_site_label_1
_geom_bond_atom_site_label_2
_geom_bond_distance
_ccdc_geom_bond_type
C7    C22   1.490403 S    
C26   C28   1.408339 A    
C32   H12   1.083248 S    
C29   C31   1.400486 A    
C8    C21   1.494240 S    
O13   V3    1.711393 S    
O4    C2    1.299889 A    
V1    O19   1.712450 S    
C1    C34   1.491508 S    
N1    O21   1.301898 A    
C13   C15   1.389492 A    
O9    V1    2.008313 S    
C2    C33   1.490788 S    
C12   C14   1.394655 A    
C38   H16   1.082761 S    
C36   C39   1.406927 A    
O3    C1    1.294254 A    
V2    O20   1.712448 S    
C25   H9    1.082728 S    
O12   V4    2.007505 S    
O7    C3    1.299949 A    
O5    C7    1.294085 A    
O7    V1    1.999109 S    
O6    C8    1.299245 A    
O8    V2    1.999107 S    
C31   H11   1.082983 S    
C9    H3    1.082287 S    
O3    V1    2.004736 S    
O14   V4    1.711393 S    
V4    O20   2.163979 S    
C17   C21   1.416420 A    
C36   C38   1.400156 A    
C29   I1    2.131714 S    
C1    O11   1.303882 A    
C3    C40   1.489133 S    
C2    O12   1.297802 A    
C15   C17   1.411575 A    
C11   N1    1.436707 S    
C16   C18   1.411629 A    
C35   C40   1.406947 A    
N1    O22   1.300130 A    
C18   C20   1.424630 A    
O11   V3    2.007504 S    
C23   H7    1.082700 S    
O17   V3    2.004099 S    
C24   H8    1.082704 S    
H1    C14   1.082990 S    
H2    C13   1.082720 S    
N2    O23   1.301931 A    
C36   H14   1.082737 S    
O8    C4    1.299955 A    
C35   H13   1.082728 S    
C23   C25   1.401058 A    
C30   C33   1.412660 A    
O15   V3    2.002778 S    
C30   C32   1.402304 A    
C17   C19   1.425370 A    
C23   C28   1.406895 A    
C29   C34   1.418733 A    
O10   V2    2.008315 S    
O1    V3    2.006816 S    
C4    C39   1.489071 S    
C10   C20   1.413910 A    
C37   H15   1.082763 S    
O18   V4    2.004100 S    
O15   C5    1.300711 A    
O16   C6    1.300685 A    
O1    C3    1.297252 A    
C9    C19   1.413570 A    
C10   H4    1.082743 S    
C9    C11   1.405361 A    
C24   C26   1.401046 A    
C19   C22   1.420650 A    
C20   C21   1.421759 A    
C6    C28   1.490961 S    
O16   V4    2.002778 S    
C12   N2    1.431714 S    
C38   C40   1.407797 A    
N2    O24   1.300247 A    
C14   C16   1.385942 A    
C25   C27   1.408345 A    
O5    V1    2.004073 S    
C24   C27   1.406879 A    
O17   C7    1.299575 A    
O6    V2    2.004075 S    
O10   C6    1.297093 A    
O18   C8    1.296667 A    
O2    V4    2.006813 S    
C10   C12   1.406929 A    
C11   C13   1.397559 A    
C35   C37   1.400155 A    
C32   C34   1.406067 A    
C37   C39   1.407788 A    
C31   C33   1.404272 A    
O9    C5    1.297058 A    
O13   V1    2.165965 S    
C15   H5    1.081812 S    
O14   V2    2.165965 S    
O2    C4    1.297239 A    
O4    V2    2.004738 S    
C5    C27   1.490943 S    
V3    O19   2.163981 S    
C26   H10   1.082733 S    
C30   I2    2.120587 S    
C18   C22   1.412956 A    
C16   H6    1.081626 S    
