data_str_m2_o10_o13_f0_pcu.sym.56
_audit_creation_date              2012-10-26T19:57:53-0400
_audit_creation_method            fapswitch 2.2
_symmetry_space_group_name_H-M    P1
_symmetry_Int_Tables_number       1
_space_group_crystal_system       triclinic
_cell_length_a                    7.575624
_cell_length_b                    8.686681
_cell_length_c                    12.938157
_cell_angle_alpha                 86.649215
_cell_angle_beta                  77.978264
_cell_angle_gamma                 103.258875
_cell_volume                      805.489845165

loop_
_atom_site_label
_atom_site_type_symbol
_atom_type_description
_atom_site_fract_x
_atom_site_fract_y
_atom_site_fract_z
_atom_type_partial_charge
C1    C     C_R   0.452431 0.199824 0.503374 0.542029
C2    C     C_R   0.713622 0.631172 0.113010 -0.008275
C3    C     C_R   0.583972 0.566314 0.856770 -0.153592
C4    C     C_R   0.416027 0.433683 0.143230 -0.153592
C5    C     C_R   0.576520 0.552783 0.965030 0.024941
C6    C     C_R   0.423480 0.447217 0.034971 0.024941
C7    C     C_2   0.426585 0.031295 0.504779 -0.163549
C8    C     C_2   0.573414 0.968705 0.495221 -0.163549
C9    C     C_3   0.869527 0.734886 0.151426 -0.389031
C10   C     C_3   0.130472 0.265130 0.848575 -0.389046
C11   C     C_3   0.920605 0.372807 0.629496 -0.129950
C12   C     C_R   0.547569 0.800176 0.496626 0.542028
C13   C     C_3   0.079394 0.627194 0.370504 -0.129949
C14   C     C_R   0.463548 0.490022 0.701694 0.540234
C15   C     C_R   0.536452 0.509979 0.298306 0.540232
C16   C     C_R   0.559338 0.524210 0.183102 0.014320
C17   C     C_R   0.440662 0.475791 0.816898 0.014323
C18   C     C_R   0.279608 0.356396 0.995949 -0.111796
C19   C     C_R   0.720392 0.643609 0.004051 -0.111796
C20   C     C_R   0.286378 0.368835 0.886990 -0.008278
Cu1   Cu    Cu3+1 0.686350 0.517570 0.488220 0.923028
Cu2   Cu    Cu3+1 0.313650 0.482430 0.511780 0.923028
H1    H     H_    0.297968 0.352018 0.196922 0.115827
H2    H     H_    0.038405 0.173029 0.912347 0.111866
H3    H     H_    0.043876 0.340363 0.823318 0.138277
H4    H     H_    0.187181 0.202438 0.781900 0.135117
H5    H     H_    0.992674 0.286585 0.657051 0.096137
H6    H     H_    0.906908 0.457586 0.689820 0.117610
H7    H     H_    0.785717 0.299679 0.622472 0.144551
H8    H     H_    0.007327 0.713418 0.342951 0.096137
H9    H     H_    0.214284 0.700320 0.377527 0.144551
H10   H     H_    0.093089 0.542416 0.310179 0.117608
H11   H     H_    0.702032 0.647977 0.803079 0.115827
H12   H     H_    0.162331 0.275382 0.050525 0.104044
H13   H     H_    0.837668 0.724628 0.949475 0.104044
H14   H     H_    0.285760 0.958478 0.513595 0.130891
H15   H     H_    0.714240 0.041522 0.486405 0.130891
H16   H     H_    0.961598 0.827002 0.087652 0.111862
H17   H     H_    0.812804 0.797576 0.218105 0.135117
H18   H     H_    0.956134 0.659652 0.176681 0.138274
N1    N     N_2   0.033570 0.455950 0.529530 -0.136939
N2    N     N_2   0.966430 0.544050 0.470470 -0.136938
O1    O     O_R   0.621060 0.286250 0.492350 -0.510749
O2    O     O_R   0.378940 0.713750 0.507650 -0.510749
O3    O     O_R   0.306310 0.256580 0.512240 -0.502348
O4    O     O_R   0.693690 0.743420 0.487760 -0.502348
O5    O     O_R   0.631800 0.512400 0.642670 -0.526340
O6    O     O_R   0.368200 0.487600 0.357330 -0.526339
O7    O     O_R   0.317060 0.482730 0.662570 -0.506291
O8    O     O_R   0.682940 0.517270 0.337430 -0.506290

loop_
_geom_bond_atom_site_label_1
_geom_bond_atom_site_label_2
_ccdc_geom_bond_type
C4    C16   A    
Cu2   O6    S    
C11   N1    S    
C14   O5    A    
C5    C19   A    
C2    C16   A    
C7    H14   S    
C13   H10   S    
C11   H5    S    
C8    C12   S    
C10   H4    S    
C7    C8    D    
C12   O2    A    
Cu1   O4    S    
C19   H13   S    
Cu1   Cu2   S    
C18   H12   S    
C14   C17   S    
C1    O3    A    
C15   O6    A    
Cu2   O7    S    
C11   H6    S    
C10   H3    S    
C4    C6    A    
C13   N2    S    
C1    O1    A    
C3    C17   A    
C18   C20   A    
C5    C6    A    
C6    C18   A    
Cu2   O2    S    
C14   O7    A    
C8    H15   S    
C3    H11   S    
C15   C16   S    
Cu2   N1    S    
C13   H8    S    
C9    H17   S    
C17   C20   A    
C11   H7    S    
C12   O4    A    
Cu2   O3    S    
N1    N2    D    
C15   O8    A    
C4    H1    S    
Cu1   O5    S    
Cu1   O8    S    
C9    H16   S    
C10   H2    S    
C2    C19   A    
C1    C7    S    
C2    C9    S    
C13   H9    S    
C9    H18   S    
Cu1   O1    S    
Cu1   N2    S    
C10   C20   S    
C3    C5    A    
