data_str_m4_o4_o24_f0_acs.sym.178
_audit_creation_date              2013-03-05T15:51:59-0500
_audit_creation_method            fapswitch 2.2
_symmetry_space_group_name_H-M    P1
_symmetry_Int_Tables_number       1
_space_group_crystal_system       triclinic
_cell_length_a                    18.848772
_cell_length_b                    11.023985
_cell_length_c                    18.732658
_cell_angle_alpha                 90.104074
_cell_angle_beta                  91.388393
_cell_angle_gamma                 90.230335
_cell_volume                      3891.25108175

loop_
_atom_site_label
_atom_site_type_symbol
_atom_site_description
_atom_site_fract_x
_atom_site_fract_y
_atom_site_fract_z
_atom_type_partial_charge
O1    O     O_R   0.214300 0.709080 0.827500 -0.502969
O2    O     O_R   0.785700 0.709080 0.172500 -0.510363
O3    O     O_R   0.714300 0.209080 0.827500 -0.504156
O4    O     O_R   0.285700 0.209080 0.172500 -0.512253
O5    O     O_R   0.236190 0.958390 0.823150 -0.454338
O6    O     O_R   0.763810 0.958390 0.176850 -0.468311
O7    O     O_R   0.736190 0.458390 0.823150 -0.453330
O8    O     O_R   0.263810 0.458390 0.176850 -0.470240
C1    C     C_R   0.287375 0.005195 0.861435 0.542177
C2    C     C_R   0.726051 0.038657 0.144785 0.547130
C3    C     C_R   0.787381 0.505182 0.861436 0.542484
C4    C     C_R   0.226048 0.538650 0.144782 0.547385
O9    O     O_R   0.332090 0.075280 0.831290 -0.507095
O10   O     O_R   0.667910 0.075280 0.168710 -0.523829
O11   O     O_R   0.832090 0.575280 0.831290 -0.505852
O12   O     O_R   0.167910 0.575280 0.168710 -0.520742
O13   O     O_R   0.446280 0.918040 0.826620 -0.511914
O14   O     O_R   0.553720 0.918040 0.173380 -0.502865
O15   O     O_R   0.946280 0.418040 0.826620 -0.511471
O16   O     O_R   0.053720 0.418040 0.173380 -0.499743
C5    C     C_R   0.471380 0.822086 0.854808 0.557175
C6    C     C_R   0.532118 0.820654 0.143257 0.555718
C7    C     C_R   0.971384 0.322087 0.854806 0.558957
C8    C     C_R   0.032119 0.320654 0.143257 0.555567
O17   O     O_R   0.457080 0.716270 0.831760 -0.478681
O18   O     O_R   0.542920 0.716270 0.168240 -0.488180
O19   O     O_R   0.957080 0.216270 0.831760 -0.478544
O20   O     O_R   0.042920 0.216270 0.168240 -0.487411
O21   O     O_R   0.320980 0.624440 0.823040 -0.492571
O22   O     O_R   0.679020 0.624440 0.176960 -0.500111
O23   O     O_R   0.820980 0.124440 0.823040 -0.491970
O24   O     O_R   0.179020 0.124440 0.176960 -0.493375
C9    C     C_R   0.260351 0.634205 0.850807 0.553859
C10   C     C_R   0.739579 0.635160 0.149006 0.535829
C11   C     C_R   0.760355 0.134216 0.850813 0.551695
C12   C     C_R   0.239576 0.135166 0.149004 0.544170
O25   O     O_R   0.213880 0.710510 0.665560 -0.464050
O26   O     O_R   0.786120 0.710510 0.334440 -0.482239
O27   O     O_R   0.713880 0.210510 0.665560 -0.457787
O28   O     O_R   0.286120 0.210510 0.334440 -0.436759
O29   O     O_R   0.235800 0.959720 0.673040 -0.525891
O30   O     O_R   0.764200 0.959720 0.326960 -0.499339
O31   O     O_R   0.735800 0.459720 0.673040 -0.523174
O32   O     O_R   0.264200 0.459720 0.326960 -0.488665
C13   C     C_R   0.270048 0.047336 0.647416 0.551855
C14   C     C_R   0.729158 0.048105 0.353132 0.545292
C15   C     C_R   0.771903 0.543265 0.644730 0.554771
C16   C     C_R   0.229919 0.551009 0.351957 0.535581
O33   O     O_R   0.331670 0.076720 0.669350 -0.518668
O34   O     O_R   0.668330 0.076720 0.330650 -0.522239
O35   O     O_R   0.831670 0.576720 0.669350 -0.512339
O36   O     O_R   0.168330 0.576720 0.330650 -0.517197
O37   O     O_R   0.445900 0.919370 0.676500 -0.481589
O38   O     O_R   0.554100 0.919370 0.323500 -0.503147
O39   O     O_R   0.945900 0.419370 0.676500 -0.483756
O40   O     O_R   0.054100 0.419370 0.323500 -0.498928
C17   C     C_R   0.469533 0.824066 0.647106 0.552876
C18   C     C_R   0.531795 0.822754 0.353904 0.549643
C19   C     C_R   0.969598 0.324120 0.647054 0.562120
C20   C     C_R   0.030843 0.322932 0.353442 0.539554
O41   O     O_R   0.456660 0.717710 0.669820 -0.537313
O42   O     O_R   0.543340 0.717710 0.330180 -0.504008
O43   O     O_R   0.956660 0.217710 0.669820 -0.539097
O44   O     O_R   0.043340 0.217710 0.330180 -0.511626
O45   O     O_R   0.320590 0.625770 0.672930 -0.497522
O46   O     O_R   0.679410 0.625770 0.327070 -0.511695
O47   O     O_R   0.820590 0.125770 0.672930 -0.499088
O48   O     O_R   0.179410 0.125770 0.327070 -0.520504
C21   C     C_R   0.275066 0.693090 0.637241 0.568440
C22   C     C_R   0.741845 0.634624 0.354806 0.540639
C23   C     C_R   0.774660 0.190782 0.637105 0.564776
C24   C     C_R   0.226040 0.188649 0.363524 0.550732
Cr1   Cr    Cr6+3 0.229640 0.835880 0.747370 1.093208
Cr2   Cr    Cr6+3 0.770360 0.835880 0.252630 1.116419
Cr3   Cr    Cr6+3 0.729640 0.335880 0.747370 1.095685
Cr4   Cr    Cr6+3 0.270360 0.335880 0.252630 1.124623
Cr5   Cr    Cr6+3 0.387390 0.989720 0.750850 1.060604
Cr6   Cr    Cr6+3 0.612610 0.989720 0.249150 1.048802
Cr7   Cr    Cr6+3 0.887390 0.489720 0.750850 1.059476
Cr8   Cr    Cr6+3 0.112610 0.489720 0.249150 1.054911
Cr9   Cr    Cr6+3 0.385770 0.677220 0.749340 1.053416
Cr10  Cr    Cr6+3 0.614230 0.677220 0.250660 1.063169
Cr11  Cr    Cr6+3 0.885770 0.177220 0.749340 1.055821
Cr12  Cr    Cr6+3 0.114230 0.177220 0.250660 1.062359
O49   O     O_3   0.334270 0.834280 0.749190 -0.323552
O50   O     O_3   0.665730 0.834280 0.250810 -0.280557
O51   O     O_3   0.834270 0.334280 0.749190 -0.324608
O52   O     O_3   0.165730 0.334280 0.250810 -0.306758
C25   C     C_3   0.461196 0.908012 0.030026 -0.130899
C26   C     C_3   0.517397 0.940476 0.974150 -0.119477
C27   C     C_3   0.961212 0.408032 0.030024 -0.131018
C28   C     C_3   0.017417 0.440472 0.974146 -0.118958
C29   C     C_3   0.436490 0.798393 0.984402 -0.113567
C30   C     C_3   0.571718 0.857378 0.013165 -0.128883
C31   C     C_3   0.936491 0.298420 0.984402 -0.114164
C32   C     C_3   0.071727 0.357355 0.013162 -0.128782
H1    H     H_    0.380259 0.776056 0.971011 0.115725
H2    H     H_    0.627935 0.877815 0.027407 0.120474
H3    H     H_    0.880257 0.276102 0.971012 0.115599
H4    H     H_    0.127947 0.377775 0.027403 0.120173
H5    H     H_    0.428650 0.969725 0.061689 0.126857
H6    H     H_    0.527708 0.032312 0.952573 0.143881
H7    H     H_    0.928679 0.469762 0.061691 0.126967
H8    H     H_    0.027737 0.532303 0.952566 0.144047
C33   C     C_3   0.493358 0.830164 0.929648 0.048651
C34   C     C_3   0.514649 0.825396 0.067343 0.048494
C35   C     C_3   0.993362 0.330166 0.929646 0.048737
C36   C     C_3   0.014654 0.325398 0.067342 0.047852
C37   C     C_3   0.547122 0.747644 0.967442 -0.114686
C38   C     C_3   0.490718 0.715566 0.022681 -0.091637
C39   C     C_3   0.047116 0.247628 0.967442 -0.114427
C40   C     C_3   0.990708 0.215574 0.022682 -0.091907
H9    H     H_    0.583400 0.684891 0.940424 0.180501
H10   H     H_    0.480240 0.623324 0.042997 0.195469
H11   H     H_    0.083386 0.184862 0.940421 0.180651
H12   H     H_    0.980217 0.123338 0.043000 0.195392
C41   C     C_R   0.239986 0.570849 0.071027 -0.008221
C42   C     C_R   0.771648 0.541422 0.933479 -0.002800
C43   C     C_R   0.739991 0.070860 0.071033 -0.008337
C44   C     C_R   0.271640 0.041451 0.933472 -0.002310
C45   C     C_R   0.303303 0.541091 0.037902 0.027491
C46   C     C_R   0.704255 0.528533 0.962412 0.030138
C47   C     C_R   0.803309 0.041098 0.037910 0.027029
C48   C     C_R   0.204247 0.028559 0.962403 0.030289
C49   C     C_R   0.309136 0.550921 0.963976 -0.046780
C50   C     C_R   0.694210 0.551391 0.034431 -0.046740
C51   C     C_R   0.809144 0.050933 0.963984 -0.046408
C52   C     C_R   0.194200 0.051417 0.034422 -0.048214
C53   C     C_R   0.185584 0.606392 0.954194 -0.176259
C54   C     C_R   0.817692 0.606854 0.048293 -0.177299
C55   C     C_R   0.685589 0.106393 0.954199 -0.176506
C56   C     C_R   0.317684 0.106875 0.048285 -0.177514
C57   C     C_R   0.181794 0.607600 0.027882 -0.187271
C58   C     C_R   0.827413 0.586658 0.976429 -0.176217
C59   C     C_R   0.681799 0.107607 0.027887 -0.187088
C60   C     C_R   0.327405 0.086686 0.976421 -0.175929
C61   C     C_3   0.341368 0.422596 0.040058 0.101460
C62   C     C_3   0.658154 0.418243 0.963509 0.095901
C63   C     C_3   0.841369 0.922598 0.040066 0.100993
C64   C     C_3   0.158144 0.918271 0.963494 0.095712
C65   C     C_3   0.349980 0.435110 0.960150 -0.232064
C66   C     C_3   0.646276 0.444289 0.041933 -0.228335
C67   C     C_3   0.849987 0.935119 0.960160 -0.232189
C68   C     C_3   0.146262 0.944317 0.041918 -0.227437
C69   C     C_R   0.249914 0.582682 0.921283 0.002577
C70   C     C_R   0.751586 0.585282 0.078843 0.001864
C71   C     C_R   0.749921 0.082693 0.921290 0.002427
C72   C     C_R   0.251578 0.085302 0.078835 0.001242
H13   H     H_    0.130959 0.629233 0.050382 0.176490
H14   H     H_    0.879726 0.601601 0.955252 0.167237
H15   H     H_    0.630964 0.129239 0.050385 0.176168
H16   H     H_    0.379718 0.101626 0.955245 0.167274
H17   H     H_    0.806857 0.846096 0.055688 0.128540
H18   H     H_    0.188456 0.835232 0.952880 0.118803
H19   H     H_    0.306859 0.346094 0.055686 0.127871
H20   H     H_    0.688469 0.335210 0.952893 0.118880
H21   H     H_    0.321390 0.363437 0.928876 0.131978
H22   H     H_    0.668984 0.373841 0.078135 0.125921
H23   H     H_    0.821399 0.863448 0.928883 0.132179
H24   H     H_    0.168965 0.873864 0.078120 0.127787
C73   C     C_R   0.514575 0.827898 0.428684 -0.001660
C74   C     C_R   0.499775 0.837245 0.577302 0.063907
C75   C     C_R   0.012353 0.327975 0.428015 0.001335
C76   C     C_R   0.999525 0.337778 0.576977 0.078205
C77   C     C_R   0.541962 0.737172 0.473374 0.036006
C78   C     C_R   0.536473 0.742182 0.546131 0.048825
C79   C     C_R   0.040916 0.238160 0.472618 0.010910
C80   C     C_R   0.037198 0.243951 0.545581 0.047457
C81   C     C_R   0.479690 0.937197 0.534067 -0.084710
C82   C     C_R   0.488240 0.932897 0.460061 -0.157919
C83   C     C_R   0.977907 0.436965 0.533763 -0.114727
C84   C     C_R   0.984701 0.432203 0.459518 -0.178496
C85   C     C_3   0.532558 0.602843 0.471408 -0.258114
C86   C     C_3   0.530608 0.606981 0.552224 -0.274897
C87   C     C_3   0.030865 0.103868 0.471250 -0.228852
C88   C     C_3   0.033003 0.108674 0.552137 -0.255785
H25   H     H_    0.452863 0.014663 0.556419 0.187992
H26   H     H_    0.472420 0.008665 0.427003 0.192638
H27   H     H_    0.951092 0.514105 0.556421 0.162605
H28   H     H_    0.966971 0.507645 0.426965 0.182277
H29   H     H_    0.075307 0.054336 0.447811 0.171348
H30   H     H_    0.984748 0.072211 0.576417 0.165703
H31   H     H_    0.578968 0.555913 0.450544 0.159387
H32   H     H_    0.480268 0.571647 0.573363 0.161936
H33   H     H_    0.481401 0.574854 0.445953 0.173757
H34   H     H_    0.578436 0.568034 0.578869 0.151499
H35   H     H_    0.978089 0.077789 0.448552 0.173538
H36   H     H_    0.082452 0.070876 0.576210 0.158245
C89   C     C_R   0.250599 0.617402 0.416388 0.020196
C90   C     C_R   0.759578 0.567610 0.570396 0.023395
C91   C     C_R   0.752042 0.111043 0.417280 0.029846
C92   C     C_R   0.243861 0.094626 0.581059 0.032349
C93   C     C_R   0.195549 0.666914 0.455645 -0.018634
C94   C     C_R   0.813605 0.627637 0.535851 -0.035130
C95   C     C_R   0.702040 0.182590 0.452037 -0.018327
C96   C     C_R   0.258019 0.212502 0.559597 0.031165
C97   C     C_R   0.205036 0.693590 0.525890 -0.006555
C98   C     C_R   0.815254 0.633171 0.463571 0.036783
C99   C     C_R   0.710527 0.208267 0.523044 -0.001690
C100  C     C_R   0.250969 0.243391 0.488668 0.016472
C101  C     C_R   0.330126 0.660831 0.517073 -0.176495
C102  C     C_R   0.712996 0.500770 0.454986 -0.167428
C103  C     C_R   0.826982 0.119474 0.523486 -0.154466
C104  C     C_R   0.209424 0.041618 0.460152 -0.149758
C105  C     C_R   0.320167 0.629621 0.444181 -0.155693
C106  C     C_R   0.711811 0.496482 0.529404 -0.166428
C107  C     C_R   0.817486 0.088194 0.451450 -0.162056
C108  C     C_R   0.213340 0.012613 0.531914 -0.174748
C109  C     C_3   0.120527 0.625403 0.465522 -0.219441
C110  C     C_3   0.843358 0.751083 0.548322 -0.241185
C111  C     C_3   0.623210 0.164970 0.458371 -0.218589
C112  C     C_3   0.320147 0.294191 0.573407 -0.225305
C113  C     C_3   0.130945 0.656249 0.543847 0.100370
C114  C     C_3   0.845644 0.760452 0.467549 0.111597
C115  C     C_3   0.633106 0.189038 0.537298 0.097587
C116  C     C_3   0.312789 0.328431 0.495099 0.084239
C117  C     C_R   0.270669 0.679172 0.560131 0.020589
C118  C     C_R   0.759615 0.581233 0.422511 0.011436
C119  C     C_R   0.770948 0.171579 0.560925 0.042331
C120  C     C_R   0.231303 0.156629 0.437576 0.050174
H37   H     H_    0.382635 0.663243 0.540431 0.124446
H38   H     H_    0.674095 0.450198 0.423480 0.125843
H39   H     H_    0.874821 0.093062 0.551276 0.136066
H40   H     H_    0.191230 0.972881 0.422466 0.148178
H41   H     H_    0.364779 0.603835 0.412507 0.161278
H42   H     H_    0.673442 0.439505 0.554861 0.118877
H43   H     H_    0.857864 0.036607 0.424960 0.151664
H44   H     H_    0.198312 0.922592 0.547959 0.129132
H45   H     H_    0.081555 0.685144 0.437546 0.183033
H46   H     H_    0.804445 0.813925 0.572281 0.148967
H47   H     H_    0.592622 0.237271 0.430212 0.133172
H48   H     H_    0.307173 0.370078 0.609931 0.162138
H49   H     H_    0.097770 0.733161 0.561972 0.137902
H50   H     H_    0.810143 0.831530 0.444981 0.136903
H51   H     H_    0.604874 0.271141 0.555796 0.110121
H52   H     H_    0.296156 0.422333 0.486999 0.135519
H53   H     H_    0.114207 0.527059 0.454218 0.179018
H54   H     H_    0.896004 0.747471 0.576317 0.185791
H55   H     H_    0.605467 0.071207 0.445562 0.191718
H56   H     H_    0.369977 0.245302 0.587491 0.182949
N1    N     N_R   0.127978 0.549551 0.590214 0.098122
O53   O     O_R   0.164777 0.452878 0.576753 -0.379801
O54   O     O_R   0.090572 0.553355 0.647607 -0.316357
N2    N     N_R   0.918005 0.766573 0.440951 0.061562
O55   O     O_R   0.931105 0.726471 0.377248 -0.330160
O56   O     O_R   0.965779 0.832557 0.474150 -0.419043
N3    N     N_R   0.619423 0.081315 0.580734 0.099305
O57   O     O_R   0.650570 0.978586 0.567779 -0.356509
O58   O     O_R   0.578764 0.090094 0.635614 -0.321599
N4    N     N_R   0.373706 0.292185 0.453297 0.092219
O59   O     O_R   0.398236 0.182325 0.457143 -0.379611
O60   O     O_R   0.403764 0.370085 0.411557 -0.357932
H57   H     H_    0.139131 0.633572 0.923110 0.176109
H58   H     H_    0.862207 0.641751 0.079816 0.182838
H59   H     H_    0.639135 0.133566 0.923115 0.175808
H60   H     H_    0.362201 0.141765 0.079807 0.181911
N5    N     N_R   0.408668 0.427514 0.080393 0.066946
O61   O     O_R   0.414707 0.494194 0.137648 -0.327919
O62   O     O_R   0.456837 0.346319 0.068388 -0.344601
N6    N     N_R   0.593192 0.428396 0.919629 0.077086
O63   O     O_R   0.591596 0.495658 0.862601 -0.322907
O64   O     O_R   0.541563 0.352169 0.929652 -0.340884
N7    N     N_R   0.908667 0.927500 0.080405 0.067800
O65   O     O_R   0.914708 0.994177 0.137662 -0.326596
O66   O     O_R   0.956830 0.846292 0.068406 -0.342260
N8    N     N_R   0.093185 0.928433 0.919609 0.076935
O67   O     O_R   0.091604 0.995670 0.862570 -0.322882
O68   O     O_R   0.041548 0.852223 0.929636 -0.341033
H61   H     H_    0.405460 0.451676 0.943695 0.213327
H62   H     H_    0.591281 0.472309 0.054175 0.203462
H63   H     H_    0.905469 0.951684 0.943710 0.213296
H64   H     H_    0.091266 0.972341 0.054156 0.203729

loop_
_geom_bond_atom_site_label_1
_geom_bond_atom_site_label_2
_geom_bond_distance
_ccdc_geom_bond_type
C18   O42   1.261229 A    
C111  C115  1.508640 S    
C83   C84   1.400686 A    
O4    C12   1.260134 A    
C99   C119  1.389129 A    
O47   Cr11  1.945788 S    
C77   C78   1.370380 A    
O39   C19   1.272773 A    
O20   Cr12  2.069349 S    
C81   C82   1.400286 A    
C102  H38   1.082286 S    
Cr11  O51   1.988346 S    
C39   C40   1.541985 S    
C101  H37   1.072605 S    
C14   C91   1.442540 S    
C96   C100  1.375672 A    
C41   C57   1.407923 A    
C43   C47   1.398313 A    
Cr7   O51   1.980981 S    
C50   C70   1.397606 A    
O1    C9    1.270468 A    
N7    O65   1.301609 A    
C54   C58   1.380808 A    
C85   C86   1.515826 S    
O45   C21   1.308870 A    
O15   Cr7   1.950879 S    
C115  N3    1.466305 S    
C74   C81   1.416026 A    
C30   C37   1.544143 S    
C85   H33   1.107772 S    
O5    C1    1.293257 A    
C22   C118  1.432093 S    
C111  H47   1.111938 S    
C82   H26   1.079344 S    
C73   C77   1.397815 A    
C99   C115  1.504127 S    
C92   C96   1.387725 A    
C79   C87   1.491847 S    
C68   H64   1.111925 S    
C109  H53   1.109638 S    
N1    O53   1.301497 A    
C55   C59   1.383977 A    
C31   C40   1.538518 S    
O26   Cr2   2.082289 S    
C112  H48   1.111516 S    
C55   H59   1.083287 S    
C56   C60   1.380785 A    
C55   C71   1.398867 A    
C40   H12   1.105125 S    
C54   C70   1.403315 A    
C63   H17   1.107155 S    
C77   C85   1.490979 S    
C58   H14   1.083815 S    
C47   C63   1.493031 S    
C28   C32   1.547704 S    
C20   C75   1.448966 S    
O23   Cr11  1.953165 S    
N2    O55   1.301408 A    
C61   H19   1.107146 S    
C114  N2    1.464720 S    
N5    O61   1.301607 A    
O30   C14   1.282615 A    
C45   C61   1.493020 S    
C101  C105  1.415435 A    
O32   Cr4   1.954038 S    
C1    O9    1.282792 A    
O44   Cr12  2.074235 S    
C41   C45   1.398315 A    
C19   C76   1.449149 S    
C28   C35   1.533864 S    
C29   C33   1.541175 S    
C74   C78   1.393137 A    
C3    O11   1.282825 A    
C90   C106  1.404885 A    
O11   Cr7   2.079805 S    
C17   C74   1.446384 S    
C104  C108  1.382651 A    
O21   C9    1.271870 A    
C49   C65   1.496006 S    
C109  C113  1.513486 S    
C25   C34   1.519472 S    
C106  H42   1.076627 S    
O47   C23   1.300805 A    
O6    Cr2   1.963208 S    
C8    C36   1.452992 S    
C65   H61   1.111851 S    
O7    Cr3   1.958973 S    
C68   H24   1.112101 S    
O3    Cr3   2.077524 S    
C27   H7    1.100234 S    
Cr4   O52   1.971625 S    
C53   C69   1.398875 A    
C42   C58   1.397912 A    
C37   H9    1.105270 S    
C29   C38   1.538512 S    
C87   H29   1.101487 S    
C46   C50   1.389594 A    
O2    C10   1.260132 A    
C108  H44   1.076270 S    
O42   Cr10  2.074235 S    
Cr5   O49   1.980981 S    
O18   Cr10  2.069349 S    
O28   C24   1.290536 A    
C31   C35   1.541189 S    
C64   N8    1.462925 S    
C92   C108  1.401075 A    
C83   H27   1.082278 S    
C98   C118  1.404912 A    
C63   C67   1.516038 S    
C103  C119  1.405933 A    
C66   H22   1.112101 S    
C113  H49   1.112957 S    
C93   C109  1.500337 S    
O34   Cr6   2.064610 S    
C81   H25   1.082923 S    
C60   H16   1.083816 S    
C12   C72   1.447047 S    
C20   O44   1.263422 A    
C26   C30   1.547699 S    
C95   C99   1.364917 A    
N3    O58   1.300767 A    
O31   Cr3   1.956918 S    
O24   Cr12  1.954595 S    
C32   C39   1.544152 S    
C62   N6    1.462928 S    
O30   Cr2   1.954038 S    
C78   C86   1.498866 S    
C97   C117  1.389461 A    
O22   C10   1.272481 A    
O27   Cr3   2.077002 S    
O48   Cr12  1.950178 S    
C4    O12   1.261555 A    
C76   C80   1.394253 A    
O36   Cr8   2.064610 S    
C57   H13   1.083356 S    
C46   C62   1.492050 S    
N6    O64   1.300481 A    
C5    O17   1.268790 A    
C2    O10   1.261556 A    
C89   C105  1.404963 A    
C79   C80   1.371659 A    
C90   C94   1.386273 A    
O15   C7    1.271034 A    
C52   C72   1.397625 A    
C109  H45   1.111064 S    
C91   C95   1.402896 A    
N4    O59   1.299581 A    
C110  C114  1.518437 S    
C103  C107  1.399290 A    
C50   C66   1.492735 S    
O12   Cr8   2.078487 S    
C43   C59   1.407917 A    
C36   C40   1.530701 S    
O43   Cr11  2.073086 S    
O48   C24   1.297554 A    
C44   C60   1.397902 A    
C112  C116  1.518601 S    
C56   C72   1.403320 A    
O22   Cr10  1.954595 S    
O7    C3    1.293280 A    
C66   H62   1.111922 S    
C45   C49   1.396215 A    
C9    C69   1.455574 S    
C89   C93   1.398378 A    
C114  H50   1.110020 S    
C94   C110  1.485735 S    
O39   Cr7   1.958294 S    
C95   C111  1.505282 S    
C13   C92   1.426627 S    
C47   C51   1.396221 A    
C87   C88   1.515609 S    
C64   H18   1.101365 S    
O3    C11   1.270479 A    
C75   C79   1.397777 A    
O8    C4    1.279295 A    
C7    C35   1.454687 S    
O13   Cr5   1.950879 S    
C13   O33   1.263400 A    
C110  H46   1.112761 S    
C103  H39   1.071808 S    
O16   Cr8   1.945167 S    
C51   C67   1.496019 S    
O29   C13   1.261642 A    
Cr2   O50   1.971625 S    
C105  H41   1.079540 S    
C75   C84   1.399072 A    
C52   C68   1.492752 S    
O35   Cr7   2.071098 S    
Cr1   O49   1.971768 S    
C16   C89   1.454676 S    
C11   C71   1.455585 S    
C6    O18   1.258515 A    
N8    O68   1.300482 A    
C53   C57   1.383991 A    
C73   C82   1.395702 A    
C54   H58   1.083171 S    
C39   H11   1.105271 S    
C65   H21   1.112421 S    
O26   C22   1.246109 A    
C67   H63   1.111848 S    
C104  C120  1.400940 A    
O21   Cr9   1.953165 S    
O31   C15   1.267590 A    
C7    O19   1.268799 A    
C80   C88   1.498493 S    
O8    Cr4   1.963208 S    
C62   C66   1.518464 S    
O37   Cr5   1.958294 S    
C100  C120  1.394580 A    
O25   C21   1.295924 A    
C21   C117  1.452656 S    
C19   O43   1.273571 A    
C56   H60   1.083169 S    
C86   H32   1.106638 S    
C98   C114  1.514459 S    
C116  N4    1.461964 S    
C29   H1    1.109831 S    
C38   H10   1.105121 S    
C27   C28   1.548512 S    
C97   C113  1.500511 S    
C8    O20   1.258517 A    
O14   Cr6   1.945167 S    
C63   N7    1.461451 S    
O38   C18   1.282876 A    
C49   C69   1.403256 A    
C62   H20   1.101349 S    
N7    O66   1.300689 A    
C111  H55   1.109184 S    
C61   C65   1.516048 S    
C30   C34   1.537065 S    
C88   H36   1.108674 S    
O27   C23   1.294238 A    
C88   H30   1.101586 S    
C115  H51   1.110905 S    
C25   H5    1.100230 S    
C91   C107  1.399843 A    
C35   C39   1.526681 S    
C27   C36   1.519476 S    
C110  H54   1.111977 S    
O5    Cr1   1.958973 S    
C48   C64   1.492048 S    
C64   C68   1.518470 S    
C26   C33   1.533858 S    
C53   H57   1.083289 S    
N6    O63   1.301342 A    
C76   C83   1.416953 A    
O17   Cr9   2.065931 S    
O37   C17   1.272394 A    
O6    C2    1.279290 A    
N2    O56   1.301035 A    
C15   O35   1.260421 A    
N3    O57   1.302808 A    
O24   C12   1.272460 A    
C17   O41   1.272456 A    
C61   N5    1.461446 S    
C14   O34   1.253562 A    
C23   C119  1.442275 S    
O25   Cr1   2.077002 S    
O40   Cr8   1.956786 S    
C48   C52   1.389592 A    
C93   C97   1.355271 A    
C59   H15   1.083356 S    
O1    Cr1   2.077524 S    
C102  C118  1.396644 A    
C87   H35   1.108946 S    
O14   C6    1.272760 A    
C107  H43   1.081496 S    
C101  C117  1.411534 A    
C2    C43   1.456862 S    
Cr8   O52   1.988030 S    
O32   C16   1.291414 A    
C26   H6    1.108976 S    
C37   C38   1.541973 S    
C86   H34   1.108281 S    
O46   Cr10  1.950178 S    
Cr10  O50   1.981529 S    
C10   C70   1.447019 S    
C84   H28   1.081396 S    
C94   C98   1.356567 A    
Cr12  O52   1.981529 S    
C33   C37   1.526674 S    
C15   C90   1.432193 S    
C42   C46   1.399906 A    
C32   H4    1.108567 S    
O23   C11   1.271861 A    
C113  N1    1.465141 S    
C100  C116  1.495050 S    
C116  H52   1.092599 S    
O33   Cr5   2.071098 S    
C31   H3    1.109835 S    
C67   H23   1.112417 S    
O10   Cr6   2.078487 S    
C25   C29   1.542737 S    
Cr9   O49   1.988346 S    
O4    Cr4   2.075418 S    
C6    C34   1.452987 S    
N8    O67   1.301346 A    
C28   H8    1.108973 S    
O29   Cr1   1.956918 S    
O19   Cr11  2.065931 S    
C96   C112  1.491716 S    
O28   Cr4   2.082289 S    
C16   O36   1.252151 A    
O40   C20   1.283487 A    
O46   C22   1.278151 A    
C85   H31   1.097778 S    
C27   C31   1.542744 S    
C34   C38   1.530698 S    
Cr6   O50   1.988030 S    
C102  C106  1.395657 A    
C104  H40   1.083696 S    
C1    C44   1.444681 S    
C30   H2    1.108561 S    
O45   Cr9   1.945788 S    
C32   C36   1.537078 S    
C24   C120  1.433226 S    
O41   Cr9   2.073086 S    
C4    C41   1.456883 S    
C112  H56   1.111216 S    
O2    Cr2   2.075418 S    
N1    O54   1.300596 A    
C25   C26   1.548500 S    
N5    O62   1.300687 A    
C18   C73   1.446642 S    
N4    O60   1.299933 A    
O9    Cr5   2.079805 S    
O16   C8    1.272752 A    
C3    C42   1.444733 S    
C5    C33   1.454672 S    
Cr3   O51   1.971768 S    
C44   C48   1.399892 A    
C51   C71   1.403276 A    
O38   Cr6   1.956786 S    
O13   C5    1.271034 A    
