data_str_m9_o2_o2_f0_sra.sym.8
_audit_creation_date              2012-12-11T16:35:25-0500
_audit_creation_method            fapswitch 2.2
_symmetry_space_group_name_H-M    P1
_symmetry_Int_Tables_number       1
_space_group_crystal_system       triclinic
_cell_length_a                    6.928563
_cell_length_b                    17.50979
_cell_length_c                    19.655168
_cell_angle_alpha                 108.904859
_cell_angle_beta                  90.752811
_cell_angle_gamma                 90.825965
_cell_volume                      2255.25923829

loop_
_atom_site_label
_atom_site_type_symbol
_atom_type_description
_atom_site_fract_x
_atom_site_fract_y
_atom_site_fract_z
_atom_type_partial_charge
O1    O     O_R   0.505700 0.440210 0.561730 -0.546812
O2    O     O_R   0.169350 0.406300 0.412660 -0.547113
O3    O     O_R   0.005650 0.559790 0.438270 -0.511967
C1    C     C_R   0.336680 0.382662 0.385104 0.670795
O4    O     O_R   0.175560 0.430650 0.559600 -0.546876
O5    O     O_R   0.011900 0.584320 0.586250 -0.512703
C2    C     C_R   0.344609 0.415038 0.580758 0.687929
O6    O     O_R   0.499450 0.415680 0.413750 -0.536669
O7    O     O_3   0.341370 0.550390 0.508570 -0.347187
V1    V     V_3+5 0.063940 0.490650 0.498410 1.480220
O8    O     O_R   0.682570 0.593700 0.587340 -0.545766
C3    C     C_R   0.854438 0.620661 0.611956 0.784716
O9    O     O_R   0.676370 0.569350 0.440400 -0.555713
C4    C     C_R   0.844513 0.585002 0.419150 0.745346
V2    V     V_3+5 0.564750 0.509350 0.501590 1.466046
O10   O     O_3   0.837190 0.449610 0.491430 -0.381179
C5    C     C_R   0.024997 0.670704 0.276948 -0.086423
H1    H     H_    0.145295 0.660744 0.240704 0.151738
C6    C     C_R   0.010311 0.626303 0.324399 -0.067055
H2    H     H_    0.120037 0.582538 0.323271 0.149931
C7    C     C_R   0.854954 0.636713 0.371838 -0.101755
C8    C     C_R   0.714142 0.695308 0.371859 0.023371
C9    C     C_R   0.728014 0.737446 0.321842 -0.068135
H3    H     H_    0.620877 0.781689 0.321066 0.146671
C10   C     C_R   0.882826 0.725765 0.274561 0.017650
C11   C     C_R   0.739523 0.769236 0.175797 -0.191316
H4    H     H_    0.612543 0.732706 0.176908 0.108523
C12   C     C_R   0.749420 0.810261 0.125069 0.028603
C13   C     C_R   0.914667 0.859768 0.124831 -0.012480
C14   C     C_R   0.070461 0.860133 0.171532 -0.195840
H5    H     H_    0.198272 0.896277 0.172091 0.170603
C15   C     C_R   0.062109 0.815728 0.219162 -0.128490
H6    H     H_    0.184399 0.817905 0.254710 0.138917
C16   C     C_R   0.895103 0.771192 0.222684 0.088669
H7    H     H_    0.935159 0.602210 0.916092 0.164053
C17   C     C_R   0.877881 0.913986 0.757297 -0.163469
C18   C     C_R   0.878691 0.935555 0.695390 -0.167720
C19   C     C_R   0.904260 0.877196 0.629356 -0.089660
C20   C     C_R   0.918906 0.795972 0.623876 0.320755
C21   C     C_R   0.893911 0.770635 0.685435 0.008129
C22   C     C_R   0.889989 0.832079 0.754086 0.025309
C23   C     C_R   0.872384 0.687998 0.681703 -0.144386
C24   C     C_R   0.871275 0.668157 0.746228 0.023235
C25   C     C_R   0.908440 0.728803 0.814181 0.001103
C26   C     C_R   0.906020 0.811897 0.818296 -0.142606
C27   C     C_R   0.839968 0.587074 0.743655 -0.152849
C28   C     C_R   0.854071 0.564983 0.805137 -0.173384
C29   C     C_R   0.910587 0.621719 0.869771 -0.081532
C30   C     C_R   0.944113 0.702191 0.874680 0.379883
H8    H     H_    0.869199 0.962787 0.807659 0.104902
H9    H     H_    0.869485 0.998446 0.699076 0.169854
H10   H     H_    0.920433 0.895799 0.582232 0.165784
H11   H     H_    0.805178 0.539399 0.693982 0.107034
H12   H     H_    0.830063 0.502638 0.801899 0.157929
C31   C     C_R   0.241812 0.215535 0.368548 -0.157954
C32   C     C_R   0.226217 0.136035 0.367438 -0.160366
C33   C     C_R   0.307363 0.074993 0.312108 -0.092221
C34   C     C_R   0.398626 0.092258 0.255262 -0.020611
C35   C     C_R   0.385095 0.171227 0.248911 -0.021399
C36   C     C_R   0.322863 0.234831 0.310450 0.084686
C37   C     C_R   0.433541 0.188269 0.184449 -0.180932
C38   C     C_R   0.452718 0.271390 0.187152 0.007712
C39   C     C_R   0.407589 0.334402 0.252478 -0.000894
C40   C     C_R   0.346338 0.316279 0.314133 -0.144036
C41   C     C_R   0.518386 0.296226 0.128418 0.358700
C42   C     C_R   0.528388 0.377702 0.133881 -0.198257
C43   C     C_R   0.479972 0.437788 0.196542 -0.019477
C44   C     C_R   0.420455 0.416205 0.255319 -0.150152
H13   H     H_    0.186948 0.261526 0.415060 0.110182
H14   H     H_    0.161164 0.122297 0.412011 0.130592
H15   H     H_    0.310382 0.014896 0.316476 0.155724
H16   H     H_    0.578896 0.394651 0.088655 0.166131
H17   H     H_    0.381842 0.464393 0.303319 0.142488
C45   C     C_R   0.213941 0.258631 0.670866 0.069832
C46   C     C_R   0.204554 0.308746 0.627463 -0.256013
H18   H     H_    0.082817 0.302404 0.590682 0.109010
C47   C     C_R   0.354282 0.364086 0.628350 -0.038130
C48   C     C_R   0.514511 0.369443 0.674206 -0.159440
H19   H     H_    0.632862 0.410996 0.675759 0.118504
C49   C     C_R   0.522060 0.322787 0.719993 -0.165440
H20   H     H_    0.645310 0.330252 0.756228 0.168946
C50   C     C_R   0.372049 0.267857 0.720118 0.106648
C51   C     C_R   0.241758 0.227707 0.824412 0.451568
C52   C     C_R   0.255962 0.181920 0.871051 -0.164245
H21   H     H_    0.143060 0.185827 0.909595 0.170813
C53   C     C_R   0.416095 0.133026 0.869538 -0.096400
C54   C     C_R   0.563300 0.131138 0.820601 -0.105146
H22   H     H_    0.688983 0.094479 0.818539 0.124623
C55   C     C_R   0.547108 0.174699 0.772304 -0.141883
H23   H     H_    0.660787 0.170622 0.734044 0.155065
C56   C     C_R   0.385186 0.222420 0.772622 0.041264
O11   O     O_R   0.273230 0.084330 0.086440 -0.543351
O12   O     O_R   0.596660 0.069390 0.940470 -0.520222
O13   O     O_R   0.760270 0.915710 0.913690 -0.540812
C57   C     C_R   0.427410 0.083614 0.918276 0.764512
O14   O     O_R   0.603330 0.093680 0.087390 -0.525303
O15   O     O_R   0.766990 0.940160 0.061660 -0.530374
C58   C     C_R   0.436554 0.119195 0.114338 0.756049
O16   O     O_R   0.266510 0.059870 0.938470 -0.554515
O17   O     O_3   0.431050 0.949630 0.991510 -0.345204
V3    V     V_3+5 0.708490 0.009340 0.001580 1.568719
O18   O     O_R   0.096270 0.930570 0.059390 -0.528249
C59   C     C_R   0.926698 0.913412 0.079318 0.775332
O19   O     O_R   0.089600 0.906290 0.912460 -0.522943
C60   C     C_R   0.918382 0.879190 0.888091 0.789692
V4    V     V_3+5 0.207670 0.990600 0.998190 1.559170
O20   O     O_3   0.935250 0.050360 0.008480 -0.369129
Cl1   Cl    Cl    0.007681 0.734722 0.541690 -0.695210
Cl2   Cl    Cl    0.064623 0.759616 0.954080 -0.666608
C61   C     C_2   0.496059 0.523286 0.199947 0.336146
H24   H     H_    0.542764 0.538497 0.153328 0.062461
O21   O     O_2   0.458202 0.577790 0.254717 -0.553903
C62   C     C_2   0.538779 0.032593 0.213768 0.303602
H25   H     H_    0.664157 0.052475 0.191405 0.064142
O22   O     O_2   0.523223 0.961349 0.208255 -0.567139
Cl3   Cl    Cl    0.612139 0.233696 0.047607 -0.664350
C63   C     C_2   0.059384 0.195955 0.660232 0.380575
H26   H     H_    0.925567 0.201053 0.632786 0.038809
O23   O     O_2   0.081032 0.136815 0.679300 -0.540597
Cl4   Cl    Cl    0.045521 0.293144 0.834444 -0.675109
C64   C     C_2   0.557499 0.716999 0.425281 0.453789
H27   H     H_    0.571476 0.706154 0.476328 0.084225
O24   O     O_2   0.411334 0.749163 0.413449 -0.508623
C65   C     C_2   0.586985 0.795873 0.072228 0.462084
H28   H     H_    0.443674 0.782149 0.087324 0.062854
O25   O     O_2   0.612709 0.793927 0.010384 -0.498625

loop_
_geom_bond_atom_site_label_1
_geom_bond_atom_site_label_2
_ccdc_geom_bond_type
C25   C30   A    
V3    O20   S    
C31   C32   A    
O13   C60   A    
C37   C58   S    
C1    O6    A    
O19   V4    S    
O11   C58   A    
C47   C48   A    
C11   H4    S    
C38   C39   A    
C4    C7    S    
C7    C8    A    
C17   C18   A    
C6    C7    A    
C18   C19   A    
C52   C53   A    
C65   O25   D    
C63   O23   D    
O5    C3    A    
C14   H5    S    
C18   H9    S    
C57   O16   A    
C19   H10   S    
V4    O20   S    
V2    O10   S    
C32   C33   A    
C13   C59   S    
C45   C63   S    
C61   H24   S    
C3    C23   S    
C27   C28   A    
O8    V2    S    
C11   C16   A    
C42   H16   S    
C51   C52   A    
O13   V3    S    
O14   C58   A    
C34   C62   S    
C9    H3    S    
O1    V2    S    
O9    C4    A    
C55   C56   A    
O7    V1    S    
C10   C16   S    
C2    C47   S    
C21   C23   A    
C42   C43   A    
C35   C36   A    
O12   C57   A    
C31   C36   A    
C17   C22   A    
C37   C38   A    
C45   C50   A    
H7    C29   S    
O19   C60   A    
C26   C60   S    
C20   Cl1   S    
C35   C37   A    
C45   C46   A    
C43   C44   A    
C52   H21   S    
C49   C50   A    
O12   V3    S    
C20   C21   A    
O4    C2    A    
C53   C54   A    
C44   H17   S    
C50   C56   S    
C15   C16   A    
C51   Cl4   S    
O2    C1    A    
C46   H18   S    
C13   C14   A    
C43   C61   S    
C28   C29   A    
C5    H1    S    
O15   C59   A    
C33   H15   S    
C46   C47   A    
C64   H27   S    
C31   H13   S    
O3    C4    A    
C28   H12   S    
O11   V4    S    
C21   C22   A    
O6    V2    S    
C32   H14   S    
C54   C55   A    
C24   C25   A    
C41   Cl3   S    
C23   C24   A    
O2    V1    S    
C17   H8    S    
C25   C26   A    
C8    C64   S    
C30   Cl2   S    
C62   H25   S    
O16   V4    S    
C39   C44   A    
C12   C13   A    
C38   C41   A    
O1    C2    A    
C11   C12   A    
C49   H20   S    
O5    V1    S    
O8    C3    A    
C12   C65   S    
C51   C56   A    
C1    C40   S    
O17   V4    S    
C36   C40   A    
C5    C10   A    
C15   H6    S    
C6    H2    S    
O9    V2    S    
C34   C35   A    
O4    V1    S    
O3    V1    S    
V1    O10   S    
C63   H26   S    
C14   C15   A    
C48   H19   S    
C33   C34   A    
C19   C20   A    
C29   C30   A    
C27   H11   S    
O17   V3    S    
C5    C6    A    
O18   V4    S    
C48   C49   A    
C9    C10   A    
O7    V2    S    
O18   C59   A    
C24   C27   A    
C61   O21   D    
C64   O24   D    
C53   C57   S    
C39   C40   A    
C54   H22   S    
C41   C42   A    
C22   C26   A    
C8    C9    A    
C55   H23   S    
O14   V3    S    
O15   V3    S    
C65   H28   S    
C62   O22   D    
