data_str_m12_o9_o10_f0_bcu.sym.31
_audit_creation_date              2013-03-05T15:57:25-0500
_audit_creation_method            fapswitch 2.2
_symmetry_space_group_name_H-M    P1
_symmetry_Int_Tables_number       1
_space_group_crystal_system       triclinic
_cell_length_a                    13.176696
_cell_length_b                    13.095822
_cell_length_c                    15.703739
_cell_angle_alpha                 117.310022
_cell_angle_beta                  62.732979
_cell_angle_gamma                 98.331459
_cell_volume                      2132.90851393

loop_
_atom_site_label
_atom_site_type_symbol
_atom_site_description
_atom_site_fract_x
_atom_site_fract_y
_atom_site_fract_z
_atom_type_partial_charge
C1    C     C_R   0.006694 0.834153 0.048264 -0.110451
H1    H     H_    0.042594 0.899701 0.096476 0.095528
N1    N     N_R   0.037320 0.720000 0.995830 -0.048428
C2    C     C_R   0.679712 0.466458 0.220376 -0.140110
H2    H     H_    0.610951 0.422851 0.202579 0.094935
N2    N     N_R   0.790770 0.446140 0.151990 -0.044637
C3    C     C_R   0.741607 0.550507 0.925447 -0.133159
H3    H     H_    0.752763 0.586825 0.872569 0.112666
N3    N     N_R   0.824900 0.517970 0.936430 -0.044471
C4    C     C_R   0.985486 0.717820 0.311251 -0.158281
H4    H     H_    0.960202 0.691280 0.373278 0.092639
N4    N     N_R   0.003190 0.648180 0.211390 -0.033046
C5    C     C_R   0.664879 0.451386 0.022120 -0.151865
H5    H     H_    0.609070 0.398730 0.057987 0.089752
N5    N     N_R   0.774330 0.457010 0.995830 -0.044248
C6    C     C_R   0.060634 0.816583 0.215804 -0.149693
H6    H     H_    0.104076 0.878956 0.188341 0.116319
N6    N     N_R   0.053760 0.709130 0.151980 -0.041643
C7    C     C_R   0.780442 0.567174 0.310302 -0.085996
H7    H     H_    0.801124 0.625899 0.373454 0.108415
N7    N     N_R   0.853840 0.498830 0.211390 -0.040866
C8    C     C_R   0.904754 0.749538 0.956727 -0.172069
H8    H     H_    0.844443 0.735698 0.925168 0.089061
N8    N     N_R   0.974250 0.667320 0.936430 -0.038268
C9    C     C_R   0.920054 0.854224 0.029441 0.138100
C10   C     C_R   0.672133 0.541768 0.320054 0.042270
C11   C     C_R   0.641670 0.513284 0.983067 0.147716
C12   C     C_R   0.008964 0.827357 0.318159 0.056077
C13   C     C_R   0.337852 0.521252 0.955211 -0.002584
N9    N     N_R   0.225670 0.542990 0.004170 -0.085355
C14   C     C_R   0.899178 0.203727 0.795487 -0.062703
H9    H     H_    0.835549 0.157180 0.833667 0.085787
N10   N     N_R   0.946240 0.290870 0.848020 -0.043492
C15   C     C_R   0.206849 0.485793 0.689341 -0.102899
H10   H     H_    0.179749 0.440574 0.627494 0.133908
N11   N     N_R   0.146160 0.501170 0.788610 -0.042260
C16   C     C_R   0.060488 0.250968 0.075534 -0.137661
H11   H     H_    0.101234 0.267087 0.125733 0.080199
N12   N     N_R   0.025750 0.332680 0.063570 -0.037435
C17   C     C_R   0.961549 0.168300 0.981202 -0.044900
H12   H     H_    0.911544 0.109233 0.944167 0.091745
N13   N     N_R   0.962680 0.280000 0.004170 -0.052256
C18   C     C_R   0.297452 0.592307 0.787397 -0.117252
H13   H     H_    0.345508 0.662587 0.815679 0.096878
N14   N     N_R   0.209230 0.553860 0.848010 -0.050127
C19   C     C_R   0.258662 0.424676 0.054324 -0.167524
H14   H     H_    0.247720 0.379054 0.099989 0.100608
N15   N     N_R   0.175100 0.482030 0.063570 -0.044913
C20   C     C_R   0.986489 0.299346 0.698745 -0.116859
H15   H     H_    0.009599 0.337364 0.645041 0.094380
N16   N     N_R   0.996810 0.351820 0.788610 -0.041083
Ni1   Ni    Ni4+2 0.130310 0.630310 0.000000 0.204658
Ni2   Ni    Ni4+2 0.869690 0.369690 0.000000 0.215304
Ni3   Ni    Ni4+2 0.985660 0.509480 0.863750 0.219516
Ni4   Ni    Ni4+2 0.014340 0.490520 0.136250 0.220888
C21   C     C_R   0.361207 0.447862 0.986068 0.125580
C22   C     C_R   0.924619 0.204776 0.699858 0.083547
C23   C     C_R   0.300405 0.547003 0.687996 0.050915
C24   C     C_R   0.023706 0.145615 0.023339 0.082233
H16   H     H_    0.382295 0.114204 0.132950 0.098011
C25   C     C_R   0.308476 0.038131 0.242070 -0.127070
H17   H     H_    0.390377 0.005687 0.224320 0.112260
C26   C     C_R   0.207332 0.019447 0.316958 -0.129078
H18   H     H_    0.211924 0.972813 0.357105 0.117531
C27   C     C_R   0.100633 0.060900 0.339987 0.117881
C28   C     C_R   0.096630 0.122904 0.288560 -0.217518
H19   H     H_    0.015297 0.156880 0.306694 0.113233
C29   C     C_R   0.198234 0.141693 0.213941 -0.119801
H20   H     H_    0.195566 0.189954 0.174744 0.100601
C30   C     C_R   0.303920 0.099248 0.190582 -0.093044
C31   C     C_R   0.943861 0.138573 0.520096 -0.223213
H21   H     H_    0.966305 0.222134 0.522614 0.119831
C32   C     C_R   0.897642 0.121774 0.612652 0.082610
C33   C     C_R   0.858191 0.012810 0.605519 0.099270
C34   C     C_R   0.874341 0.926253 0.506520 -0.231868
H22   H     H_    0.839634 0.844790 0.502307 0.120064
C35   C     C_R   0.960105 0.934181 0.415488 0.071637
C36   C     C_R   0.994715 0.043526 0.421863 0.025981
C37   C     C_R   0.937493 0.942432 0.687139 0.630470
C38   C     C_R   0.921188 0.908341 0.765326 -0.151653
C39   C     C_R   0.810552 0.887447 0.827044 -0.314408
H23   H     H_    0.795839 0.858970 0.885764 0.128159
C40   C     C_R   0.716613 0.906534 0.816065 -0.064763
H24   H     H_    0.631810 0.890465 0.864535 0.124114
C41   C     C_R   0.731370 0.949357 0.745012 -0.253967
H25   H     H_    0.657763 0.966299 0.738569 0.150032
C42   C     C_R   0.841018 0.970343 0.682678 -0.104761
H26   H     H_    0.028257 0.426672 0.353934 0.109285
C43   C     C_R   0.868702 0.362512 0.354876 -0.120518
H27   H     H_    0.907402 0.278769 0.289363 0.108978
C44   C     C_R   0.752055 0.390420 0.396773 -0.097293
H28   H     H_    0.701959 0.328843 0.360867 0.114834
C45   C     C_R   0.703223 0.501804 0.477231 0.128241
C46   C     C_R   0.768794 0.580417 0.523647 -0.165568
H29   H     H_    0.732164 0.666650 0.585542 0.127000
C47   C     C_R   0.886259 0.553422 0.478714 -0.142766
H30   H     H_    0.938896 0.618086 0.507697 0.122293
C48   C     C_R   0.936574 0.445570 0.392612 -0.103470
C49   C     C_R   0.499325 0.552991 0.588576 -0.231858
H31   H     H_    0.512560 0.539854 0.646279 0.184237
C50   C     C_R   0.389809 0.562730 0.599721 0.062193
C51   C     C_R   0.371620 0.572093 0.521489 0.037590
C52   C     C_R   0.466379 0.572672 0.432623 -0.244698
H32   H     H_    0.454868 0.578348 0.370752 0.129486
C53   C     C_R   0.576068 0.557025 0.419579 0.075014
C54   C     C_R   0.592461 0.542795 0.496664 -0.004676
C55   C     C_R   0.236065 0.460661 0.450964 -0.160404
H33   H     H_    0.306178 0.398856 0.382352 0.121091
C56   C     C_R   0.123866 0.430081 0.474371 -0.154475
H34   H     H_    0.108007 0.347154 0.422598 0.134209
C57   C     C_R   0.032581 0.503537 0.567920 -0.124501
H35   H     H_    0.946195 0.477166 0.588466 0.134574
C58   C     C_R   0.052634 0.610517 0.635501 -0.143338
H36   H     H_    0.981368 0.666371 0.707893 0.110110
C59   C     C_R   0.165028 0.640832 0.613572 -0.162017
H37   H     H_    0.180862 0.718352 0.671602 0.148202
C60   C     C_R   0.257496 0.563401 0.523890 0.107729
C61   C     C_2   0.470359 0.433564 0.979051 -0.181007
H38   H     H_    0.500550 0.349611 0.960724 0.126629
C62   C     C_2   0.531422 0.525238 0.994701 -0.133438
H39   H     H_    0.499595 0.611283 0.020254 0.108565
C63   C     C_2   0.847118 0.962231 0.084803 -0.211415
H40   H     H_    0.792820 0.970439 0.052961 0.131111
C64   C     C_2   0.839058 0.048197 0.177402 -0.174744
H41   H     H_    0.887711 0.044912 0.216275 0.133658
O1    O     O_3   0.045632 0.960501 0.622193 -0.586940
C65   C     C_3   0.100200 0.853852 0.533992 -0.159464
H42   H     H_    0.121050 0.796389 0.559135 0.155244
H43   H     H_    0.181940 0.869919 0.476895 0.159640
H44   H     H_    0.047611 0.809284 0.490708 0.089460
C66   C     C_2   0.016461 0.900182 0.787850 0.466017
H45   H     H_    0.005484 0.860488 0.838012 0.011279
O2    O     O_2   0.107266 0.940695 0.753550 -0.543591
C67   C     C_2   0.419618 0.583578 0.898241 0.463305
H46   H     H_    0.402261 0.675455 0.929601 -0.029320
O3    O     O_2   0.508448 0.533835 0.818579 -0.588112

loop_
_geom_bond_atom_site_label_1
_geom_bond_atom_site_label_2
_geom_bond_distance
_ccdc_geom_bond_type
C25   C30   1.396498 A    
C6    C12   1.372613 A    
N15   Ni4   1.881142 S    
C28   C29   1.399180 A    
C26   C27   1.406173 A    
C45   C46   1.402992 A    
C32   C33   1.418002 A    
C57   H35   1.082062 S    
C18   H13   1.076578 S    
C37   C42   1.412180 A    
C39   H23   1.076010 S    
N6    Ni1   1.901149 S    
C3    H3    1.080574 S    
C35   C36   1.410522 A    
C16   H11   1.075415 S    
N5    Ni2   1.857774 S    
N9    N15   1.382419 A    
C7    N7    1.322056 A    
C15   H10   1.072478 S    
C56   C57   1.396362 A    
N13   Ni2   1.856457 S    
N8    Ni3   1.834649 S    
C59   H37   1.080976 S    
C3    C11   1.384697 A    
C1    H1    1.071435 S    
C22   C32   1.466779 S    
C25   C26   1.397324 A    
C7    C10   1.371056 A    
C61   H38   1.086896 S    
C18   C23   1.375268 A    
C17   C24   1.394414 A    
N12   Ni4   1.834649 S    
C7    H7    1.065961 S    
C29   H20   1.078344 S    
C20   N16   1.319531 A    
C8    C9    1.385063 A    
C47   C48   1.400095 A    
C55   H33   1.083483 S    
C14   N10   1.329374 A    
C33   C42   1.469475 S    
C43   C44   1.394432 A    
C9    C63   1.476513 S    
C25   H17   1.082332 S    
C17   N13   1.335884 A    
C13   C67   1.469477 S    
C38   C66   1.480854 S    
C5    H5    1.078636 S    
C1    C9    1.388246 A    
C55   C56   1.395253 A    
N1    N8    1.410802 A    
C46   H29   1.083468 S    
C10   C53   1.434895 S    
C39   C40   1.396108 A    
N12   N13   1.410801 A    
C41   C42   1.398953 A    
N10   Ni2   1.901150 S    
C19   N15   1.338168 A    
C33   C34   1.377263 A    
C50   C51   1.413612 A    
C11   C62   1.401676 S    
C52   C53   1.396073 A    
C44   H28   1.083281 S    
C31   C32   1.405489 A    
C2    H2    1.077384 S    
C67   O3    1.221019 D    
N14   Ni1   1.901410 S    
C59   C60   1.404118 A    
C41   H25   1.083063 S    
N2    N7    1.410814 A    
C26   H18   1.083081 S    
C1    N1    1.347776 A    
C34   H22   1.083154 S    
C65   H43   1.109437 S    
C13   N9    1.317944 A    
C45   C54   1.476479 S    
C44   C45   1.405006 A    
C18   N14   1.329351 A    
C40   H24   1.082490 S    
H16   C30   1.082414 S    
C47   H30   1.081996 S    
N4    N6    1.382425 A    
N11   N14   1.410815 A    
C57   C58   1.394363 A    
C23   C50   1.430811 S    
C46   C47   1.395527 A    
C12   C35   1.450858 S    
C34   C35   1.397632 A    
C16   C24   1.393842 A    
C51   C60   1.475842 S    
C4    N4    1.326453 A    
C2    N2    1.332752 A    
C17   H12   1.077671 S    
C49   C50   1.389526 A    
C37   O1    1.385173 S    
C20   H15   1.076053 S    
C5    N5    1.306661 A    
C8    N8    1.342704 A    
N2    Ni2   1.901409 S    
C63   C64   1.335727 D    
C66   H45   1.077602 S    
C62   H39   1.083734 S    
N7    Ni4   1.881259 S    
C58   H36   1.080317 S    
C4    C12   1.387273 A    
C3    N3    1.338765 A    
C49   C54   1.361924 A    
N9    Ni1   1.857774 S    
C19   H14   1.079552 S    
C27   C36   1.478154 S    
C40   C41   1.393241 A    
C21   C61   1.424674 S    
C14   H9    1.077345 S    
C38   C39   1.404480 A    
C66   O2    1.221060 D    
C20   C22   1.383102 A    
C2    C10   1.378987 A    
N1    Ni1   1.856457 S    
C63   H40   1.083007 S    
C67   H46   1.084141 S    
C13   C21   1.379476 A    
N10   N16   1.382426 A    
C53   C54   1.415978 A    
C49   H31   1.085196 S    
C43   C48   1.395110 A    
N16   Ni3   1.835856 S    
C6    N6    1.320984 A    
C14   C22   1.387117 A    
N3    N5    1.382420 A    
C65   H44   1.110497 S    
C31   H21   1.078763 S    
C16   N12   1.339829 A    
C56   H34   1.078788 S    
C6    H6    1.068837 S    
O1    C65   1.410495 S    
C28   H19   1.081613 S    
C15   N11   1.313991 A    
C51   C52   1.384540 A    
C61   C62   1.334020 D    
N4    Ni4   1.835856 S    
N11   Ni3   1.881258 S    
C4    H4    1.077192 S    
C37   C38   1.409452 A    
C29   C30   1.397138 A    
C27   C28   1.402695 A    
C19   C21   1.385475 A    
C52   H32   1.084948 S    
C15   C23   1.366751 A    
C8    H8    1.070853 S    
C5    C11   1.351514 A    
N3    Ni3   1.881143 S    
C43   H27   1.080388 S    
C55   C60   1.404938 A    
C31   C36   1.382274 A    
H26   C48   1.079820 S    
C65   H42   1.108883 S    
C64   H41   1.084526 S    
C58   C59   1.399016 A    
