data_str_m3_o10_o16_f0_pcu.sym.48
_audit_creation_date              2012-12-10T16:51:32-0500
_audit_creation_method            fapswitch 2.2
_symmetry_space_group_name_H-M    P1
_symmetry_Int_Tables_number       1
_space_group_crystal_system       triclinic
_cell_length_a                    7.817694
_cell_length_b                    8.593567
_cell_length_c                    12.094899
_cell_angle_alpha                 92.353579
_cell_angle_beta                  101.095018
_cell_angle_gamma                 94.180301
_cell_volume                      793.988462784

loop_
_atom_site_label
_atom_site_type_symbol
_atom_type_description
_atom_site_fract_x
_atom_site_fract_y
_atom_site_fract_z
_atom_type_partial_charge
C1    C     C_R   0.045892 0.794951 0.501162 0.999590
C2    C     C_R   0.158372 0.500792 0.832178 -0.124743
C3    C     C_2   0.066852 0.958903 0.500772 -0.447191
C4    C     C_R   0.105878 0.503515 0.710398 0.852115
C5    C     C_2   0.942842 0.045056 0.529146 0.270008
C6    C     C_R   0.957892 0.206143 0.508750 0.808236
C7    C     C_R   0.891421 0.481678 0.289686 0.865425
C8    C     C_R   0.804676 0.274008 0.000477 -0.189421
C9    C     C_R   0.827226 0.439812 0.170478 -0.182330
C10   C     C_R   0.072666 0.589450 0.901369 -0.189331
C11   C     C_R   0.143623 0.615533 0.015496 -0.116919
C12   C     C_R   0.394755 0.474955 0.989648 0.110820
C13   C     C_R   0.305335 0.562264 0.059369 -0.134465
C14   C     C_R   0.308774 0.427988 0.879080 0.083083
C15   C     C_R   0.566603 0.432437 0.025931 0.083600
C16   C     C_R   0.637991 0.322795 0.960580 0.072649
C17   C     C_R   0.539923 0.260310 0.857908 -0.214089
C18   C     C_R   0.377031 0.312316 0.817351 -0.182014
C19   C     C_R   0.670797 0.499590 0.124551 -0.318050
C20   C     C_R   0.896509 0.324568 0.108055 0.444243
H1    H     H_    0.530050 0.624813 0.583592 0.208092
H2    H     H_    0.628903 0.595798 0.170200 0.168683
H3    H     H_    0.954105 0.642750 0.866568 0.167447
H4    H     H_    0.355214 0.587249 0.148407 0.142230
H5    H     H_    0.858482 0.188339 0.951445 0.162522
H6    H     H_    0.076566 0.682413 0.069254 0.147641
H7    H     H_    0.304123 0.259696 0.737788 0.164911
H8    H     H_    0.177966 0.007760 0.467845 0.147468
H9    H     H_    0.055233 0.242414 0.230712 0.340534
H10   H     H_    0.742064 0.067098 0.602706 0.333690
H11   H     H_    0.469942 0.375173 0.416412 0.196196
H12   H     H_    0.590035 0.172936 0.808195 0.149156
N1    N     N_2   0.434800 0.456690 0.470850 -0.172583
N2    N     N_2   0.565200 0.543310 0.529150 -0.160546
O1    O     O_R   0.893060 0.738880 0.507150 -0.528336
O2    O     O_3   0.810941 0.982825 0.580731 -0.748615
O3    O     O_R   0.172250 0.711130 0.488470 -0.630100
O4    O     O_R   0.944700 0.520730 0.667600 -0.609879
O5    O     O_R   0.223890 0.492980 0.648920 -0.620711
O6    O     O_R   0.827750 0.288870 0.511530 -0.629723
O7    O     O_R   0.106940 0.261120 0.492850 -0.643736
O8    O     O_R   0.776110 0.507020 0.351080 -0.613015
O9    O     O_R   0.055300 0.479270 0.332400 -0.609216
O10   O     O_3   0.047353 0.254649 0.149057 -0.766405
Zn1   Zn    Zn3+2 0.813580 0.518530 0.512470 0.973726
Zn2   Zn    Zn3+2 0.186420 0.481470 0.487530 0.939355

loop_
_geom_bond_atom_site_label_1
_geom_bond_atom_site_label_2
_ccdc_geom_bond_type
C2    C4    S    
O7    Zn2   S    
H11   N1    S    
C8    H5    S    
C7    O9    A    
C10   H3    S    
O6    Zn1   S    
C14   C18   A    
C9    C20   A    
C12   C15   A    
H10   O2    S    
N1    N2    D    
C8    C16   A    
N2    Zn1   S    
C15   C19   A    
N1    Zn2   S    
C11   C13   A    
C8    C20   A    
O5    Zn2   S    
C3    H8    S    
C20   O10   S    
C12   C14   A    
C17   C18   A    
H9    O10   S    
C5    C6    S    
C2    C14   A    
O9    Zn2   S    
C6    O6    A    
C10   C11   A    
O8    Zn1   S    
C15   C16   A    
O1    Zn1   S    
C5    O2    S    
C19   H2    S    
C12   C13   A    
C1    O1    A    
C7    O8    A    
C7    C9    S    
C17   H12   S    
C16   C17   A    
O4    Zn1   S    
H1    N2    S    
C11   H6    S    
C3    C5    D    
O3    Zn2   S    
C4    O5    A    
C9    C19   A    
C18   H7    S    
C13   H4    S    
C4    O4    A    
C1    O3    A    
C1    C3    S    
C6    O7    A    
C2    C10   A    
