data_str_m12_o4_o9_f0_bcu.sym.38
_audit_creation_date              2012-12-11T17:10:33-0500
_audit_creation_method            fapswitch 2.2
_symmetry_space_group_name_H-M    P1
_symmetry_Int_Tables_number       1
_space_group_crystal_system       triclinic
_cell_length_a                    14.776529
_cell_length_b                    14.876696
_cell_length_c                    14.877607
_cell_angle_alpha                 109.573655
_cell_angle_beta                  109.856537
_cell_angle_gamma                 109.10201
_cell_volume                      2513.8463703

loop_
_atom_site_label
_atom_site_type_symbol
_atom_type_description
_atom_site_fract_x
_atom_site_fract_y
_atom_site_fract_z
_atom_type_partial_charge
C1    C     C_R   0.184766 0.278008 0.252913 -0.139364
C2    C     C_R   0.403815 0.494992 0.194540 -0.138291
C3    C     C_R   0.564367 0.815501 0.591729 -0.114997
C4    C     C_R   0.525445 0.432536 0.746630 -0.144856
C5    C     C_R   0.723512 0.477122 0.408968 -0.115306
C6    C     C_R   0.548767 0.825301 0.498445 0.063774
C7    C     C_R   0.827639 0.556265 0.502027 0.053643
C8    C     C_R   0.433270 0.432059 0.130957 0.083533
C9    C     C_R   0.801863 0.802500 0.870221 0.066412
C10   C     C_R   0.110485 0.608318 0.191532 -0.122746
C11   C     C_R   0.111284 0.629476 0.290836 -0.144170
C12   C     C_R   0.451208 0.449795 0.776700 0.069488
C13   C     C_R   0.023680 0.555497 0.291952 0.112192
C14   C     C_R   0.934167 0.461769 0.191504 -0.176610
C15   C     C_R   0.933822 0.441048 0.092512 -0.105794
C16   C     C_R   0.505575 0.201124 0.408082 -0.156357
C17   C     C_R   0.022027 0.514093 0.092562 -0.102014
C18   C     C_R   0.929884 0.572234 0.401298 -0.228292
C19   C     C_R   0.931767 0.607606 0.502091 0.053233
C20   C     C_R   0.035660 0.676918 0.600771 0.031075
C21   C     C_R   0.127767 0.673144 0.597455 -0.228954
C22   C     C_R   0.118593 0.611637 0.496405 0.054237
C23   C     C_R   0.566631 0.197494 0.498815 0.084200
C24   C     C_R   0.024670 0.578455 0.397514 0.029573
C25   C     C_R   0.000005 0.823621 0.697340 -0.138074
C26   C     C_R   0.019158 0.906049 0.793493 -0.099809
C27   C     C_R   0.090305 0.925904 0.896733 -0.088529
C28   C     C_R   0.291563 0.598705 0.589744 -0.129188
C29   C     C_R   0.140524 0.861746 0.904079 -0.121903
C30   C     C_R   0.121485 0.778942 0.808083 -0.172251
C31   C     C_R   0.051529 0.759549 0.703561 0.109632
C32   C     C_R   0.450196 0.345016 0.876390 0.165014
C33   C     C_R   0.405967 0.400721 0.832514 0.034373
C34   C     C_R   0.198372 0.571634 0.497212 0.064577
C35   C     C_R   0.332249 0.425400 0.861460 -0.194033
C36   C     C_R   0.328081 0.421699 0.952851 -0.202885
C37   C     C_R   0.397035 0.392482 0.014126 0.031676
C38   C     C_R   0.445279 0.340540 0.965774 0.162964
C39   C     C_3   0.557836 0.351630 0.015321 -0.517320
C40   C     C_R   0.596085 0.290503 0.591036 -0.139239
C41   C     C_3   0.563749 0.357198 0.918158 -0.515117
C42   C     C_R   0.550459 0.926341 0.395086 0.181493
C43   C     C_R   0.594313 0.926345 0.494750 0.025955
C44   C     C_R   0.667695 0.028663 0.593012 -0.194162
C45   C     C_R   0.474642 0.721208 0.407119 -0.146206
C46   C     C_R   0.671714 0.124198 0.593536 -0.197625
C47   C     C_R   0.603040 0.116868 0.495551 0.024504
C48   C     C_R   0.555260 0.020634 0.395560 0.183559
C49   C     C_3   0.442757 0.957967 0.294477 -0.529709
C50   C     C_3   0.436934 0.855016 0.294280 -0.531620
C51   C     C_R   0.964286 0.065996 0.137579 0.171525
C52   C     C_R   0.199101 0.504334 0.407221 -0.161129
C53   C     C_R   0.067979 0.071379 0.173581 0.008631
C54   C     C_R   0.067239 0.970403 0.139371 -0.205275
C55   C     C_R   0.972414 0.874696 0.046440 -0.175985
C56   C     C_R   0.815848 0.566789 0.593343 -0.134665
C57   C     C_R   0.878170 0.879980 0.989045 0.019571
C58   C     C_R   0.870515 0.971230 0.046005 0.094639
C59   C     C_3   0.819021 0.033871 0.010263 -0.342526
C60   C     C_3   0.921897 0.138420 0.111720 -0.294996
C61   C     C_R   0.435383 0.527376 0.751100 -0.111741
C62   C     C_R   0.276127 0.184852 0.250168 -0.126926
C63   C     C_R   0.171986 0.174079 0.225067 0.063043
C64   C     C_2   0.710879 0.008222 0.009840 1.061038
C65   C     C_R   0.494332 0.402300 0.195545 -0.163005
C66   C     C_R   0.707426 0.799106 0.804625 -0.167572
C67   C     C_R   0.801083 0.709649 0.805661 -0.105581
H1    H     H_    0.123906 0.302586 0.249079 0.099567
H2    H     H_    0.178318 0.664996 0.191146 0.106232
H3    H     H_    0.180372 0.702983 0.366853 0.117965
H4    H     H_    0.552732 0.374299 0.749339 0.111505
H5    H     H_    0.865018 0.404361 0.189799 0.108791
H6    H     H_    0.865045 0.368350 0.015710 0.114368
H7    H     H_    0.854158 0.537176 0.325162 0.121380
H8    H     H_    0.205693 0.716987 0.673855 0.121277
H9    H     H_    0.946268 0.810873 0.618060 0.117537
H10   H     H_    0.979685 0.955317 0.788001 0.110923
H11   H     H_    0.106545 0.991170 0.970984 0.120506
H12   H     H_    0.878830 0.617269 0.679359 0.116447
H13   H     H_    0.194804 0.876678 0.984276 0.108241
H14   H     H_    0.161147 0.730095 0.815464 0.108231
H15   H     H_    0.289311 0.460901 0.823890 0.126831
H16   H     H_    0.486587 0.154071 0.324515 0.104495
H17   H     H_    0.282181 0.454637 0.982403 0.124246
H18   H     H_    0.620348 0.429859 0.094764 0.200212
H19   H     H_    0.554198 0.276038 0.016016 0.198071
H20   H     H_    0.629613 0.438858 0.943290 0.203065
H21   H     H_    0.564215 0.285123 0.863422 0.197720
H22   H     H_    0.710412 0.033786 0.671293 0.130177
H23   H     H_    0.513379 0.337658 0.167524 0.104790
H24   H     H_    0.717262 0.199343 0.672252 0.125273
H25   H     H_    0.380158 0.975051 0.310322 0.197767
H26   H     H_    0.446464 0.962278 0.222535 0.199258
H27   H     H_    0.371495 0.814926 0.310904 0.194958
H28   H     H_    0.325747 0.660353 0.674088 0.091771
H29   H     H_    0.436282 0.799610 0.221721 0.198823
H30   H     H_    0.142682 0.966979 0.172324 0.125714
H31   H     H_    0.979651 0.802548 0.012314 0.127651
H32   H     H_    0.813835 0.029424 0.932370 0.121497
H33   H     H_    0.969618 0.192536 0.088823 0.141200
H34   H     H_    0.669752 0.845140 0.831229 0.117027
H35   H     H_    0.657595 0.322733 0.675394 0.084979
H36   H     H_    0.146170 0.474526 0.321411 0.117482
H37   H     H_    0.381889 0.559645 0.762108 0.094152
H38   H     H_    0.298379 0.121430 0.240591 0.091372
H39   H     H_    0.447513 0.696775 0.321732 0.112813
H40   H     H_    0.558014 0.988788 0.936179 0.313403
H41   H     H_    0.974948 0.253564 0.269428 0.118818
H42   H     H_    0.864642 0.238868 0.169820 0.119378
H43   H     H_    0.852776 0.676838 0.834434 0.085810
H44   H     H_    0.342264 0.518041 0.165470 0.086697
H45   H     H_    0.617517 0.879919 0.677249 0.113135
H46   H     H_    0.701063 0.446507 0.323452 0.093613
H47   H     H_    0.021628 0.497913 0.015832 0.098513
N1    N     N_R   0.291070 0.347930 0.293870 -0.039462
N2    N     N_R   0.497240 0.291100 0.443210 -0.037470
N3    N     N_R   0.347890 0.554050 0.556810 -0.039482
N4    N     N_R   0.554050 0.347900 0.556830 -0.038902
N5    N     N_R   0.291070 0.497250 0.443190 -0.039024
N6    N     N_R   0.497240 0.554030 0.706140 -0.040163
N7    N     N_R   0.347890 0.291110 0.293870 -0.039376
N8    N     N_R   0.445950 0.652100 0.443170 -0.040284
N9    N     N_3   0.899762 0.195378 0.195946 -0.164866
N10   N     N_R   0.708930 0.502750 0.556810 -0.042947
N11   N     N_R   0.502760 0.445970 0.293860 -0.038473
N12   N     N_R   0.652110 0.708890 0.706130 -0.039604
N13   N     N_R   0.708930 0.652070 0.706130 -0.042936
N14   N     N_R   0.445950 0.502780 0.293850 -0.038597
N15   N     N_R   0.502760 0.708900 0.556790 -0.040196
N16   N     N_R   0.652110 0.445950 0.443190 -0.040508
N17   N     N_R   0.554050 0.497220 0.706150 -0.041622
Ni1   Ni    Ni4+2 0.369690 0.500010 0.369700 0.212405
Ni2   Ni    Ni4+2 0.630310 0.499990 0.630300 0.208388
Ni3   Ni    Ni4+2 0.500000 0.369720 0.369720 0.209925
Ni4   Ni    Ni4+2 0.500000 0.630280 0.630280 0.223282
O1    O     O_2   0.696640 0.988022 0.078779 -0.636781
O2    O     O_R   0.626737 0.007262 0.929059 -0.835722

loop_
_geom_bond_atom_site_label_1
_geom_bond_atom_site_label_2
_ccdc_geom_bond_type
N11   Ni3   S    
C25   C31   A    
C40   N4    A    
C64   O1    D    
C52   H36   S    
N12   N13   A    
N1    N7    A    
C6    C45   A    
C27   C29   A    
N6    N17   A    
C59   H32   S    
C35   C36   A    
C3    C6    A    
C11   H3    S    
C39   C41   S    
C62   H38   S    
C53   C54   A    
C59   C64   S    
C37   C38   A    
C56   H12   S    
N10   Ni2   S    
C28   H28   S    
C18   C24   A    
C56   N10   A    
C36   C37   A    
C28   N3    A    
N3    N5    A    
C30   C31   A    
N2    Ni3   S    
C10   C17   A    
C23   C40   A    
C1    C63   A    
C1    H1    S    
C18   C19   A    
C46   C47   A    
C9    C66   A    
C53   C63   S    
N15   Ni4   S    
C19   C20   A    
N11   N14   A    
C32   C41   S    
C54   H30   S    
C32   C38   A    
N7    Ni3   S    
C4    C12   A    
N8    N15   A    
N1    Ni1   S    
C27   H11   S    
C28   C34   A    
C59   C60   S    
C18   H7    S    
C13   C14   A    
C61   N6    A    
C66   H34   S    
N16   Ni3   S    
C7    C56   A    
C22   C34   S    
C16   N2    A    
N8    Ni1   S    
C35   H15   S    
C44   C46   A    
C17   H47   S    
C4    N17   A    
C64   O2    S    
C65   H23   S    
C41   H20   S    
C2    H44   S    
C26   H10   S    
C23   C47   S    
C61   H37   S    
C5    C7    A    
C10   H2    S    
C50   H27   S    
C46   H24   S    
N17   Ni2   S    
C58   C59   S    
C16   H16   S    
C66   N12   A    
C13   C24   S    
C51   C53   A    
C65   N11   A    
H40   O2    S    
C60   N9    S    
C43   C44   A    
C9    C67   A    
C29   C30   A    
C67   N13   A    
C67   H43   S    
C47   C48   A    
C3    H45   S    
C62   C63   A    
N5    Ni1   S    
C26   C27   A    
N10   N16   A    
C51   C58   A    
C42   C48   A    
N4    Ni2   S    
C42   C50   S    
C48   C49   S    
C15   H6    S    
N12   Ni4   S    
C16   C23   A    
C7    C19   S    
C6    C43   S    
C55   C57   A    
C22   C24   A    
C8    C37   S    
C39   H18   S    
H41   N9    S    
N3    Ni4   S    
C45   H39   S    
C15   C17   A    
C41   H21   S    
C54   C55   A    
N14   Ni1   S    
C5    H46   S    
C3    N15   A    
C14   H5    S    
C2    C8    A    
N13   Ni2   S    
C60   H33   S    
C45   N8    A    
C1    N1    A    
C21   H8    S    
C34   C52   A    
C25   H9    S    
C32   C33   A    
N6    Ni4   S    
C30   H14   S    
C25   C26   A    
C12   C61   A    
C11   C13   A    
C50   H29   S    
C57   C58   A    
C38   C39   S    
C29   H13   S    
C36   H17   S    
C55   H31   S    
C33   C35   A    
N2    N4    A    
C9    C57   S    
C4    H4    S    
C10   C11   A    
C40   H35   S    
C52   N5    A    
C5    N16   A    
C8    C65   A    
C20   C21   A    
C49   C50   S    
C42   C43   A    
C14   C15   A    
H42   N9    S    
C51   C60   S    
C49   H25   S    
C39   H19   S    
C49   H26   S    
C12   C33   S    
C21   C22   A    
C62   N7    A    
C44   H22   S    
C20   C31   S    
C2    N14   A    
