data_str_m2_o4_o9_f0_pcu.sym.146
_audit_creation_date              2012-12-10T19:10:04-0500
_audit_creation_method            fapswitch 2.2
_symmetry_space_group_name_H-M    P1
_symmetry_Int_Tables_number       1
_space_group_crystal_system       triclinic
_cell_length_a                    10.92659
_cell_length_b                    10.787818
_cell_length_c                    9.610287
_cell_angle_alpha                 90.239831
_cell_angle_beta                  90.79485
_cell_angle_gamma                 89.768992
_cell_volume                      1132.67571546

loop_
_atom_site_label
_atom_site_type_symbol
_atom_type_description
_atom_site_fract_x
_atom_site_fract_y
_atom_site_fract_z
_atom_type_partial_charge
C1    C     C_R   0.498630 0.262703 0.499813 0.792627
C2    C     C_R   0.190160 0.581274 0.964874 -0.107323
C3    C     C_R   0.932516 0.505263 0.378695 -0.237433
C4    C     C_R   0.872127 0.492499 0.504485 -0.095437
C5    C     C_R   0.942168 0.477170 0.627982 0.014106
C6    C     C_R   0.068951 0.475863 0.621425 -0.246409
C7    C     C_R   0.128773 0.495485 0.495928 -0.092756
C8    C     C_R   0.058829 0.509987 0.372463 -0.007485
C9    C     C_R   0.884659 0.567832 0.855523 -0.127343
C10   C     C_R   0.834434 0.557597 0.989064 0.313348
C11   C     C_R   0.789821 0.441325 0.030750 -0.217267
C12   C     C_R   0.262495 0.499253 0.498599 0.782611
C13   C     C_R   0.795520 0.338500 0.942473 -0.176038
C14   C     C_R   0.845381 0.349916 0.810655 -0.122864
C15   C     C_R   0.888512 0.464791 0.766429 0.082746
C16   C     C_R   0.549644 0.064465 0.608931 0.129046
C17   C     C_R   0.492507 0.129418 0.500986 -0.086151
C18   C     C_R   0.426492 0.064556 0.397907 -0.221861
C19   C     C_R   0.426631 0.935139 0.398301 -0.225614
C20   C     C_R   0.493904 0.870819 0.500791 -0.087250
C21   C     C_R   0.551709 0.936519 0.607766 0.118457
C22   C     C_3   0.683982 0.932508 0.649486 -0.486469
C23   C     C_R   0.499395 0.737373 0.500053 0.795592
C24   C     C_3   0.680392 0.072612 0.654685 -0.484501
C25   C     C_R   0.539258 0.601063 0.074234 0.251940
C26   C     C_R   0.470926 0.396616 0.073136 -0.075457
C27   C     C_R   0.471030 0.396563 0.925004 -0.081687
C28   C     C_R   0.539260 0.601183 0.927680 0.296520
C29   C     C_3   0.486980 0.729192 0.923105 -0.505838
C30   C     C_3   0.488951 0.729275 0.080887 -0.501287
C31   C     C_R   0.737765 0.497178 0.501527 0.787607
C32   C     C_R   0.164773 0.679849 0.054662 -0.176428
C33   C     C_R   0.125872 0.656560 0.189796 -0.094033
C34   C     C_R   0.111005 0.534130 0.234835 0.158002
C35   C     C_R   0.134918 0.435365 0.143763 -0.115243
C36   C     C_R   0.175013 0.459100 0.009215 -0.124450
Cu1   Cu    Cu3+1 0.499990 0.499980 0.640670 0.940837
Cu2   Cu    Cu3+1 0.500010 0.500020 0.359330 0.931118
H1    H     H_    0.221176 0.599899 0.860836 0.139984
H2    H     H_    0.748951 0.429735 0.131410 0.154615
H3    H     H_    0.760933 0.249918 0.976427 0.133466
H4    H     H_    0.850669 0.269819 0.742886 0.117884
H5    H     H_    0.377154 0.113599 0.316384 0.145323
H6    H     H_    0.376491 0.885705 0.317699 0.147559
H7    H     H_    0.699746 0.890423 0.752808 0.183836
H8    H     H_    0.743271 0.895094 0.565872 0.195239
H9    H     H_    0.689506 0.110388 0.762055 0.192243
H10   H     H_    0.739571 0.117076 0.576111 0.188706
H11   H     H_    0.443366 0.313611 0.126607 0.137333
H12   H     H_    0.175690 0.774334 0.019647 0.117351
H13   H     H_    0.443614 0.313446 0.870038 0.139613
H14   H     H_    0.551389 0.797021 0.879258 0.192888
H15   H     H_    0.393465 0.732995 0.876815 0.205302
H16   H     H_    0.556107 0.795735 0.126328 0.203200
H17   H     H_    0.396833 0.733110 0.127460 0.219348
H18   H     H_    0.105304 0.733554 0.258405 0.114359
H19   H     H_    0.121579 0.340536 0.176681 0.109160
H20   H     H_    0.194022 0.382711 0.939387 0.114772
H21   H     H_    0.881350 0.514324 0.283758 0.169925
H22   H     H_    0.120910 0.459394 0.715855 0.157058
H23   H     H_    0.920833 0.654801 0.819051 0.126356
N1    N     N_R   0.500790 0.500930 0.147930 -0.188593
N2    N     N_R   0.500790 0.500890 0.852020 -0.187655
O1    O     O_R   0.500000 0.319640 0.618810 -0.586646
O2    O     O_R   0.500010 0.319680 0.381230 -0.592841
O3    O     O_R   0.319640 0.499990 0.618790 -0.595692
O4    O     O_R   0.319650 0.500030 0.381210 -0.569971
O5    O     O_R   0.499990 0.680320 0.618770 -0.581972
O6    O     O_R   0.500000 0.680360 0.381190 -0.585369
O7    O     O_R   0.680350 0.499970 0.618790 -0.563066
O8    O     O_R   0.680360 0.500010 0.381210 -0.605675
N3    N     N_2   0.829934 0.660285 0.083909 -0.440881
H24   H     H_    0.768667 0.651933 0.163827 0.252282
C37   C     C_3   0.840525 0.785426 0.032190 -0.736327
H25   H     H_    0.830256 0.852217 0.119553 0.225595
H26   H     H_    0.767445 0.803799 0.954170 0.217003
H27   H     H_    0.931992 0.800527 0.986835 0.236352

loop_
_geom_bond_atom_site_label_1
_geom_bond_atom_site_label_2
_ccdc_geom_bond_type
C16   C21   A    
C23   O6    A    
C19   C20   A    
C13   H3    S    
C7    C8    A    
C25   C28   A    
C30   H16   S    
C26   C27   A    
C29   C30   S    
C37   H26   S    
C9    H23   S    
C28   C29   S    
C18   C19   A    
C36   H20   S    
C5    C6    A    
Cu1   O5    S    
C2    C32   A    
C34   C35   A    
C2    H1    S    
C31   O7    A    
C35   C36   A    
C16   C17   A    
C37   H27   S    
C1    O2    A    
C20   C23   S    
C9    C10   A    
C14   H4    S    
C33   H18   S    
C31   O8    A    
Cu2   O6    S    
C16   C24   S    
C21   C22   S    
Cu1   N2    S    
C27   H13   S    
C17   C18   A    
C7    C12   S    
C12   O4    A    
C37   H25   S    
C24   H10   S    
C6    H22   S    
N3    C37   S    
C3    C8    A    
C26   H11   S    
N3    H24   S    
C12   O3    A    
C23   O5    A    
Cu1   Cu2   S    
Cu2   O2    S    
Cu1   O3    S    
C33   C34   A    
C8    C34   S    
C20   C21   A    
C32   H12   S    
C27   N2    A    
C22   H8    S    
C22   C24   S    
C3    C4    A    
C1    O1    A    
Cu1   O1    S    
C19   H6    S    
C2    C36   A    
C25   C30   S    
Cu2   O8    S    
C24   H9    S    
C4    C5    A    
C6    C7    A    
C30   H17   S    
C1    C17   S    
C35   H19   S    
Cu1   O7    S    
C32   C33   A    
C26   N1    A    
C18   H5    S    
C11   C13   A    
C29   H15   S    
C25   N1    A    
C9    C15   A    
C11   H2    S    
C5    C15   S    
C4    C31   S    
C10   C11   A    
C28   N2    A    
C22   H7    S    
Cu2   O4    S    
C14   C15   A    
C13   C14   A    
C10   N3    S    
Cu2   N1    S    
C29   H14   S    
C3    H21   S    
