data_str_m3_o11_o29_f0_pcu.sym.216
_audit_creation_date              2012-12-10T17:13:38-0500
_audit_creation_method            fapswitch 2.2
_symmetry_space_group_name_H-M    P1
_symmetry_Int_Tables_number       1
_space_group_crystal_system       triclinic
_cell_length_a                    27.692078
_cell_length_b                    10.495091
_cell_length_c                    10.027453
_cell_angle_alpha                 88.30684
_cell_angle_beta                  91.753301
_cell_angle_gamma                 89.792886
_cell_volume                      2911.62151291

loop_
_atom_site_label
_atom_site_type_symbol
_atom_type_description
_atom_site_fract_x
_atom_site_fract_y
_atom_site_fract_z
_atom_type_partial_charge
C1    C     C_R   0.508789 0.265137 0.503227 0.825138
C2    C     C_R   0.277928 0.531218 0.370287 -0.165747
C3    C     C_R   0.252660 0.501435 0.485692 0.203823
C4    C     C_R   0.101031 0.491513 0.476503 -0.130998
C5    C     C_R   0.127686 0.380062 0.513958 -0.145914
C6    C     C_R   0.103425 0.268790 0.557727 0.535711
C7    C     C_R   0.125423 0.603997 0.438855 0.011446
C8    C     C_R   0.353396 0.504194 0.495031 -0.100496
C9    C     C_R   0.646600 0.498627 0.506965 -0.032262
C10   C     C_R   0.974625 0.376722 0.507693 0.028005
C11   C     C_R   0.973247 0.608172 0.466070 -0.003947
C12   C     C_R   0.406073 0.501339 0.498328 0.898078
C13   C     C_R   0.948614 0.492505 0.491903 0.067968
C14   C     C_R   0.948917 0.261827 0.516554 -0.333008
C15   C     C_R   0.899171 0.260045 0.530876 0.509359
C16   C     C_R   0.872939 0.375665 0.522221 -0.108810
C17   C     C_R   0.897747 0.492375 0.502399 -0.175232
C18   C     C_R   0.871787 0.608927 0.494037 -0.113183
C19   C     C_R   0.821462 0.605764 0.506766 0.514936
C20   C     C_R   0.822409 0.378538 0.529171 0.515306
C21   C     C_R   0.722050 0.509815 0.634112 -0.119596
C22   C     C_R   0.671888 0.513079 0.629124 -0.231080
C23   C     C_R   0.504333 0.739308 0.500004 0.884123
C24   C     C_R   0.672028 0.480681 0.390088 -0.221939
C25   C     C_R   0.722112 0.477159 0.395425 -0.159241
C26   C     C_R   0.746994 0.491680 0.517244 0.335087
C27   C     C_R   0.025634 0.378423 0.513291 0.015220
C28   C     C_R   0.050045 0.491648 0.478562 0.078813
C29   C     C_R   0.023820 0.605864 0.448565 0.096974
C30   C     C_R   0.052738 0.271452 0.559795 -0.360531
C31   C     C_R   0.099184 0.713194 0.398637 -0.165437
C32   C     C_R   0.946740 0.722971 0.462164 -0.324696
C33   C     C_R   0.896766 0.724446 0.472977 0.508833
C34   C     C_R   0.593937 0.500602 0.501926 0.832922
C35   C     C_R   0.049214 0.714092 0.402524 -0.242045
C36   C     C_2   0.527744 0.946773 0.400052 0.250043
C37   C     C_2   0.526946 0.865499 0.507808 0.197730
C38   C     C_2   0.548916 0.078132 0.415332 0.328412
C39   C     C_2   0.534926 0.145279 0.519614 0.189096
C40   C     C_2   0.538722 0.495713 0.929438 -0.238038
C41   C     C_2   0.537548 0.529165 0.075766 0.602244
C42   C     C_R   0.178405 0.384815 0.509255 0.610215
C43   C     C_R   0.175796 0.605336 0.443566 0.475121
C44   C     C_R   0.277781 0.477727 0.608023 0.527896
C45   C     C_R   0.328155 0.476288 0.611443 -0.312488
C46   C     C_R   0.327989 0.535106 0.375630 -0.226553
H1    H     H_    0.653354 0.468986 0.294917 0.193920
H2    H     H_    0.031361 0.800822 0.367556 0.137058
H3    H     H_    0.573000 0.471889 0.887095 0.145114
H4    H     H_    0.472317 0.551745 0.888592 0.164356
H5    H     H_    0.652978 0.526956 0.720436 0.158066
H6    H     H_    0.966838 0.171009 0.508916 0.144743
H7    H     H_    0.034703 0.191835 0.605922 0.146294
H8    H     H_    0.347267 0.452610 0.704853 0.169687
N1    N     N_R   0.201065 0.497022 0.478880 -0.351808
N2    N     N_R   0.798341 0.492021 0.520560 -0.361354
N3    N     N_2   0.500520 0.501330 0.852150 -0.194583
N4    N     N_2   0.500540 0.501360 0.147810 0.029524
O1    O     O_R   0.499990 0.319060 0.613040 -0.594438
O2    O     O_2   0.797114 0.269566 0.543438 -0.541278
O3    O     O_2   0.199485 0.714523 0.414926 -0.576115
O4    O     O_2   0.795334 0.714636 0.503977 -0.536857
O5    O     O_R   0.500010 0.319100 0.386900 -0.565141
O6    O     O_R   0.428750 0.500000 0.613050 -0.619753
O7    O     O_R   0.428760 0.500040 0.386920 -0.634508
O8    O     O_R   0.499990 0.680900 0.613100 -0.626308
O9    O     O_R   0.500010 0.680940 0.386960 -0.581140
O10   O     O_R   0.571240 0.499960 0.613080 -0.649733
O11   O     O_R   0.571250 0.500000 0.386950 -0.561320
O12   O     O_2   0.205168 0.278424 0.533355 -0.474723
Zn1   Zn    Zn3+2 0.499990 0.499970 0.650990 0.920977
Zn2   Zn    Zn3+2 0.500010 0.500030 0.349010 1.025921
H9    H     H_    0.346850 0.562541 0.286656 0.160731
O13   O     O_3   0.252973 0.447233 0.722040 -0.618705
C47   C     C_3   0.249491 0.557272 0.798765 0.049344
H10   H     H_    0.232033 0.637122 0.738923 0.155333
H11   H     H_    0.286016 0.587220 0.835327 0.137724
C48   C     C_3   0.218535 0.526914 0.919122 -0.313349
H12   H     H_    0.182065 0.496236 0.883790 0.236047
H13   H     H_    0.235404 0.447386 0.979874 0.236077
C49   C     C_3   0.213316 0.642570 0.006393 -0.945540
H14   H     H_    0.249340 0.673848 0.044337 0.264365
H15   H     H_    0.190803 0.617147 0.092941 0.273168
H16   H     H_    0.195510 0.722432 0.948422 0.272956
H17   H     H_    0.117205 0.799415 0.365483 0.182590
H18   H     H_    0.964183 0.814424 0.455613 0.138266
O14   O     O_3   0.873554 0.841233 0.476298 -0.611202
C50   C     C_3   0.859483 0.883701 0.345479 0.215925
H19   H     H_    0.827221 0.945697 0.354992 0.215187
H20   H     H_    0.847802 0.804621 0.279912 0.093604
C51   C     C_3   0.899697 0.961570 0.280019 -0.405187
H21   H     H_    0.919782 0.016851 0.356172 0.257583
H22   H     H_    0.925611 0.895804 0.234491 0.195800
C52   C     C_3   0.879265 0.054098 0.172191 -0.929402
H23   H     H_    0.857414 0.001988 0.096936 0.252812
H24   H     H_    0.909356 0.103570 0.121778 0.261175
H25   H     H_    0.856155 0.126929 0.217474 0.286885
H26   H     H_    0.741713 0.463873 0.305017 0.129101
O15   O     O_3   0.497986 0.916924 0.290178 -0.667876
C53   C     C_3   0.516278 0.956689 0.165863 0.152716
H27   H     H_    0.510407 0.877796 0.096415 0.100322
H28   H     H_    0.556002 0.969377 0.167032 0.140415
C54   C     C_3   0.487828 0.073457 0.109984 -0.282121
H29   H     H_    0.454201 0.040300 0.058795 0.183919
H30   H     H_    0.476836 0.134150 0.192861 0.264671
C55   C     C_3   0.516717 0.155000 0.012204 -0.830416
H31   H     H_    0.539841 0.223051 0.066954 0.302492
H32   H     H_    0.491673 0.210920 0.944388 0.278013
H33   H     H_    0.540072 0.095731 0.951375 0.217593
O16   O     O_3   0.555261 0.890803 0.621744 -0.642195
C56   C     C_3   0.530646 0.879668 0.745258 0.225571
H34   H     H_    0.552703 0.930757 0.820150 0.118271
H35   H     H_    0.532801 0.781174 0.787551 0.147589
C57   C     C_3   0.478613 0.937154 0.744656 -0.340139
H36   H     H_    0.479865 0.032827 0.788384 0.233705
H37   H     H_    0.462315 0.952064 0.643091 0.202072
C58   C     C_3   0.444041 0.853742 0.824447 -0.980444
H38   H     H_    0.436317 0.764134 0.771995 0.285646
H39   H     H_    0.409403 0.905464 0.835373 0.270105
H40   H     H_    0.459492 0.829464 0.925108 0.239896
O17   O     O_3   0.566127 0.144873 0.305787 -0.659501
C59   C     C_3   0.616638 0.124970 0.303736 0.069533
H41   H     H_    0.625892 0.021268 0.308700 0.130828
H42   H     H_    0.634807 0.172113 0.389282 0.153439
C60   C     C_3   0.636209 0.182704 0.174556 -0.351148
H43   H     H_    0.620938 0.130996 0.088030 0.209877
H44   H     H_    0.625153 0.284481 0.163714 0.237559
C61   C     C_3   0.691206 0.173471 0.173381 -0.949155
H45   H     H_    0.707657 0.223780 0.259308 0.280536
H46   H     H_    0.704333 0.218378 0.079738 0.262141
H47   H     H_    0.702879 0.072014 0.178569 0.269362
H48   H     H_    0.258666 0.551440 0.276474 0.168549
O18   O     O_3   0.555068 0.118157 0.645703 -0.636574
C62   C     C_3   0.595537 0.196215 0.673647 0.128597
H49   H     H_    0.584674 0.270194 0.743967 0.171972
H50   H     H_    0.610103 0.245392 0.583828 0.097871
C63   C     C_3   0.635708 0.114637 0.740665 -0.345245
H51   H     H_    0.622845 0.072281 0.835937 0.208560
H52   H     H_    0.645151 0.035908 0.674277 0.253772
C64   C     C_3   0.680806 0.193354 0.769822 -0.938119
H53   H     H_    0.695830 0.231047 0.675155 0.295216
H54   H     H_    0.708624 0.132314 0.822348 0.274736
H55   H     H_    0.672062 0.274051 0.834308 0.249804
O19   O     O_3   0.578288 0.578738 0.138878 -0.650031
C65   C     C_3   0.595030 0.689275 0.070894 0.039023
H56   H     H_    0.598424 0.765836 0.144648 0.158454
H57   H     H_    0.570011 0.726789 0.989894 0.082495
C66   C     C_3   0.645136 0.664505 0.016727 -0.346413
H58   H     H_    0.671166 0.644914 0.101516 0.226305
H59   H     H_    0.644147 0.579502 0.953593 0.204372
C67   C     C_3   0.662626 0.778845 0.934083 -0.951579
H60   H     H_    0.638042 0.796931 0.845854 0.273332
H61   H     H_    0.699394 0.759042 0.898423 0.273254
H62   H     H_    0.664054 0.865314 0.995409 0.258881
O20   O     O_3   0.472253 0.408554 0.096883 -0.596903
C68   C     C_3   0.423377 0.448955 0.092961 0.151049
H63   H     H_    0.412686 0.476488 0.988775 0.115378
H64   H     H_    0.416346 0.533880 0.153043 0.134047
C69   C     C_3   0.390958 0.337109 0.133866 -0.319292
H65   H     H_    0.405391 0.247484 0.094147 0.226192
H66   H     H_    0.390809 0.326164 0.244233 0.230660
C70   C     C_3   0.339184 0.354279 0.078379 -0.962962
H67   H     H_    0.324404 0.448883 0.102260 0.252938
H68   H     H_    0.315779 0.279131 0.121834 0.281378
H69   H     H_    0.338247 0.345866 0.968130 0.276010
O21   O     O_3   0.130441 0.167201 0.614657 -0.588282
C71   C     C_3   0.110103 0.045300 0.593770 0.120335
H70   H     H_    0.139456 0.981888 0.561320 0.190266
H71   H     H_    0.081899 0.043641 0.512099 0.100213
C72   C     C_3   0.091429 0.990154 0.725812 -0.367303
H72   H     H_    0.122320 0.976749 0.798365 0.240024
H73   H     H_    0.065606 0.057391 0.769180 0.218469
C73   C     C_3   0.066384 0.862461 0.707241 -0.946381
H74   H     H_    0.035031 0.873769 0.636060 0.263215
H75   H     H_    0.053064 0.826366 0.804536 0.266583
H76   H     H_    0.092151 0.791581 0.669833 0.281544
H77   H     H_    0.741539 0.521608 0.728183 0.131750
O22   O     O_3   0.876230 0.143307 0.540892 -0.605853
C74   C     C_3   0.878887 0.095693 0.674708 0.207533
H78   H     H_    0.847737 0.030414 0.687102 0.210952
H79   H     H_    0.874409 0.171858 0.748793 0.091750
C75   C     C_3   0.926068 0.020815 0.704878 -0.408152
H80   H     H_    0.937152 0.970804 0.614805 0.254695
H81   H     H_    0.955297 0.087924 0.733303 0.195636
C76   C     C_3   0.920801 0.922481 0.818425 -0.912557
H82   H     H_    0.910437 0.970148 0.910511 0.259273
H83   H     H_    0.955787 0.872317 0.838050 0.265314
H84   H     H_    0.893003 0.850889 0.791339 0.282821

loop_
_geom_bond_atom_site_label_1
_geom_bond_atom_site_label_2
_ccdc_geom_bond_type
C19   N2    A    
C10   C27   A    
O14   C50   S    
C6    O21   S    
C31   H17   S    
O18   C62   S    
C56   H34   S    
C66   C67   S    
C20   N2    A    
C61   H45   S    
C65   C66   S    
C62   C63   S    
C57   H36   S    
C71   H71   S    
C73   H74   S    
C2    C46   A    
C63   H52   S    
C28   C29   A    
C72   H73   S    
C23   O8    A    
C36   C37   D    
C66   H59   S    
C41   N4    D    
O9    Zn2   S    
C58   H39   S    
C69   H65   S    
C38   C39   D    
C12   O6    A    
C48   H13   S    
C9    C22   A    
O6    Zn1   S    
C55   H31   S    
C19   O4    S    
C15   C16   A    
C42   O12   S    
N3    Zn1   S    
C18   C19   A    
C67   H62   S    
C23   O9    A    
C8    C45   A    
C65   H57   S    
O16   C56   S    
C3    N1    S    
C14   H6    S    
C72   H72   S    
O8    Zn1   S    
C16   C17   A    
C60   C61   S    
C2    H48   S    
C67   H60   S    
C64   H55   S    
C7    C43   A    
C20   O2    S    
C16   C20   A    
C74   C75   S    
C50   H19   S    
C21   H77   S    
C60   H43   S    
C63   H51   S    
C71   H70   S    
C21   C22   A    
C27   C30   A    
C24   H1    S    
C56   C57   S    
C4    C7    A    
C35   H2    S    
C1    O5    A    
C49   H15   S    
C21   C26   A    
C65   H56   S    
C71   C72   S    
C70   H68   S    
C73   H75   S    
C30   H7    S    
C3    C44   A    
O20   C68   S    
C7    C31   A    
O13   C47   S    
C57   C58   S    
O22   C74   S    
C64   H53   S    
C41   O19   S    
C56   H35   S    
C10   C14   A    
C58   H40   S    
C34   O10   A    
C51   H21   S    
C48   H12   S    
O19   C65   S    
C76   H84   S    
C62   H50   S    
C52   H25   S    
C25   C26   A    
C23   C37   S    
C53   C54   S    
C49   H14   S    
C26   N2    S    
C75   C76   S    
C54   C55   S    
O11   Zn2   S    
C44   O13   S    
C47   H10   S    
C42   N1    A    
C51   H22   S    
C70   H69   S    
O15   C53   S    
C50   C51   S    
C8    C12   S    
C32   H18   S    
C53   H28   S    
C17   C18   A    
C37   O16   S    
C69   C70   S    
C54   H30   S    
C24   C25   A    
C52   H24   S    
C47   H11   S    
C34   O11   A    
C40   H3    S    
O17   C59   S    
C43   N1    A    
C40   C41   S    
C6    C30   A    
C1    O1    A    
C50   H20   S    
C11   C32   A    
O21   C71   S    
C31   C35   A    
C18   C33   A    
C59   H42   S    
C61   H47   S    
C54   H29   S    
C49   H16   S    
C44   C45   A    
C43   O3    S    
C5    C42   A    
C70   H67   S    
C39   O18   S    
C73   H76   S    
C68   H63   S    
C40   N3    D    
C75   H81   S    
H4    N3    S    
C68   C69   S    
C64   H54   S    
C4    C5    A    
C10   C13   A    
C61   H46   S    
C45   H8    S    
C57   H37   S    
C9    C24   A    
C62   H49   S    
O7    Zn2   S    
C12   O7    A    
C29   C35   A    
C13   C17   A    
C32   C33   A    
C59   C60   S    
C68   H64   S    
C2    C3    A    
C33   O14   S    
C58   H38   S    
C51   C52   S    
C11   C13   A    
C48   C49   S    
N4    Zn2   S    
C76   H82   S    
C5    C6    A    
C55   H32   S    
O10   Zn1   S    
C63   C64   S    
C36   C38   S    
C53   H27   S    
C9    C34   S    
C36   O15   S    
C66   H58   S    
C67   H61   S    
C52   H23   S    
C47   C48   S    
C8    C46   A    
C38   O17   S    
C76   H83   S    
N4    O20   S    
C1    C39   S    
C74   H78   S    
C25   H26   S    
O5    Zn2   S    
C11   C29   A    
C4    C28   A    
C15   O22   S    
C27   C28   A    
C60   H44   S    
C14   C15   A    
C59   H41   S    
C69   H66   S    
C72   C73   S    
C46   H9    S    
C75   H80   S    
O1    Zn1   S    
C22   H5    S    
C74   H79   S    
C55   H33   S    
