data_str_m9_o18_o23_f0_sra.sym.11
_audit_creation_date              2012-12-11T15:30:31-0500
_audit_creation_method            fapswitch 2.2
_symmetry_space_group_name_H-M    P1
_symmetry_Int_Tables_number       1
_space_group_crystal_system       triclinic
_cell_length_a                    6.948183
_cell_length_b                    20.472562
_cell_length_c                    24.404541
_cell_angle_alpha                 89.687506
_cell_angle_beta                  90.539068
_cell_angle_gamma                 89.545076
_cell_volume                      3471.1592347

loop_
_atom_site_label
_atom_site_type_symbol
_atom_type_description
_atom_site_fract_x
_atom_site_fract_y
_atom_site_fract_z
_atom_type_partial_charge
O1    O     O_R   0.507310 0.423620 0.460450 -0.536216
O2    O     O_R   0.170760 0.556060 0.437190 -0.537772
O3    O     O_R   0.004040 0.576380 0.539550 -0.536977
C1    C     C_R   0.338788 0.576151 0.421194 0.726435
O4    O     O_R   0.177350 0.422870 0.454070 -0.538132
O5    O     O_R   0.010680 0.442240 0.556560 -0.535262
C2    C     C_R   0.346091 0.399033 0.443286 0.695022
O6    O     O_R   0.500670 0.557760 0.443440 -0.535149
O7    O     O_3   0.340380 0.506510 0.533610 -0.366299
V1    V     V_3+5 0.064130 0.498790 0.493770 1.417803
O8    O     O_R   0.681170 0.443940 0.562810 -0.538087
C3    C     C_R   0.850896 0.423972 0.578769 0.725294
O9    O     O_R   0.674570 0.577130 0.545930 -0.536983
C4    C     C_R   0.842999 0.600930 0.556731 0.719543
V2    V     V_3+5 0.564560 0.501210 0.506230 1.420729
O10   O     O_3   0.838170 0.493490 0.466390 -0.367525
C5    C     C_R   0.974301 0.838024 0.911495 -0.097585
C6    C     C_R   0.849467 0.661670 0.588810 -0.097838
C7    C     C_R   0.014114 0.720326 0.908380 0.414112
C8    C     C_R   0.015338 0.778845 0.937662 -0.255985
C9    C     C_R   0.935255 0.839214 0.854954 -0.221552
C10   C     C_R   0.939550 0.780968 0.823232 0.035549
C11   C     C_R   0.980878 0.721248 0.851128 0.044358
C12   C     C_R   0.906209 0.779985 0.764932 0.089850
C13   C     C_R   0.916040 0.719477 0.735542 0.089821
C14   C     C_R   0.957713 0.661896 0.765504 -0.205872
C15   C     C_R   0.988753 0.662896 0.821737 -0.178564
C16   C     C_R   0.863473 0.837522 0.735034 -0.205919
C17   C     C_R   0.831627 0.836508 0.678859 -0.178656
C18   C     C_R   0.840270 0.778214 0.649426 0.044366
C19   C     C_R   0.883050 0.718537 0.677214 0.035677
C20   C     C_R   0.806200 0.779176 0.592229 0.413961
C21   C     C_R   0.806297 0.720778 0.562825 -0.255451
C22   C     C_R   0.889008 0.660406 0.645349 -0.222014
H1    H     H_    0.019863 0.616914 0.842296 0.163343
H2    H     H_    0.919958 0.613149 0.663050 0.104386
H3    H     H_    0.772314 0.721683 0.519385 0.117991
H4    H     H_    0.799341 0.882449 0.658376 0.163940
H5    H     H_    0.048652 0.777984 0.981141 0.118182
H6    H     H_    0.906195 0.886536 0.837137 0.104045
H7    H     H_    0.967488 0.614558 0.746758 0.121351
H8    H     H_    0.852695 0.884818 0.753803 0.121478
C23   C     C_3   0.718693 0.212963 0.771280 -0.424140
C24   C     C_3   0.995124 0.277542 0.810241 0.345958
C25   C     C_3   0.975322 0.327004 0.761355 -0.371406
H9    H     H_    0.594840 0.302361 0.735125 0.157192
H10   H     H_    0.623375 0.227720 0.805469 0.176136
H11   H     H_    0.877479 0.367730 0.773233 0.101103
H12   H     H_    0.117474 0.349043 0.752158 0.161328
C26   C     C_1   0.863518 0.378782 0.624722 -0.196129
C27   C     C_3   0.930817 0.208203 0.791735 0.225928
C28   C     C_3   0.697908 0.263065 0.723399 -0.340212
C29   C     C_3   0.895680 0.293148 0.709240 0.240108
C30   C     C_3   0.036009 0.236729 0.694387 -0.334193
C31   C     C_3   0.055991 0.186871 0.742479 -0.310826
C32   C     C_1   0.876814 0.340517 0.662867 -0.077846
C33   C     C_1   0.948262 0.160284 0.837770 -0.054404
C34   C     C_1   0.960956 0.121649 0.875636 -0.188076
H13   H     H_    0.010739 0.137744 0.728201 0.130901
H14   H     H_    0.209790 0.182622 0.755240 0.175213
H15   H     H_    0.982874 0.211208 0.657117 0.141167
H16   H     H_    0.669284 0.164217 0.757201 0.162234
H17   H     H_    0.636544 0.238341 0.686764 0.149863
H18   H     H_    0.180164 0.256851 0.684655 0.145016
C35   C     C_3   0.556979 0.685759 0.253342 -0.325311
C36   C     C_3   0.203658 0.712560 0.255152 -0.331781
C37   C     C_3   0.230794 0.761962 0.207099 -0.326617
H19   H     H_    0.567780 0.709446 0.165564 0.140786
H20   H     H_    0.527554 0.636443 0.236391 0.142471
H21   H     H_    0.166969 0.663762 0.238316 0.141241
H22   H     H_    0.207032 0.736634 0.167401 0.140296
H23   H     H_    0.120257 0.801427 0.209833 0.135855
C38   C     C_1   0.475624 0.878070 0.124585 -0.193959
C39   C     C_3   0.389055 0.707305 0.290911 0.288212
C40   C     C_3   0.584173 0.735236 0.205338 -0.330031
C41   C     C_3   0.435426 0.792006 0.208627 0.289541
C42   C     C_3   0.462528 0.825937 0.264843 -0.328757
C43   C     C_3   0.435492 0.776499 0.312870 -0.325362
C44   C     C_1   0.460143 0.839491 0.162475 -0.100059
C45   C     C_1   0.364297 0.659947 0.337146 -0.098756
C46   C     C_1   0.348738 0.621589 0.375188 -0.192723
H24   H     H_    0.568965 0.774572 0.338422 0.138142
H25   H     H_    0.316967 0.793791 0.339646 0.137841
H26   H     H_    0.692884 0.681986 0.277705 0.136543
H27   H     H_    0.732847 0.755037 0.206945 0.137259
H28   H     H_    0.356780 0.866717 0.268760 0.137407
C47   C     C_R   0.473115 0.162255 0.088256 -0.037311
C48   C     C_R   0.351551 0.338517 0.410843 -0.044727
C49   C     C_R   0.540230 0.277643 0.093355 -0.139065
C50   C     C_R   0.528347 0.220382 0.063167 -0.188557
C51   C     C_R   0.429078 0.161738 0.144334 -0.187882
C52   C     C_R   0.443167 0.219454 0.176633 0.029200
C53   C     C_R   0.500580 0.277912 0.149847 0.040726
C54   C     C_R   0.404956 0.220920 0.234419 0.053890
C55   C     C_R   0.423418 0.280826 0.264304 -0.002310
C56   C     C_R   0.479583 0.337283 0.235465 -0.285908
C57   C     C_R   0.521359 0.335917 0.179685 0.379377
C58   C     C_R   0.348633 0.164413 0.263350 -0.170014
C59   C     C_R   0.311184 0.165989 0.319058 -0.208004
C60   C     C_R   0.327407 0.223741 0.348599 0.141876
C61   C     C_R   0.384397 0.282287 0.322109 0.111984
C62   C     C_R   0.284553 0.223158 0.404683 -0.167965
C63   C     C_R   0.294691 0.280130 0.435313 -0.169574
C64   C     C_R   0.397532 0.339701 0.354808 -0.219767
H29   H     H_    0.438076 0.386338 0.338085 0.094984
H30   H     H_    0.256732 0.278795 0.478270 0.105044
H31   H     H_    0.267705 0.121240 0.339265 0.119109
H32   H     H_    0.584166 0.321691 0.072278 0.154867
H33   H     H_    0.564326 0.221280 0.020054 0.106757
H34   H     H_    0.389531 0.115211 0.161433 0.089310
H35   H     H_    0.493606 0.384024 0.254981 0.139255
H36   H     H_    0.331167 0.117619 0.244175 0.117806
H37   H     H_    0.240166 0.178496 0.424818 0.112380
O11   O     O_R   0.323590 0.942280 0.056590 -0.535424
O12   O     O_R   0.647030 0.077140 0.045940 -0.538243
O13   O     O_R   0.813570 0.057750 0.943430 -0.536078
C65   C     C_R   0.478377 0.101277 0.056400 0.692863
O14   O     O_R   0.653510 0.943950 0.062820 -0.537929
O15   O     O_R   0.820100 0.923600 0.960440 -0.537098
C66   C     C_R   0.485500 0.923774 0.078757 0.725753
O16   O     O_R   0.317060 0.076430 0.039590 -0.536152
O17   O     O_3   0.483830 0.993520 0.966410 -0.365939
V3    V     V_3+5 0.760140 0.001200 0.006230 1.417857
O18   O     O_R   0.149560 0.922820 0.954030 -0.537388
C67   C     C_R   0.981123 0.898884 0.943425 0.718741
O19   O     O_R   0.143080 0.056020 0.937150 -0.535639
C68   C     C_R   0.973385 0.076107 0.921303 0.724056
V4    V     V_3+5 0.259690 0.998730 0.993720 1.425197
O20   O     O_3   0.986120 0.006480 0.033580 -0.368000
O21   O     O_3   0.758613 0.836944 0.565528 -0.558896
C69   C     C_3   0.921282 0.858943 0.536743 0.083986
H38   H     H_    0.959912 0.824383 0.503439 0.118704
H39   H     H_    0.047228 0.864879 0.564899 0.124627
C70   C     C_3   0.875451 0.925038 0.510827 -0.714654
H40   H     H_    0.838530 0.960927 0.543118 0.219107
H41   H     H_    0.002445 0.942875 0.488042 0.174262
H42   H     H_    0.751917 0.920670 0.481894 0.222062
O22   O     O_3   0.189339 0.274581 0.828877 -0.554124
C71   C     C_3   0.222915 0.321711 0.869855 0.099708
H43   H     H_    0.144088 0.308604 0.907813 0.119866
H44   H     H_    0.177248 0.371384 0.855815 0.109834
C72   C     C_3   0.437033 0.323334 0.883322 -0.737910
H45   H     H_    0.519187 0.337565 0.846356 0.211460
H46   H     H_    0.464640 0.359503 0.916159 0.179284
H47   H     H_    0.487102 0.274447 0.897702 0.217925
H48   H     H_    0.895059 0.293073 0.843478 0.019687
H49   H     H_    0.080480 0.728603 0.280764 0.134918
H50   H     H_    0.608821 0.847499 0.267555 0.136622
O23   O     O_3   0.573367 0.393204 0.153542 -0.556711
C73   C     C_3   0.771410 0.403869 0.163130 0.090295
H51   H     H_    0.859565 0.361049 0.150017 0.122583
H52   H     H_    0.799916 0.413666 0.207301 0.122591
C74   C     C_3   0.834586 0.463081 0.130162 -0.710909
H53   H     H_    0.751421 0.506985 0.142723 0.219572
H54   H     H_    0.990178 0.472005 0.137425 0.187283
H55   H     H_    0.810182 0.454413 0.085754 0.219131
O24   O     O_3   0.059566 0.662455 0.935255 -0.558772
C75   C     C_3   0.896228 0.641310 0.964209 0.083668
H56   H     H_    0.770331 0.635379 0.936041 0.125007
H57   H     H_    0.858204 0.676415 0.997170 0.119468
C76   C     C_3   0.940142 0.575429 0.990814 -0.710067
H58   H     H_    0.063403 0.579816 0.019838 0.226316
H59   H     H_    0.812435 0.558289 0.013656 0.178298
H60   H     H_    0.976513 0.538963 0.958926 0.217170

loop_
_geom_bond_atom_site_label_1
_geom_bond_atom_site_label_2
_ccdc_geom_bond_type
C13   C19   A    
O24   C75   S    
O13   V3    S    
C31   H13   S    
C4    C6    S    
O2    C1    A    
C55   C56   A    
C41   C44   S    
C1    O6    A    
C69   C70   S    
C5    C67   S    
V4    O20   S    
C48   C63   A    
C70   H42   S    
C20   O21   S    
C76   H58   S    
C42   C43   S    
C24   C25   S    
H19   C40   S    
C14   C15   A    
O19   C68   A    
C51   H34   S    
C16   C17   A    
C47   C65   S    
C47   C51   A    
O5    C3    A    
C18   C19   A    
C71   C72   S    
C35   H20   S    
C23   C28   S    
C25   H11   S    
C37   H22   S    
C54   C58   A    
V2    O10   S    
C36   C39   S    
H9    C28   S    
C5    C8    A    
C37   H23   S    
C65   O16   A    
C52   C53   A    
C75   C76   S    
C76   H59   S    
O8    V2    S    
C43   H25   S    
C40   H27   S    
C72   H45   S    
C1    C46   S    
C7    C8    A    
O12   C65   A    
O13   C68   A    
C17   H4    S    
C24   H48   S    
C27   C33   S    
C11   C15   A    
C74   H54   S    
O7    V1    S    
C22   H2    S    
O18   V4    S    
C31   H14   S    
C36   C37   S    
C25   C29   S    
C34   C68   S    
C38   C66   S    
C39   C45   S    
C9    C10   A    
V3    O20   S    
C75   H57   S    
C72   H47   S    
C62   C63   A    
C60   C62   A    
C64   H29   S    
C48   C64   A    
O14   C66   A    
C56   H35   S    
O12   V3    S    
C7    O24   S    
C58   H36   S    
C41   C42   S    
O16   V4    S    
C49   C50   A    
C51   C52   A    
O4    C2    A    
C8    H5    S    
C35   H26   S    
C70   H41   S    
C15   H1    S    
C13   C14   A    
C29   C30   S    
C73   C74   S    
C49   C53   A    
C26   C32   T    
C35   C39   S    
C7    C11   A    
C40   C41   S    
C17   C18   A    
C73   H52   S    
O11   V4    S    
C43   H24   S    
C2    C48   S    
C25   H12   S    
C71   H43   S    
C56   C57   A    
C52   C54   A    
C38   C44   T    
C19   C22   A    
C12   C13   A    
C74   H55   S    
C6    C22   A    
C42   H50   S    
C36   H49   S    
O3    C4    A    
C72   H46   S    
O1    V2    S    
O15   C67   A    
C24   C27   S    
C42   H28   S    
O6    V2    S    
O9    V2    S    
C75   H56   S    
C10   C12   A    
C69   H38   S    
O2    V1    S    
C53   C57   A    
C76   H60   S    
C28   C29   S    
C29   C32   S    
C30   C31   S    
O19   V4    S    
O1    C2    A    
C12   C16   A    
C45   C46   T    
C69   H39   S    
C28   H17   S    
O5    V1    S    
C3    C26   S    
O8    C3    A    
C70   H40   S    
C30   H15   S    
O15   V3    S    
C61   C64   A    
C59   H31   S    
C35   C40   S    
C59   C60   A    
C20   C21   A    
O21   C69   S    
O7    V2    S    
O4    V1    S    
C62   H37   S    
V1    O10   S    
O23   C73   S    
C18   C20   A    
C71   H44   S    
C23   C27   S    
C33   C34   T    
C36   H21   S    
C9    H6    S    
C30   H18   S    
O3    V1    S    
C24   O22   S    
C49   H32   S    
C16   H8    S    
C60   C61   A    
C63   H30   S    
C27   C31   S    
O14   V3    S    
O17   V4    S    
C54   C55   A    
C6    C21   A    
C21   H3    S    
O22   C71   S    
C14   H7    S    
C58   C59   A    
C39   C43   S    
C47   C50   A    
O17   V3    S    
C57   O23   S    
C10   C11   A    
O18   C67   A    
C37   C41   S    
C50   H33   S    
C74   H53   S    
O9    C4    A    
C23   H10   S    
O11   C66   A    
C55   C61   A    
C23   H16   S    
C73   H51   S    
C5    C9    A    
