data_str_m12_o22_o22_f0_bcu.sym.99
_audit_creation_date              2012-12-11T15:55:09-0500
_audit_creation_method            fapswitch 2.2
_symmetry_space_group_name_H-M    P1
_symmetry_Int_Tables_number       1
_space_group_crystal_system       triclinic
_cell_length_a                    17.645386
_cell_length_b                    24.540762
_cell_length_c                    15.134435
_cell_angle_alpha                 90.103908
_cell_angle_beta                  126.602461
_cell_angle_gamma                 89.947973
_cell_volume                      5261.23448384

loop_
_atom_site_label
_atom_site_type_symbol
_atom_type_description
_atom_site_fract_x
_atom_site_fract_y
_atom_site_fract_z
_atom_type_partial_charge
C1    C     C_R   0.916783 0.860337 0.090280 -0.047366
C2    C     C_R   0.911074 0.135935 0.089531 -0.049352
C3    C     C_R   0.416770 0.360310 0.090281 -0.046223
C4    C     C_R   0.411039 0.636011 0.089419 -0.041830
C5    C     C_R   0.051758 0.847823 0.907405 -0.221171
C6    C     C_R   0.052535 0.151829 0.907522 -0.214405
C7    C     C_R   0.551849 0.347845 0.907406 -0.217297
C8    C     C_R   0.552884 0.651629 0.907308 -0.211876
C9    C     C_R   0.142292 0.153606 0.090854 0.450240
C10   C     C_R   0.141355 0.846163 0.090714 0.462314
C11   C     C_R   0.642546 0.653553 0.090724 0.450255
C12   C     C_R   0.641450 0.346185 0.090711 0.462695
C13   C     C_R   0.321407 0.000543 0.260780 -0.070472
C14   C     C_R   0.821141 0.500548 0.259599 -0.069329
C15   C     C_R   0.939326 0.999886 0.636634 0.046407
C16   C     C_R   0.441865 0.499967 0.638008 0.045116
C17   C     C_R   0.110496 0.815211 0.997522 -0.083098
C18   C     C_R   0.113049 0.183888 0.997910 -0.070281
C19   C     C_R   0.610690 0.315267 0.997539 -0.084957
C20   C     C_R   0.613758 0.683545 0.997629 -0.070346
C21   C     C_3   0.913312 0.050354 0.382811 -0.480103
C22   C     C_3   0.913938 0.948069 0.383166 -0.472855
C23   C     C_3   0.411275 0.551058 0.381134 -0.504975
C24   C     C_3   0.408956 0.449737 0.378857 -0.430255
C25   C     C_3   0.891197 0.047846 0.466141 -0.403901
C26   C     C_3   0.907040 0.946038 0.478829 -0.417095
C27   C     C_3   0.399315 0.551072 0.473101 -0.410562
C28   C     C_3   0.399353 0.448776 0.472780 -0.396720
C29   C     C_3   0.071707 0.998826 0.509577 1.009872
C30   C     C_3   0.569774 0.497660 0.506707 1.021541
C31   C     C_3   0.971666 0.999276 0.394894 0.253028
C32   C     C_3   0.469148 0.500116 0.392136 0.214386
C33   C     C_3   0.946303 0.999693 0.545794 0.348789
C34   C     C_3   0.447742 0.499936 0.546407 0.324893
C35   C     C_R   0.818311 0.134036 0.903921 -0.131405
C36   C     C_R   0.824422 0.861174 0.904475 -0.125109
C37   C     C_R   0.318239 0.633995 0.903897 -0.129026
C38   C     C_R   0.324211 0.361298 0.904523 -0.124161
C39   C     C_3   0.053002 0.005407 0.597926 -0.670956
C40   C     C_3   0.554790 0.499199 0.598046 -0.631873
C41   C     C_3   0.686669 0.212727 0.872560 -0.409819
C42   C     C_3   0.704412 0.775981 0.876293 -0.419555
C43   C     C_3   0.186096 0.712434 0.872395 -0.410037
C44   C     C_3   0.201088 0.278075 0.875824 -0.419010
C45   C     C_3   0.127248 0.757307 0.873432 -0.344527
C46   C     C_3   0.138079 0.236204 0.875755 -0.356146
C47   C     C_3   0.627756 0.257549 0.873562 -0.343257
C48   C     C_3   0.641061 0.734280 0.875933 -0.360867
C49   C     C_3   0.327832 0.746202 0.055063 -0.352575
C50   C     C_3   0.337083 0.249879 0.066886 -0.357812
C51   C     C_3   0.828238 0.246260 0.055480 -0.352117
C52   C     C_3   0.838307 0.750582 0.070531 -0.359560
C53   C     C_3   0.722593 0.173137 0.047294 -0.579104
C54   C     C_3   0.722982 0.824487 0.035176 -0.575877
C55   C     C_3   0.222466 0.673044 0.047417 -0.578554
C56   C     C_3   0.225587 0.324426 0.039765 -0.574602
C57   C     C_3   0.767054 0.195701 0.992203 0.349897
C58   C     C_3   0.776773 0.798162 0.994250 0.353569
C59   C     C_3   0.266735 0.695573 0.992063 0.350657
C60   C     C_3   0.276205 0.298539 0.994399 0.351070
C61   C     C_3   0.163489 0.769786 0.994079 0.289718
C62   C     C_3   0.169400 0.227090 0.995348 0.286675
C63   C     C_3   0.663772 0.269892 0.994158 0.287426
C64   C     C_3   0.670231 0.726512 0.994942 0.290582
C65   C     C_3   0.267720 0.789297 0.058084 -0.563275
C66   C     C_3   0.274013 0.207202 0.065451 -0.560395
C67   C     C_3   0.768086 0.289344 0.058514 -0.562135
C68   C     C_3   0.775305 0.707419 0.067801 -0.560492
C69   C     C_3   0.157032 0.716269 0.044628 0.471104
C70   C     C_3   0.160812 0.282133 0.039977 0.470482
C71   C     C_3   0.657087 0.216328 0.044388 0.471889
C72   C     C_3   0.658852 0.781939 0.035924 0.468641
C73   C     C_3   0.473403 0.948292 0.359726 -0.415018
C74   C     C_3   0.476849 0.050036 0.355808 -0.406319
C75   C     C_3   0.973334 0.448360 0.360031 -0.415141
C76   C     C_3   0.976784 0.550059 0.356385 -0.406297
C77   C     C_R   0.740254 0.953928 0.699148 -0.067265
C78   C     C_R   0.740575 0.045181 0.697708 -0.072822
C79   C     C_R   0.239349 0.453905 0.700159 -0.071287
C80   C     C_R   0.239670 0.545226 0.698677 -0.078038
C81   C     C_3   0.578035 0.950774 0.458729 -0.459772
C82   C     C_3   0.573988 0.052642 0.468564 -0.481361
C83   C     C_3   0.077497 0.450748 0.460277 -0.460194
C84   C     C_3   0.073321 0.552647 0.469842 -0.481586
C85   C     C_3   0.423811 0.005232 0.460008 -0.639461
C86   C     C_3   0.922044 0.505173 0.458724 -0.640611
C87   C     C_3   0.421863 0.000772 0.355649 0.360897
C88   C     C_3   0.921361 0.500767 0.355224 0.361971
C89   C     C_3   0.593625 0.998957 0.535091 0.230828
C90   C     C_3   0.092337 0.498977 0.536234 0.228826
C91   C     C_3   0.524034 0.993157 0.567279 0.989408
C92   C     C_3   0.021755 0.493214 0.566965 0.988795
C93   C     C_R   0.003534 0.045660 0.272138 -0.058902
C94   C     C_R   0.003296 0.953813 0.271215 -0.049841
C95   C     C_R   0.502165 0.545891 0.270546 -0.055318
C96   C     C_R   0.501648 0.454074 0.269923 -0.066338
C97   C     C_R   0.836843 0.838847 0.995749 -0.003296
C98   C     C_R   0.827601 0.154563 0.994606 -0.011205
C99   C     C_R   0.336536 0.339035 0.995795 -0.003869
C100  C     C_R   0.327425 0.654500 0.994512 -0.014415
C101  C     C_R   0.690748 0.999254 0.637698 0.043654
C102  C     C_R   0.189174 0.499277 0.639430 0.050517
C103  C     C_R   0.984216 0.999560 0.308028 -0.012653
C104  C     C_R   0.481696 0.500029 0.305522 -0.014859
C105  C     C_R   0.265681 0.954794 0.236966 -0.096682
C106  C     C_R   0.265413 0.045850 0.237595 -0.081914
C107  C     C_R   0.765403 0.454823 0.235985 -0.096364
C108  C     C_R   0.765136 0.545836 0.236630 -0.083002
C109  C     C_R   0.953950 0.045641 0.698070 -0.144796
C110  C     C_R   0.953174 0.954247 0.697726 -0.155432
C111  C     C_R   0.455276 0.545726 0.698866 -0.146266
C112  C     C_R   0.455067 0.454231 0.698610 -0.148929
H1    H     H_    0.949870 0.848126 0.174172 0.111264
H2    H     H_    0.942367 0.148313 0.172977 0.100024
H3    H     H_    0.449917 0.347940 0.174123 0.111626
H4    H     H_    0.442421 0.648647 0.172732 0.099321
H5    H     H_    0.846152 0.052684 0.298063 0.169641
H6    H     H_    0.841858 0.949633 0.303810 0.174978
H7    H     H_    0.340398 0.550363 0.300010 0.184838
H8    H     H_    0.337645 0.451499 0.298439 0.163362
H9    H     H_    0.814007 0.042241 0.422905 0.164659
H10   H     H_    0.832289 0.939775 0.447166 0.164066
H11   H     H_    0.322873 0.551176 0.437086 0.168419
H12   H     H_    0.323437 0.447530 0.438925 0.157988
H13   H     H_    0.910993 0.087630 0.509517 0.162074
H14   H     H_    0.948619 0.910447 0.530954 0.160478
H15   H     H_    0.429829 0.589411 0.520575 0.153666
H16   H     H_    0.433023 0.410742 0.520414 0.169366
H17   H     H_    0.075423 0.047065 0.634075 0.184442
H18   H     H_    0.095266 0.978223 0.669985 0.135822
H19   H     H_    0.592416 0.532799 0.657989 0.159285
H20   H     H_    0.586271 0.461945 0.649903 0.178755
H21   H     H_    0.716376 0.228238 0.829906 0.156884
H22   H     H_    0.741389 0.756958 0.844737 0.159511
H23   H     H_    0.215549 0.727874 0.829417 0.154400
H24   H     H_    0.235591 0.259575 0.840773 0.160505
H25   H     H_    0.640606 0.177308 0.825133 0.180113
H26   H     H_    0.659784 0.809575 0.820160 0.173811
H27   H     H_    0.140037 0.676930 0.825281 0.179849
H28   H     H_    0.156867 0.312566 0.822659 0.175582
H29   H     H_    0.552242 0.244994 0.821717 0.194620
H30   H     H_    0.566332 0.747976 0.818772 0.196819
H31   H     H_    0.051739 0.744749 0.821796 0.194014
H32   H     H_    0.063420 0.250249 0.820598 0.197092
H33   H     H_    0.133220 0.794160 0.835048 0.146948
H34   H     H_    0.143630 0.197660 0.840939 0.153532
H35   H     H_    0.633844 0.294458 0.835403 0.150240
H36   H     H_    0.647925 0.695299 0.843373 0.153196
H37   H     H_    0.358513 0.762868 0.014304 0.184512
H38   H     H_    0.375395 0.231926 0.036364 0.187346
H39   H     H_    0.859043 0.262983 0.014884 0.184777
H40   H     H_    0.879885 0.732700 0.044282 0.189439
H41   H     H_    0.764868 0.142172 0.817742 0.107111
H42   H     H_    0.773287 0.851455 0.818438 0.103711
H43   H     H_    0.264819 0.642169 0.817749 0.105669
H44   H     H_    0.272867 0.351610 0.818515 0.103711
H45   H     H_    0.271191 0.827679 0.021385 0.183965
H46   H     H_    0.279189 0.168491 0.030776 0.185041
H47   H     H_    0.771730 0.327780 0.022093 0.185051
H48   H     H_    0.782283 0.668748 0.034523 0.185055
H49   H     H_    0.778990 0.161921 0.134374 0.134939
H50   H     H_    0.773701 0.841111 0.119832 0.130961
H51   H     H_    0.278977 0.661856 0.134478 0.134079
H52   H     H_    0.278274 0.339594 0.125204 0.131194
H53   H     H_    0.682624 0.135261 0.004265 0.191674
H54   H     H_    0.680304 0.859403 0.980819 0.191933
H55   H     H_    0.182479 0.635155 0.004488 0.189497
H56   H     H_    0.183810 0.360300 0.988399 0.192642
H57   H     H_    0.183377 0.724214 0.130715 0.108938
H58   H     H_    0.186208 0.276297 0.126409 0.105986
H59   H     H_    0.683167 0.224183 0.130417 0.109307
H60   H     H_    0.683069 0.777020 0.122143 0.104068
H61   H     H_    0.387688 0.736039 0.141218 0.179804
H62   H     H_    0.390940 0.262792 0.153540 0.178481
H63   H     H_    0.888007 0.235995 0.141620 0.180986
H64   H     H_    0.889327 0.764638 0.156997 0.176536
H65   H     H_    0.298974 0.798367 0.145307 0.215676
H66   H     H_    0.301696 0.198557 0.151633 0.214179
H67   H     H_    0.799197 0.298294 0.145734 0.215939
H68   H     H_    0.801709 0.698934 0.153537 0.215685
H69   H     H_    0.442126 0.911340 0.368161 0.172796
H70   H     H_    0.440320 0.089377 0.342009 0.170924
H71   H     H_    0.941538 0.411311 0.367274 0.172492
H72   H     H_    0.940095 0.589390 0.342101 0.170034
H73   H     H_    0.467070 0.943872 0.282373 0.161280
H74   H     H_    0.485471 0.045384 0.289083 0.167348
H75   H     H_    0.968229 0.444152 0.283415 0.161720
H76   H     H_    0.986348 0.545458 0.290410 0.167430
H77   H     H_    0.622518 0.956564 0.429754 0.172548
H78   H     H_    0.629555 0.059271 0.456311 0.171112
H79   H     H_    0.123015 0.456378 0.432666 0.172863
H80   H     H_    0.129513 0.559263 0.458622 0.170940
H81   H     H_    0.725606 0.911732 0.674249 0.095821
H82   H     H_    0.726195 0.087045 0.670524 0.087999
H83   H     H_    0.224540 0.411737 0.675130 0.096073
H84   H     H_    0.225121 0.587054 0.671299 0.087648
H85   H     H_    0.597743 0.910866 0.501434 0.189450
H86   H     H_    0.574580 0.088347 0.514346 0.197919
H87   H     H_    0.096453 0.410841 0.502896 0.189954
H88   H     H_    0.073355 0.588361 0.515228 0.197070
H89   H     H_    0.366230 0.981595 0.450873 0.148882
H90   H     H_    0.404858 0.047909 0.464881 0.199831
H91   H     H_    0.864085 0.481576 0.448782 0.147354
H92   H     H_    0.902807 0.547863 0.463050 0.200416
H93   H     H_    0.009904 0.087032 0.299499 0.118196
H94   H     H_    0.009638 0.912203 0.296988 0.123218
H95   H     H_    0.508879 0.587266 0.297710 0.092534
H96   H     H_    0.507173 0.412535 0.295708 0.123859
H97   H     H_    0.286960 0.912710 0.247865 0.144827
H98   H     H_    0.286395 0.088041 0.250670 0.146498
H99   H     H_    0.786640 0.412739 0.246705 0.144919
H100  H     H_    0.786085 0.588037 0.249623 0.144111
H101  H     H_    0.946174 0.088007 0.674979 0.091709
H102  H     H_    0.943051 0.911910 0.673499 0.093236
H103  H     H_    0.446523 0.588085 0.675505 0.091558
H104  H     H_    0.446040 0.411887 0.674724 0.094219
H105  H     H_    0.007748 0.836389 0.821431 0.127563
H106  H     H_    0.009010 0.163201 0.821584 0.128291
H107  H     H_    0.507863 0.336404 0.821438 0.128382
H108  H     H_    0.509596 0.662902 0.821326 0.127462
H109  H     H_    0.953273 0.088500 0.397748 0.192005
H110  H     H_    0.946829 0.909384 0.383806 0.183362
H111  H     H_    0.444039 0.589998 0.383579 0.152483
H112  H     H_    0.441007 0.410528 0.380200 0.189210
N1    N     N_R   0.950530 0.896220 0.057200 -0.031927
N2    N     N_R   0.950530 0.103780 0.057200 -0.027354
N3    N     N_R   0.450530 0.396220 0.057200 -0.031681
N4    N     N_R   0.450530 0.603780 0.057200 -0.026714
N5    N     N_R   0.893330 0.103780 0.942800 -0.044331
N6    N     N_R   0.893330 0.896220 0.942800 -0.047034
N7    N     N_R   0.393330 0.603780 0.942800 -0.044835
N8    N     N_R   0.393330 0.396220 0.942800 -0.046991
N9    N     N_R   0.818150 0.971400 0.792440 -0.052083
N10   N     N_R   0.818150 0.028600 0.792440 -0.050189
N11   N     N_R   0.318150 0.471400 0.792440 -0.052090
N12   N     N_R   0.318150 0.528600 0.792440 -0.049956
N13   N     N_R   0.025710 0.028600 0.207560 -0.039314
N14   N     N_R   0.025710 0.971400 0.207560 -0.038482
N15   N     N_R   0.525710 0.528600 0.207560 -0.035642
N16   N     N_R   0.525710 0.471400 0.207560 -0.037749
N17   N     N_R   0.181850 0.971400 0.207560 -0.013931
N18   N     N_R   0.181850 0.028600 0.207560 -0.015999
N19   N     N_R   0.681850 0.471400 0.207560 -0.014786
N20   N     N_R   0.681850 0.528600 0.207560 -0.016275
N21   N     N_R   0.974290 0.028600 0.792440 -0.039209
N22   N     N_R   0.974290 0.971400 0.792440 -0.038913
N23   N     N_R   0.474290 0.528600 0.792440 -0.039257
N24   N     N_R   0.474290 0.471400 0.792440 -0.039044
N25   N     N_R   0.049470 0.896220 0.942800 -0.071516
N26   N     N_R   0.049470 0.103780 0.942800 -0.072396
N27   N     N_R   0.549470 0.396220 0.942800 -0.071417
N28   N     N_R   0.549470 0.603780 0.942800 -0.072675
N29   N     N_R   0.106670 0.103780 0.057200 -0.096364
N30   N     N_R   0.106670 0.896220 0.057200 -0.095319
N31   N     N_R   0.606670 0.603780 0.057200 -0.096088
N32   N     N_R   0.606670 0.396220 0.057200 -0.095078
Ni1   Ni    Ni4+2 0.065600 0.934400 0.131190 0.318044
Ni2   Ni    Ni4+2 0.065600 0.065600 0.131190 0.315941
Ni3   Ni    Ni4+2 0.565600 0.434400 0.131190 0.315384
Ni4   Ni    Ni4+2 0.565600 0.565600 0.131190 0.318161
Ni5   Ni    Ni4+2 0.934400 0.065600 0.868810 0.196360
Ni6   Ni    Ni4+2 0.934400 0.934400 0.868810 0.193749
Ni7   Ni    Ni4+2 0.434400 0.565600 0.868810 0.196571
Ni8   Ni    Ni4+2 0.434400 0.434400 0.868810 0.195432
O1    O     O_3   0.121681 0.045433 0.512783 -0.672085
C113  C     C_3   0.218780 0.044519 0.601809 0.268394
H113  H     H_    0.255809 0.011958 0.589904 0.133966
H114  H     H_    0.230126 0.038805 0.681766 0.071575
C114  C     C_3   0.262499 0.098800 0.606486 -0.908691
H115  H     H_    0.224564 0.132704 0.613382 0.261286
H116  H     H_    0.337656 0.099834 0.679189 0.218915
H117  H     H_    0.258383 0.104357 0.530941 0.272540
O2    O     O_3   0.117605 0.949785 0.511408 -0.672494
C115  C     C_3   0.167160 0.918702 0.609099 0.181940
H118  H     H_    0.116793 0.897817 0.618971 0.116368
H119  H     H_    0.218020 0.943884 0.682579 0.080487
C116  C     C_3   0.223451 0.874922 0.600376 -0.887744
H120  H     H_    0.274685 0.894089 0.590073 0.247207
H121  H     H_    0.262629 0.849764 0.676216 0.219961
H122  H     H_    0.175180 0.848159 0.528542 0.259704
O3    O     O_3   0.631465 0.538580 0.512933 -0.682032
C117  C     C_3   0.631352 0.591339 0.550907 0.192361
H123  H     H_    0.573755 0.599773 0.557859 0.089563
H124  H     H_    0.622741 0.621323 0.490690 0.134186
C118  C     C_3   0.726402 0.602215 0.660811 -0.943743
H125  H     H_    0.784001 0.598535 0.651375 0.270583
H126  H     H_    0.727413 0.644028 0.689695 0.228859
H127  H     H_    0.739333 0.572541 0.723693 0.243523
O4    O     O_3   0.608195 0.445364 0.512238 -0.675964
C119  C     C_3   0.707438 0.442796 0.592644 0.328255
H128  H     H_    0.731411 0.464568 0.669927 0.091622
H129  H     H_    0.743158 0.460796 0.558930 0.136820
C120  C     C_3   0.737367 0.383499 0.620806 -0.979598
H130  H     H_    0.715047 0.360639 0.545464 0.268175
H131  H     H_    0.815319 0.380953 0.681107 0.226035
H132  H     H_    0.704536 0.364709 0.657205 0.263762
O5    O     O_3   0.561894 0.197941 0.978329 -0.624062
C121  C     C_3   0.543656 0.163462 0.038393 0.291331
H133  H     H_    0.548941 0.186435 0.105075 0.149365
H134  H     H_    0.593473 0.128427 0.074860 0.074352
C122  C     C_3   0.443653 0.141253 0.961333 -0.937905
H135  H     H_    0.437216 0.115023 0.897437 0.254110
H136  H     H_    0.426282 0.116741 0.008692 0.207749
H137  H     H_    0.392381 0.175283 0.920048 0.262025
O6    O     O_3   0.562800 0.798437 0.964994 -0.627439
C123  C     C_3   0.540911 0.835603 0.018192 0.294462
H138  H     H_    0.590698 0.870706 0.053706 0.072523
H139  H     H_    0.542813 0.814920 0.084690 0.149496
C124  C     C_3   0.441672 0.857515 0.934682 -0.949834
H140  H     H_    0.390065 0.823428 0.898248 0.259240
H141  H     H_    0.422839 0.886194 0.975620 0.209491
H142  H     H_    0.437949 0.879379 0.867967 0.259082
O7    O     O_3   0.061810 0.697906 0.978882 -0.623719
C125  C     C_3   0.043705 0.663527 0.039196 0.289122
H143  H     H_    0.051832 0.686087 0.107983 0.148290
H144  H     H_    0.091759 0.627672 0.072846 0.075122
C126  C     C_3   0.942381 0.643101 0.963424 -0.932623
H145  H     H_    0.933121 0.616797 0.898003 0.259531
H146  H     H_    0.925029 0.619115 0.011372 0.207532
H147  H     H_    0.892822 0.678000 0.923929 0.261516
O8    O     O_3   0.065347 0.299862 0.971674 -0.627085
C127  C     C_3   0.046399 0.336650 0.028270 0.288347
H148  H     H_    0.099619 0.370000 0.068495 0.072304
H149  H     H_    0.045275 0.314829 0.091646 0.153675
C128  C     C_3   0.949849 0.362208 0.946650 -0.937525
H150  H     H_    0.894891 0.329986 0.904570 0.263924
H151  H     H_    0.932798 0.390020 0.990514 0.209967
H152  H     H_    0.949899 0.385896 0.884223 0.253523
O9    O     O_3   0.539746 0.939665 0.614929 -0.678746
C129  C     C_3   0.458785 0.910318 0.586250 0.186747
H153  H     H_    0.417538 0.896103 0.499582 0.149354
H154  H     H_    0.413358 0.934608 0.599600 0.071477
C130  C     C_3   0.489498 0.860046 0.658157 -0.880740
H155  H     H_    0.532018 0.872212 0.746187 0.254943
H156  H     H_    0.426511 0.837133 0.637326 0.230651
H157  H     H_    0.531743 0.833234 0.643559 0.250040
O10   O     O_3   0.549268 0.034525 0.647035 -0.670829
C131  C     C_3   0.509190 0.026709 0.703571 0.271776
H158  H     H_    0.536063 0.988672 0.753101 0.141917
H159  H     H_    0.430806 0.026199 0.645554 0.078801
C132  C     C_3   0.538935 0.073565 0.783693 -0.929742
H160  H     H_    0.508870 0.112399 0.737915 0.266592
H161  H     H_    0.513099 0.066291 0.833862 0.210398
H162  H     H_    0.617154 0.076573 0.839518 0.261019
O11   O     O_3   0.037156 0.439856 0.615004 -0.678194
C133  C     C_3   0.955816 0.410102 0.583907 0.193446
H163  H     H_    0.915969 0.396181 0.497193 0.150255
H164  H     H_    0.909239 0.433933 0.596096 0.073036
C134  C     C_3   0.985713 0.359538 0.654860 -0.880396
H165  H     H_    0.025372 0.371444 0.742769 0.253339
H166  H     H_    0.922400 0.335868 0.630799 0.231330
H167  H     H_    0.030427 0.333541 0.642837 0.251682
O12   O     O_3   0.045885 0.534580 0.646311 -0.670269
C135  C     C_3   0.001315 0.527643 0.698018 0.264678
H168  H     H_    0.027292 0.490169 0.749341 0.139715
H169  H     H_    0.923172 0.526434 0.636818 0.080880
C136  C     C_3   0.026417 0.575567 0.774547 -0.907068
H170  H     H_    0.998162 0.613935 0.726456 0.263845
H171  H     H_    0.995423 0.569337 0.819491 0.211842
H172  H     H_    0.104326 0.578740 0.835179 0.256093
S1    S     S_3+6 0.168063 0.180889 0.214477 -0.112924
O13   O     O_2   0.264521 0.206307 0.283017 -0.347273
O14   O     O_2   0.095553 0.223363 0.186441 -0.360635
O15   O     O_3   0.163826 0.131709 0.288560 -0.564193
H173  H     H_    0.158729 0.151245 0.342139 0.367209
S2    S     S_3+6 0.171381 0.820415 0.217325 -0.124104
O16   O     O_2   0.100261 0.778185 0.194553 -0.354966
O17   O     O_2   0.268094 0.795304 0.283118 -0.369414
O18   O     O_3   0.169892 0.870490 0.292162 -0.568377
H174  H     H_    0.191448 0.853153 0.362651 0.368978
S3    S     S_3+6 0.667074 0.681331 0.213440 -0.114073
O19   O     O_2   0.762809 0.707636 0.281835 -0.351877
O20   O     O_2   0.593335 0.723213 0.183985 -0.357787
O21   O     O_3   0.663706 0.632242 0.288334 -0.562842
H175  H     H_    0.667817 0.651729 0.348431 0.364178
S4    S     S_3+6 0.671315 0.320382 0.217183 -0.123261
O22   O     O_2   0.600102 0.278138 0.194106 -0.357748
O23   O     O_2   0.768024 0.295274 0.283217 -0.363723
O24   O     O_3   0.669678 0.370461 0.291887 -0.571606
H176  H     H_    0.683575 0.352238 0.358408 0.365143

loop_
_geom_bond_atom_site_label_1
_geom_bond_atom_site_label_2
_ccdc_geom_bond_type
C127  H149  S    
N11   Ni8   S    
C12   N32   A    
C55   C59   S    
C119  C120  S    
C15   C109  A    
C77   C101  A    
C42   C58   S    
C49   H61   S    
O10   C131  S    
C130  H155  S    
C117  H123  S    
C136  H170  S    
C21   H109  S    
C46   C62   S    
C72   H60   S    
C111  H103  S    
C82   H86   S    
C86   C88   S    
C96   H96   S    
C127  C128  S    
C106  H98   S    
N32   Ni3   S    
C62   C70   S    
C115  H118  S    
C26   H14   S    
C77   H81   S    
C21   H5    S    
N28   Ni7   S    
C17   C61   S    
N29   Ni2   S    
N10   Ni5   S    
C5    H105  S    
C19   C63   S    
C32   C104  S    
C79   C102  A    
C36   C97   A    
C51   C57   S    
C76   H76   S    
S4    O24   S    
N26   N29   A    
C124  H141  S    
N21   N22   A    
C78   C101  A    
N18   Ni2   S    
C107  N19   A    
C1    H1    S    
C105  N17   A    
C44   C46   S    
C10   S2    S    
C80   H84   S    
S1    O15   S    
C11   C20   A    
C24   H8    S    
C129  H153  S    
C6    N26   A    
C85   C87   S    
C125  H143  S    
C122  H135  S    
C126  H147  S    
C24   C32   S    
S1    O14   D    
C90   C92   S    
C123  H138  S    
C95   N15   A    
C81   H77   S    
C52   C58   S    
C85   H90   S    
C14   C107  A    
C63   C71   S    
C136  H172  S    
C7    C19   A    
C114  H116  S    
C121  H133  S    
C53   C71   S    
C2    N2    A    
C130  H157  S    
C22   H6    S    
C56   H52   S    
C89   C101  S    
C9    N29   A    
C13   C106  A    
C47   H29   S    
N1    N6    A    
C42   H22   S    
C61   C69   S    
C55   H51   S    
C118  H126  S    
C81   H85   S    
C2    H2    S    
N27   N32   A    
C46   H34   S    
N13   N14   A    
N16   Ni3   S    
C14   C88   S    
O5    C121  S    
C61   C65   S    
C5    C17   A    
N12   Ni7   S    
O8    C127  S    
C80   C102  A    
N13   Ni2   S    
C67   H67   S    
C68   H48   S    
C25   H9    S    
N4    N7    A    
N23   Ni7   S    
N19   N20   A    
C16   C111  A    
N24   Ni8   S    
C134  H165  S    
C122  H137  S    
C80   N12   A    
C94   H94   S    
N21   Ni5   S    
C93   C103  A    
C41   H21   S    
C21   C31   S    
C82   C89   S    
C45   H33   S    
C64   C68   S    
C110  H102  S    
C23   H7    S    
C79   H83   S    
O15   H173  S    
N17   N18   A    
C128  H151  S    
O21   H175  S    
C90   C102  S    
C16   C34   S    
C93   N13   A    
C74   C87   S    
C89   C91   S    
C24   C28   S    
N9    N10   A    
C43   C59   S    
C109  N21   A    
C116  H120  S    
C59   C100  S    
C29   C39   S    
C91   O9    S    
C84   C90   S    
C108  H100  S    
S4    O23   D    
C132  H161  S    
C29   O2    S    
C47   H35   S    
C62   C66   S    
C48   H30   S    
C69   O7    S    
C18   C62   S    
C46   H32   S    
C39   H17   S    
N30   Ni1   S    
C7    N27   A    
C42   C48   S    
C71   O5    S    
C120  H130  S    
C26   C33   S    
C133  H164  S    
C78   N10   A    
S3    O21   S    
C13   C87   S    
C54   C58   S    
O4    C119  S    
C41   C47   S    
C51   C67   S    
C43   C45   S    
S2    O18   S    
C55   C69   S    
C113  H114  S    
N28   N31   A    
C8    C20   A    
C40   H19   S    
C23   H111  S    
C134  H167  S    
C131  H159  S    
C70   O8    S    
C71   H59   S    
C133  C134  S    
C67   H47   S    
C37   N7    A    
C21   C25   S    
N31   Ni4   S    
C8    N28   A    
N8    Ni8   S    
C12   S4    S    
C35   H41   S    
C113  C114  S    
C73   H73   S    
C28   H12   S    
C74   H70   S    
N5    Ni5   S    
C131  C132  S    
C11   S3    S    
C117  H124  S    
C49   C59   S    
C50   C60   S    
C116  H121  S    
C79   N11   A    
C65   H65   S    
C14   C108  A    
C115  H119  S    
C112  H104  S    
C28   C34   S    
C3    C99   A    
C9    C18   A    
C117  C118  S    
C136  H171  S    
C135  H168  S    
C116  H122  S    
C86   H91   S    
C37   C100  A    
C25   C33   S    
C44   H24   S    
N6    Ni6   S    
C42   H26   S    
C115  C116  S    
C29   O1    S    
N15   N16   A    
C55   H55   S    
C76   C84   S    
O12   C135  S    
C36   H42   S    
O24   H176  S    
C95   C104  A    
C22   H110  S    
C129  H154  S    
C83   H79   S    
C54   H54   S    
C120  H132  S    
C47   C63   S    
C48   C64   S    
C107  H99   S    
C125  H144  S    
S3    O19   D    
C56   C70   S    
C105  H97   S    
N14   Ni1   S    
C119  H128  S    
C78   H82   S    
C73   C81   S    
C126  H146  S    
C25   H13   S    
S2    O16   D    
C73   C87   S    
N7    Ni7   S    
C30   O4    S    
C6    H106  S    
C27   H15   S    
C129  C130  S    
N20   Ni4   S    
C123  H139  S    
N11   N12   A    
N25   Ni6   S    
C35   C98   A    
C52   H64   S    
C41   H25   S    
N22   Ni6   S    
C85   H89   S    
C81   C89   S    
C125  C126  S    
C130  H156  S    
C127  H148  S    
C51   H39   S    
N25   N30   A    
C44   H28   S    
C114  H115  S    
C96   N16   A    
C15   C110  A    
C121  H134  S    
C106  N18   A    
C122  H136  S    
C95   H95   S    
C123  C124  S    
C5    N25   A    
N15   Ni4   S    
C65   H45   S    
C53   C57   S    
C38   N8    A    
C132  H160  S    
C30   O3    S    
C56   C60   S    
C132  H162  S    
C121  C122  S    
C118  H125  S    
C52   H40   S    
N4    Ni4   S    
N19   Ni3   S    
C51   H63   S    
N17   Ni1   S    
C72   O6    S    
C13   C105  A    
C94   C103  A    
C9    S1    S    
N2    N5    A    
C3    N3    A    
C16   C112  A    
C1    N1    A    
C108  N20   A    
C10   N30   A    
C4    H4    S    
C75   H75   S    
C38   C99   A    
C50   H62   S    
C23   C32   S    
C70   H58   S    
C41   C57   S    
C3    H3    S    
C75   C83   S    
O7    C125  S    
C44   C60   S    
C57   C98   S    
C12   C19   A    
C45   C61   S    
C92   O12   S    
C4    N4    A    
C128  H150  S    
C120  H131  S    
O6    C123  S    
C22   C26   S    
C114  H117  S    
C45   H31   S    
C26   H10   S    
C28   H16   S    
N9    Ni6   S    
C74   H74   S    
O9    C129  S    
C37   H43   S    
C38   H44   S    
C60   C99   S    
C93   H93   S    
C85   C91   S    
C124  H140  S    
C84   H88   S    
C66   H66   S    
C33   C39   S    
C49   C65   S    
C34   C40   S    
C118  H127  S    
C109  H101  S    
C92   O11   S    
C10   C17   A    
C69   H57   S    
C73   H69   S    
C75   H71   S    
C94   N14   A    
S3    O20   D    
C43   H27   S    
C23   C27   S    
O1    C113  S    
C76   C88   S    
C52   C68   S    
N3    Ni3   S    
N27   Ni8   S    
C7    H107  S    
C110  N22   A    
N3    N8    A    
C40   H20   S    
C134  H166  S    
C82   H78   S    
C58   C97   S    
C24   H112  S    
C27   C34   S    
C6    C18   A    
C63   C67   S    
C22   C31   S    
C1    C97   A    
C27   H11   S    
O3    C117  S    
C68   H68   S    
C35   N5    A    
C31   C103  S    
C20   C64   S    
C128  H152  S    
N26   Ni5   S    
C8    H108  S    
N2    Ni2   S    
C50   H38   S    
C56   H56   S    
C77   N9    A    
O2    C115  S    
C30   C40   S    
C54   H50   S    
C43   H23   S    
C50   C66   S    
C111  N23   A    
C135  H169  S    
C4    C100  A    
C83   H87   S    
C86   H92   S    
C66   H46   S    
S4    O22   D    
O18   H174  S    
C74   C82   S    
C124  H142  S    
C53   H53   S    
C112  N24   A    
C83   C90   S    
N23   N24   A    
C39   H18   S    
C135  C136  S    
S1    O13   D    
C49   H37   S    
C91   O10   S    
C96   C104  A    
N1    Ni1   S    
C29   C31   S    
C86   C92   S    
C30   C32   S    
C53   H49   S    
C133  H163  S    
C48   H36   S    
C84   H80   S    
C119  H129  S    
C11   N31   A    
C64   C72   S    
C126  H145  S    
S2    O17   D    
C113  H113  S    
C75   C88   S    
C54   C72   S    
C2    C98   A    
C36   N6    A    
C131  H158  S    
O11   C133  S    
C76   H72   S    
C15   C33   S    
