data_str_m2_o10_o17_f0_pcu.sym.101
_audit_creation_date              2012-12-10T16:44:37-0500
_audit_creation_method            fapswitch 2.2
_symmetry_space_group_name_H-M    P1
_symmetry_Int_Tables_number       1
_space_group_crystal_system       triclinic
_cell_length_a                    14.960539
_cell_length_b                    8.76358
_cell_length_c                    7.592457
_cell_angle_alpha                 103.630766
_cell_angle_beta                  94.520488
_cell_angle_gamma                 95.527926
_cell_volume                      957.577896284

loop_
_atom_site_label
_atom_site_type_symbol
_atom_type_description
_atom_site_fract_x
_atom_site_fract_y
_atom_site_fract_z
_atom_type_partial_charge
C1    C     C_R   0.496323 0.200283 0.453693 0.872320
C2    C     C_R   0.503673 0.799716 0.546308 0.872318
C3    C     C_R   0.024877 0.210826 0.441246 -0.158128
C4    C     C_R   0.975123 0.789171 0.558751 -0.158129
C5    C     C_2   0.483043 0.032210 0.433192 0.109917
C6    C     C_2   0.516950 0.967790 0.566807 0.109913
C7    C     C_R   0.329482 0.498485 0.501178 0.867415
C8    C     C_R   0.670517 0.501513 0.498822 0.867427
C9    C     C_R   0.822392 0.648483 0.524974 0.277171
C10   C     C_R   0.177608 0.351514 0.475023 0.277172
C11   C     C_R   0.766940 0.504312 0.496115 -0.121082
C12   C     C_R   0.233060 0.495686 0.503884 -0.121076
C13   C     C_R   0.802975 0.360725 0.467311 -0.247417
C14   C     C_R   0.197025 0.639273 0.532689 -0.247416
C15   C     C_R   0.895765 0.358084 0.468117 0.113623
C16   C     C_R   0.104235 0.641913 0.531881 0.113624
C17   C     C_R   0.953040 0.501550 0.498921 0.024952
C18   C     C_R   0.046960 0.498447 0.501077 0.024951
C19   C     C_R   0.916504 0.647880 0.527577 0.056448
C20   C     C_R   0.083496 0.352117 0.472421 0.056449
C21   C     C_R   0.931989 0.214017 0.439189 -0.178330
C22   C     C_R   0.068011 0.785980 0.560809 -0.178329
Cu1   Cu    Cu3+1 0.510010 0.517380 0.684380 1.011429
Cu2   Cu    Cu3+1 0.489990 0.482620 0.315620 1.011424
H1    H     H_    0.758384 0.251109 0.445204 0.179745
H2    H     H_    0.241616 0.748889 0.554796 0.179738
H3    H     H_    0.888306 0.103426 0.414632 0.184446
H4    H     H_    0.111694 0.896571 0.585366 0.184445
H5    H     H_    0.049931 0.096843 0.417521 0.196087
H6    H     H_    0.950069 0.903154 0.582476 0.196087
N1    N     N_2   0.474890 0.456420 0.038520 -0.063049
N2    N     N_2   0.525110 0.543580 0.961480 -0.063043
O1    O     O_R   0.506510 0.286130 0.619770 -0.576637
O2    O     O_R   0.493490 0.713870 0.380230 -0.576630
O3    O     O_R   0.489600 0.256770 0.308360 -0.560090
O4    O     O_R   0.510400 0.743230 0.691640 -0.560079
O5    O     O_R   0.378710 0.514640 0.655720 -0.616288
O6    O     O_R   0.621290 0.485360 0.344280 -0.616294
O7    O     O_R   0.361800 0.485290 0.344300 -0.570859
O8    O     O_R   0.638200 0.514710 0.655700 -0.570862
Cl1   Cl    Cl    0.772553 0.827221 0.556367 -0.683073
Cl2   Cl    Cl    0.227447 0.172776 0.443626 -0.683082
Cl3   Cl    Cl    0.407219 0.925824 0.242136 -0.588804
Cl4   Cl    Cl    0.592783 0.074170 0.757837 -0.588817
C23   C     C_3   0.390599 0.369361 0.939890 -0.072691
C24   C     C_3   0.365026 0.214581 0.992580 -0.674534
H7    H     H_    0.422512 0.142799 0.981877 0.289821
H8    H     H_    0.341950 0.233808 0.129791 0.297625
H9    H     H_    0.307614 0.144805 0.896190 0.220133
H10   H     H_    0.335022 0.444965 0.961877 0.183796
H11   H     H_    0.395881 0.326881 0.795952 0.226054
C25   C     C_3   0.609404 0.630625 0.060106 -0.072643
C26   C     C_3   0.634993 0.785400 0.007408 -0.674555
H12   H     H_    0.658050 0.766173 0.870185 0.297630
H13   H     H_    0.577524 0.857219 0.018141 0.289800
H14   H     H_    0.692422 0.855148 0.103767 0.220133
H15   H     H_    0.604122 0.673117 0.204042 0.226052
H16   H     H_    0.664976 0.555005 0.038126 0.183792

loop_
_geom_bond_atom_site_label_1
_geom_bond_atom_site_label_2
_ccdc_geom_bond_type
Cu2   O6    S    
Cu1   Cu2   S    
C15   C17   A    
C10   C20   A    
Cu1   O5    S    
C10   Cl2   S    
C4    C22   A    
C9    Cl1   S    
N1    N2    D    
C9    C11   A    
Cu1   N2    S    
C2    O2    A    
C26   H13   S    
C17   C18   A    
C21   H3    S    
Cu2   N1    S    
C1    O1    A    
C3    C20   A    
C6    Cl4   S    
C26   H12   S    
C14   H2    S    
C11   C13   A    
C24   H9    S    
C13   H1    S    
C2    C6    S    
C10   C12   A    
C8    O6    A    
C8    C11   S    
C1    C5    S    
C23   H10   S    
C17   C19   A    
C12   C14   A    
C18   C20   A    
C13   C15   A    
C7    O5    A    
C5    C6    D    
C25   H16   S    
C14   C16   A    
C7    C12   S    
C3    C21   A    
Cu2   O3    S    
C25   H15   S    
C23   H11   S    
Cu1   O8    S    
C24   H8    S    
C15   C21   A    
Cu2   O7    S    
C25   C26   S    
C1    O3    A    
C16   C18   A    
Cu1   O4    S    
N1    C23   S    
C26   H14   S    
C2    O4    A    
C3    H5    S    
C7    O7    A    
C24   H7    S    
N2    C25   S    
C22   H4    S    
C8    O8    A    
C23   C24   S    
C4    C19   A    
C9    C19   A    
C4    H6    S    
C5    Cl3   S    
C16   C22   A    
Cu1   O1    S    
Cu2   O2    S    
