data_str_m3_o14_o14_f0_pcu.sym.27
_audit_creation_date              2012-12-10T17:41:00-0500
_audit_creation_method            fapswitch 2.2
_symmetry_space_group_name_H-M    P1
_symmetry_Int_Tables_number       1
_space_group_crystal_system       triclinic
_cell_length_a                    14.556844
_cell_length_b                    15.299155
_cell_length_c                    9.949359
_cell_angle_alpha                 90.922697
_cell_angle_beta                  90.333143
_cell_angle_gamma                 90.533044
_cell_volume                      2215.37338649

loop_
_atom_site_label
_atom_site_type_symbol
_atom_type_description
_atom_site_fract_x
_atom_site_fract_y
_atom_site_fract_z
_atom_type_partial_charge
C1    C     C_R   0.392699 0.870641 0.499536 0.883900
C2    C     C_R   0.382377 0.121386 0.500525 0.868616
C3    C     C_R   0.892700 0.370641 0.499536 0.883919
C4    C     C_R   0.882379 0.621389 0.500526 0.868620
C5    C     C_R   0.235516 0.175890 0.559318 -0.230943
C6    C     C_R   0.313420 0.753893 0.376875 -0.231862
C7    C     C_R   0.735522 0.675893 0.559345 -0.230916
C8    C     C_R   0.813418 0.253895 0.376876 -0.231865
C9    C     C_R   0.670899 0.740054 0.558410 -0.206415
C10   C     C_R   0.743328 0.193834 0.378178 -0.239022
C11   C     C_R   0.170901 0.240060 0.558408 -0.206395
C12   C     C_R   0.243331 0.693831 0.378176 -0.239014
C13   C     C_R   0.691619 0.819484 0.499203 -0.081307
C14   C     C_R   0.715565 0.158297 0.500145 -0.132916
C15   C     C_R   0.191627 0.319490 0.499209 -0.081311
C16   C     C_R   0.215566 0.658295 0.500145 -0.132920
C17   C     C_R   0.331828 0.039863 0.131028 0.259886
C18   C     C_R   0.831829 0.539866 0.131029 0.259886
C19   C     C_R   0.265532 0.083791 0.055125 -0.234059
C20   C     C_R   0.765535 0.583796 0.055126 -0.234058
C21   C     C_R   0.265634 0.074583 0.917015 -0.229245
C22   C     C_R   0.765635 0.574585 0.917017 -0.229248
C23   C     C_R   0.338108 0.032424 0.855440 -0.129864
C24   C     C_R   0.838108 0.532426 0.855441 -0.129869
C25   C     C_R   0.419847 0.016976 0.926135 0.130199
C26   C     C_R   0.919847 0.516977 0.926135 0.130203
C27   C     C_R   0.418510 0.018096 0.070539 0.115644
C28   C     C_R   0.918510 0.518097 0.070539 0.115646
C29   C     C_R   0.576712 0.982442 0.071782 -0.121705
C30   C     C_R   0.076712 0.482441 0.071782 -0.121705
C31   C     C_R   0.628786 0.111285 0.500735 0.843816
C32   C     C_R   0.621378 0.881978 0.499620 0.826128
C33   C     C_R   0.128786 0.611285 0.500735 0.843808
C34   C     C_R   0.121386 0.381985 0.499621 0.826121
C35   C     C_R   0.576608 0.982385 0.929090 -0.119266
C36   C     C_R   0.076607 0.482384 0.929090 -0.119270
C37   C     C_R   0.432980 0.289883 0.392331 -0.173457
C38   C     C_R   0.401841 0.742108 0.726687 -0.185963
C39   C     C_R   0.932979 0.789897 0.392351 -0.173447
C40   C     C_R   0.901844 0.242105 0.726683 -0.185967
C41   C     C_R   0.454048 0.371384 0.339037 -0.140748
C42   C     C_R   0.392771 0.687951 0.837205 -0.153962
C43   C     C_R   0.954054 0.871407 0.339088 -0.140752
C44   C     C_R   0.892778 0.187944 0.837197 -0.153962
C45   C     C_R   0.888148 0.936737 0.337935 -0.135314
C46   C     C_R   0.826641 0.121848 0.836247 -0.148862
C47   C     C_R   0.388148 0.436719 0.337892 -0.135306
C48   C     C_R   0.326634 0.621856 0.836256 -0.148863
C49   C     C_R   0.800952 0.920750 0.389979 -0.193248
C50   C     C_R   0.768747 0.110085 0.725251 -0.164978
C51   C     C_R   0.300960 0.420747 0.389973 -0.193253
C52   C     C_R   0.268744 0.610089 0.725256 -0.164976
C53   C     C_R   0.778250 0.838175 0.443359 0.092149
C54   C     C_R   0.773632 0.166917 0.614723 0.115762
C55   C     C_R   0.278257 0.338174 0.443358 0.092142
C56   C     C_R   0.273631 0.666918 0.614725 0.115760
C57   C     C_R   0.344597 0.272409 0.444569 0.096417
C58   C     C_R   0.341830 0.733083 0.614678 0.109304
C59   C     C_R   0.844593 0.772414 0.444573 0.096406
C60   C     C_R   0.841831 0.233082 0.614677 0.109306
C61   C     C_R   0.320619 0.191562 0.501467 -0.102756
C62   C     C_R   0.350000 0.784757 0.498266 -0.134268
C63   C     C_R   0.820619 0.691564 0.501474 -0.102769
C64   C     C_R   0.849999 0.284757 0.498266 -0.134267
H1    H     H_    0.218597 0.113147 0.602412 0.136643
H2    H     H_    0.332248 0.782164 0.282158 0.184545
H3    H     H_    0.718614 0.613159 0.602480 0.136653
H4    H     H_    0.832245 0.282166 0.282160 0.184547
H5    H     H_    0.205804 0.092905 0.859177 0.158270
H6    H     H_    0.705804 0.592907 0.859180 0.158265
H7    H     H_    0.327747 0.010700 0.753938 0.202729
H8    H     H_    0.827747 0.510701 0.753940 0.202726
H9    H     H_    0.639337 0.967467 0.876350 0.136029
H10   H     H_    0.139336 0.467465 0.876350 0.136028
H11   H     H_    0.486675 0.241580 0.393814 0.153930
H12   H     H_    0.459411 0.787079 0.727947 0.170552
H13   H     H_    0.986676 0.741598 0.393830 0.153916
H14   H     H_    0.959413 0.287077 0.727944 0.170552
H15   H     H_    0.521914 0.384080 0.299521 0.135489
H16   H     H_    0.439404 0.695321 0.921884 0.135759
H17   H     H_    0.021927 0.884116 0.299607 0.135487
H18   H     H_    0.939414 0.195310 0.921872 0.135760
H19   H     H_    0.904806 0.000196 0.297545 0.137542
H20   H     H_    0.822014 0.077788 0.920071 0.130781
H21   H     H_    0.404803 0.500170 0.297472 0.137534
H22   H     H_    0.322003 0.577800 0.920085 0.130777
H23   H     H_    0.752345 0.973707 0.389261 0.138256
H24   H     H_    0.724568 0.053216 0.724576 0.155481
H25   H     H_    0.252358 0.473708 0.389268 0.138242
H26   H     H_    0.224566 0.553220 0.724581 0.155479
H27   H     H_    0.603953 0.727339 0.601624 0.142138
H28   H     H_    0.707514 0.179859 0.284399 0.179349
H29   H     H_    0.103960 0.227351 0.601638 0.142146
H30   H     H_    0.207519 0.679853 0.284396 0.179347
H31   H     H_    0.639617 0.968345 0.125326 0.145283
H32   H     H_    0.139617 0.468344 0.125326 0.145283
H33   H     H_    0.203250 0.106821 0.102572 0.149058
H34   H     H_    0.703253 0.606827 0.102574 0.149058
N1    N     N_R   0.498810 0.000000 0.142780 -0.112705
N2    N     N_R   0.998810 0.500000 0.142780 -0.112705
N3    N     N_R   0.498740 0.000000 0.857170 -0.114979
N4    N     N_R   0.998740 0.500000 0.857170 -0.114978
O1    O     O_R   0.408390 0.908380 0.614690 -0.651399
O2    O     O_R   0.408390 0.091620 0.614690 -0.615580
O3    O     O_R   0.908390 0.408380 0.614690 -0.651396
O4    O     O_R   0.908390 0.591620 0.614690 -0.615583
O5    O     O_R   0.408370 0.908380 0.385360 -0.577626
O6    O     O_R   0.408370 0.091620 0.385360 -0.619898
O7    O     O_R   0.908370 0.408380 0.385360 -0.577626
O8    O     O_R   0.908370 0.591620 0.385360 -0.619890
O9    O     O_R   0.591620 0.091610 0.614640 -0.610600
O10   O     O_R   0.591620 0.908390 0.614640 -0.638711
O11   O     O_R   0.091620 0.591610 0.614640 -0.610603
O12   O     O_R   0.091620 0.408390 0.614640 -0.638716
O13   O     O_R   0.591610 0.091610 0.385310 -0.627254
O14   O     O_R   0.591610 0.908390 0.385310 -0.626086
O15   O     O_R   0.091610 0.591610 0.385310 -0.627249
O16   O     O_R   0.091610 0.408390 0.385310 -0.626077
Zn1   Zn    Zn3+2 0.500010 1.000000 0.653130 0.923095
Zn2   Zn    Zn3+2 0.000010 0.500000 0.653130 0.923094
Zn3   Zn    Zn3+2 0.499980 1.000000 0.346870 0.943212
Zn4   Zn    Zn3+2 0.999980 0.500000 0.346870 0.943218
N5    N     N_2   0.296597 0.995443 0.243926 -0.229792
H35   H     H_    0.263462 0.037248 0.309610 0.222302
C65   C     C_3   0.234088 0.924273 0.208140 -0.819529
H36   H     H_    0.212010 0.890511 0.300430 0.240814
H37   H     H_    0.267636 0.877365 0.138082 0.246317
H38   H     H_    0.170991 0.949320 0.159123 0.224917
N6    N     N_2   0.796597 0.495445 0.243925 -0.229791
H39   H     H_    0.763461 0.537249 0.309609 0.222306
C66   C     C_3   0.734090 0.424275 0.208136 -0.819526
H40   H     H_    0.712007 0.390515 0.300426 0.240815
H41   H     H_    0.767641 0.377367 0.138083 0.246315
H42   H     H_    0.670995 0.449321 0.159111 0.224916

loop_
_geom_bond_atom_site_label_1
_geom_bond_atom_site_label_2
_ccdc_geom_bond_type
C34   O16   A    
C58   C62   A    
O13   Zn3   S    
C49   H23   S    
C13   C32   S    
C52   H26   S    
O6    Zn3   S    
C66   H42   S    
C25   N3    A    
C1    C62   S    
C9    H27   S    
C26   N4    A    
C53   C59   A    
N5    H35   S    
C38   H12   S    
C3    C64   S    
C3    O3    A    
C42   H16   S    
C4    C63   S    
C27   N1    A    
C50   C54   A    
C6    H2    S    
C40   C60   A    
C39   H13   S    
C22   C24   A    
C36   N4    A    
C19   C21   A    
C24   C26   A    
C5    C11   A    
C44   H18   S    
C6    C12   A    
O7    Zn4   S    
N5    C65   S    
C30   N2    A    
C1    O1    A    
O9    Zn1   S    
O16   Zn4   S    
C9    C13   A    
C30   H32   S    
C38   C58   A    
C11   C15   A    
C17   N5    S    
C12   C16   A    
C65   H38   S    
O3    Zn2   S    
C45   C49   A    
C14   C31   S    
C15   C34   S    
N2    Zn4   S    
C2    C61   S    
C50   H24   S    
N1    Zn3   S    
O2    Zn1   S    
C28   N2    A    
C37   H11   S    
C10   H28   S    
C12   H30   S    
C45   H19   S    
C31   O13   A    
C44   C46   A    
C46   C50   A    
C13   C53   A    
C19   H33   S    
C33   O15   A    
O14   Zn3   S    
C29   N1    A    
N3    Zn1   S    
C23   H7    S    
C18   C28   A    
C5    H1    S    
C10   C14   A    
C29   H31   S    
C48   H22   S    
C39   C43   A    
C51   C55   A    
C35   N3    A    
C4    O4    A    
C60   C64   A    
C21   H5    S    
C17   C27   A    
O15   Zn4   S    
C16   C56   A    
C16   C33   S    
O11   Zn2   S    
C2    O2    A    
C39   C59   A    
C41   C47   A    
C5    C61   A    
C42   C48   A    
C32   O14   A    
C43   C45   A    
C7    C63   A    
C36   H10   S    
C8    C64   A    
C46   H20   S    
C14   C54   A    
C1    O5    A    
C8    H4    S    
C21   C23   A    
C65   H36   S    
C43   H17   S    
C40   H14   S    
C59   C63   A    
C34   O12   A    
O5    Zn3   S    
C40   C44   A    
C66   H40   S    
C47   H21   S    
N4    Zn2   S    
C24   H8    S    
N6    H39   S    
C7    C9    A    
C4    O8    A    
C35   H9    S    
C32   O10   A    
O4    Zn2   S    
C26   C28   A    
O1    Zn1   S    
C20   C22   A    
C66   H41   S    
C41   H15   S    
O10   Zn1   S    
C47   C51   A    
C57   C61   A    
C25   C27   A    
C29   C35   A    
C33   O11   A    
C30   C36   A    
C54   C60   A    
C6    C62   A    
C55   C57   A    
O8    Zn4   S    
C11   H29   S    
C3    O7    A    
C49   C53   A    
C2    O6    A    
C17   C19   A    
C56   C58   A    
C51   H25   S    
C18   C20   A    
C23   C25   A    
C37   C41   A    
C37   C57   A    
C7    H3    S    
C38   C42   A    
C48   C52   A    
C20   H34   S    
C8    C10   A    
C65   H37   S    
C31   O9    A    
C18   N6    S    
C22   H6    S    
O12   Zn2   S    
C52   C56   A    
C15   C55   A    
N6    C66   S    
