data_str_m2_o10_o18_f0_pcu.sym.32
_audit_creation_date              2012-10-26T19:59:11-0400
_audit_creation_method            fapswitch 2.2
_symmetry_space_group_name_H-M    P1
_symmetry_Int_Tables_number       1
_space_group_crystal_system       triclinic
_cell_length_a                    7.460486
_cell_length_b                    8.692189
_cell_length_c                    15.722372
_cell_angle_alpha                 94.253684
_cell_angle_beta                  74.896305
_cell_angle_gamma                 103.213544
_cell_volume                      958.167268097

loop_
_atom_site_label
_atom_site_type_symbol
_atom_type_description
_atom_site_fract_x
_atom_site_fract_y
_atom_site_fract_z
_atom_type_partial_charge
C1    C     C_R   0.545062 0.800067 0.502611 0.545031
C2    C     C_R   0.616293 0.513750 0.333732 0.556017
C3    C     C_R   0.312048 0.462118 0.761377 0.009300
C4    C     C_R   0.688182 0.542089 0.239019 0.023815
C5    C     C_R   0.090055 0.318450 0.885137 -0.114530
C6    C     C_R   0.907796 0.692382 0.116972 -0.113070
C7    C     C_R   0.143474 0.352835 0.795688 -0.090661
C8    C     C_R   0.854428 0.654837 0.205987 -0.092130
C9    C     C_R   0.428298 0.532259 0.816573 -0.070288
C10   C     C_R   0.572890 0.473067 0.183239 -0.071154
C11   C     C_R   0.394887 0.477538 0.902463 0.035353
C12   C     C_R   0.454919 0.199929 0.497409 0.553226
C13   C     C_R   0.605418 0.531405 0.098252 0.041154
C14   C     C_R   0.214277 0.380837 0.938809 0.007056
C15   C     C_R   0.784772 0.630215 0.062757 0.004681
C16   C     C_R   0.531467 0.520155 0.954051 -0.011292
C17   C     C_R   0.468761 0.490470 0.046785 -0.005273
C18   C     C_2   0.174971 0.438256 0.178904 0.540330
C19   C     C_2   0.828846 0.577762 0.822917 0.540427
C20   C     C_R   0.271834 0.422706 0.084196 0.044784
C21   C     C_R   0.728349 0.590096 0.917219 0.043918
C22   C     C_R   0.154476 0.355461 0.028924 -0.134179
C23   C     C_R   0.844255 0.658163 0.972948 -0.131145
C24   C     C_2   0.570306 0.968063 0.503852 -0.140601
C25   C     C_2   0.429645 0.031926 0.496192 -0.142722
C26   C     C_R   0.383783 0.487165 0.666328 0.540455
Cu1   Cu    Cu3+1 0.322120 0.483240 0.490330 0.979557
Cu2   Cu    Cu3+1 0.677880 0.516760 0.509670 0.995973
H1    H     H_    0.008522 0.295348 0.057158 0.146861
H2    H     H_    0.294140 0.960452 0.488981 0.135989
H3    H     H_    0.004359 0.617060 0.568177 0.240875
H4    H     H_    0.995883 0.383318 0.431558 0.253558
H5    H     H_    0.155547 0.571739 0.290187 0.346409
H6    H     H_    0.036612 0.678508 0.719936 0.335287
H7    H     H_    0.989577 0.720327 0.945253 0.154857
H8    H     H_    0.455572 0.375992 0.208294 0.139948
H9    H     H_    0.545829 0.628436 0.790539 0.141802
H10   H     H_    0.941872 0.714090 0.248908 0.152791
H11   H     H_    0.053741 0.294441 0.753491 0.172927
H12   H     H_    0.953622 0.240726 0.911990 0.129612
H13   H     H_    0.042879 0.772531 0.090974 0.131188
H14   H     H_    0.705808 0.039534 0.511067 0.141303
N1    N     N_2   0.945180 0.542040 0.524240 -0.249795
N2    N     N_2   0.054820 0.457960 0.475760 -0.261298
O1    O     O_R   0.384450 0.714270 0.493720 -0.510485
O2    O     O_R   0.229317 0.576319 0.226073 -0.704020
O3    O     O_2   0.787592 0.457265 0.780334 -0.525316
O4    O     O_R   0.976511 0.701774 0.783775 -0.716725
O5    O     O_R   0.615550 0.285730 0.506280 -0.497262
O6    O     O_R   0.684880 0.742590 0.510050 -0.501613
O7    O     O_R   0.315120 0.257410 0.489950 -0.494807
O8    O     O_R   0.265540 0.477900 0.617090 -0.506701
O9    O     O_R   0.734460 0.522100 0.382910 -0.503341
O10   O     O_R   0.565970 0.506210 0.633420 -0.467779
O11   O     O_R   0.434030 0.493790 0.366580 -0.488237
O12   O     O_2   0.044831 0.332258 0.215181 -0.540062

loop_
_geom_bond_atom_site_label_1
_geom_bond_atom_site_label_2
_ccdc_geom_bond_type
C2    C4    S    
N1    N2    D    
C16   C21   A    
C3    C9    A    
C22   H1    S    
C26   O8    A    
C24   H14   S    
C1    O6    A    
Cu2   N1    S    
C3    C7    A    
C18   O12   D    
C12   C25   S    
C4    C8    A    
Cu1   O1    S    
C15   C23   A    
C12   O5    A    
H4    N2    S    
Cu1   O8    S    
Cu2   O9    S    
H5    O2    S    
C9    C11   A    
C1    O1    A    
C5    C14   A    
C10   H8    S    
H3    N1    S    
C8    H10   S    
C6    C8    A    
C18   O2    S    
C9    H9    S    
C19   C21   S    
C20   C22   A    
C18   C20   S    
C2    O11   A    
C13   C15   A    
C21   C23   A    
C14   C22   A    
C23   H7    S    
C19   O3    D    
C11   C16   A    
H6    O4    S    
Cu1   O11   S    
C4    C10   A    
C13   C17   A    
C26   O10   A    
C25   H2    S    
C12   O7    A    
C24   C25   D    
C1    C24   S    
C17   C20   A    
Cu2   O5    S    
C5    H12   S    
C6    H13   S    
C11   C14   A    
C5    C7    A    
Cu2   O10   S    
C19   O4    S    
C7    H11   S    
C6    C15   A    
Cu2   O6    S    
Cu1   N2    S    
C10   C13   A    
C3    C26   S    
Cu1   O7    S    
C16   C17   A    
Cu1   Cu2   S    
C2    O9    A    
