data_str_m9_o10_o28_f0_sra.sym.147
_audit_creation_date              2012-12-11T14:06:40-0500
_audit_creation_method            fapswitch 2.2
_symmetry_space_group_name_H-M    P1
_symmetry_Int_Tables_number       1
_space_group_crystal_system       triclinic
_cell_length_a                    6.937427
_cell_length_b                    17.275133
_cell_length_c                    24.069957
_cell_angle_alpha                 104.451957
_cell_angle_beta                  90.50692
_cell_angle_gamma                 90.118598
_cell_volume                      2793.24809176

loop_
_atom_site_label
_atom_site_type_symbol
_atom_type_description
_atom_site_fract_x
_atom_site_fract_y
_atom_site_fract_z
_atom_type_partial_charge
O1    O     O_R   0.494290 0.391990 0.999150 -0.533879
O2    O     O_R   0.827170 0.534410 0.082350 -0.542299
O3    O     O_R   0.994360 0.608010 0.000850 -0.534259
C1    C     C_R   0.658655 0.548739 0.106087 0.699368
O4    O     O_R   0.824210 0.388010 0.004470 -0.547230
O5    O     O_R   0.991370 0.460560 0.922410 -0.536420
C2    C     C_R   0.654437 0.354913 0.001410 0.767288
O6    O     O_R   0.497270 0.539440 0.077590 -0.540306
O7    O     O_3   0.659770 0.523970 0.973170 -0.367097
V1    V     V_3+5 0.935840 0.495550 0.004980 1.380860
O8    O     O_R   0.320910 0.465590 0.917650 -0.537055
C3    C     C_R   0.151170 0.449697 0.894034 0.702462
O9    O     O_R   0.323870 0.611990 0.995530 -0.542928
C4    C     C_R   0.154406 0.644981 0.998161 0.777209
V2    V     V_3+5 0.435470 0.504450 0.995020 1.393160
O10   O     O_3   0.161670 0.476030 0.026830 -0.377465
C5    C     C_2   0.142518 0.730148 0.997552 -0.357622
H1    H     H_    0.276487 0.761030 0.993767 0.153180
C6    C     C_2   0.972826 0.769685 0.002076 -0.346017
H2    H     H_    0.838909 0.738831 0.005985 0.149215
C7    C     C_R   0.964366 0.270005 0.626926 0.545618
N1    N     N_R   0.052616 0.342620 0.648432 -0.550518
C8    C     C_R   0.117184 0.387198 0.612388 0.582921
C9    C     C_R   0.099580 0.357953 0.552282 -0.034742
C10   C     C_R   0.017188 0.281876 0.529668 -0.012668
C11   C     C_R   0.947180 0.237733 0.567174 -0.020923
C12   C     C_R   0.165371 0.402109 0.514298 -0.152908
C13   C     C_R   0.151447 0.370765 0.454845 -0.139174
C14   C     C_R   0.073750 0.294022 0.431820 -0.027427
C15   C     C_R   0.006648 0.249464 0.469428 -0.020909
C16   C     C_R   0.932013 0.171978 0.446958 -0.033419
C17   C     C_R   0.862424 0.128572 0.484837 -0.172842
C18   C     C_R   0.866474 0.161630 0.544102 -0.166208
C19   C     C_R   0.063910 0.260086 0.372086 0.571813
N2    N     N_R   0.996715 0.183428 0.350786 -0.542602
C20   C     C_R   0.930822 0.139467 0.387041 0.535806
O11   O     O_2   0.894439 0.228858 0.663240 -0.539052
O12   O     O_2   0.200696 0.458999 0.634489 -0.513625
H3    H     H_    0.228790 0.460894 0.530361 0.167625
H4    H     H_    0.204431 0.406447 0.427018 0.175175
O13   O     O_2   0.124297 0.302903 0.335668 -0.529079
O14   O     O_2   0.865551 0.064301 0.365311 -0.542751
C21   C     C_R   0.128012 0.090207 0.262284 0.112194
C22   C     C_R   0.119098 0.059546 0.202142 -0.223151
H5    H     H_    0.222033 0.014897 0.181135 0.124165
C23   C     C_R   0.974779 0.084108 0.168997 -0.065891
C24   C     C_R   0.841024 0.141532 0.196403 -0.205933
H6    H     H_    0.729364 0.161923 0.171749 0.129117
C25   C     C_R   0.852614 0.174691 0.255617 -0.155166
C26   C     C_R   0.993160 0.149104 0.289328 0.368128
C27   C     C_R   0.975231 0.434088 0.742171 -0.094874
H7    H     H_    0.868992 0.463334 0.721309 0.144188
C28   C     C_R   0.000652 0.459020 0.801750 -0.232889
C29   C     C_R   0.136057 0.421803 0.830415 -0.075973
C30   C     C_R   0.246891 0.357532 0.797690 0.032600
C31   C     C_R   0.219040 0.333179 0.737672 -0.118467
H8    H     H_    0.300595 0.283407 0.712477 0.128584
C32   C     C_R   0.083650 0.370831 0.709714 0.356187
C33   C     C_R   0.509054 0.874410 0.615481 0.547669
N3    N     N_R   0.508956 0.821622 0.649536 -0.558292
C34   C     C_R   0.528235 0.741283 0.626819 0.579588
C35   C     C_R   0.546962 0.710594 0.567364 -0.020071
C36   C     C_R   0.539808 0.763276 0.530933 -0.037418
C37   C     C_R   0.517875 0.846752 0.554523 -0.056273
C38   C     C_R   0.573302 0.628316 0.543706 -0.139001
C39   C     C_R   0.594885 0.598232 0.484738 -0.158098
C40   C     C_R   0.587348 0.649437 0.447739 -0.019822
C41   C     C_R   0.557343 0.731910 0.470783 -0.018304
C42   C     C_R   0.545866 0.782764 0.433644 -0.049277
C43   C     C_R   0.519890 0.864869 0.456581 -0.166487
C44   C     C_R   0.508105 0.898095 0.516072 0.068401
C45   C     C_R   0.610494 0.620033 0.388084 0.572709
N4    N     N_R   0.595639 0.670270 0.352100 -0.546598
C46   C     C_R   0.561139 0.750348 0.373942 0.574565
O15   O     O_2   0.503662 0.953050 0.641248 -0.534496
O16   O     O_2   0.529955 0.691201 0.661806 -0.511196
H9    H     H_    0.579162 0.586798 0.570778 0.179028
H10   H     H_    0.616629 0.534568 0.468259 0.168354
O17   O     O_2   0.649944 0.541904 0.366440 -0.524959
O18   O     O_2   0.539602 0.798613 0.338053 -0.531352
C47   C     C_R   0.749323 0.671236 0.259774 -0.117356
H11   H     H_    0.839757 0.720377 0.282584 0.148657
C48   C     C_R   0.765018 0.643409 0.199862 0.001853
C49   C     C_R   0.648730 0.577868 0.169827 -0.098453
C50   C     C_R   0.517240 0.542512 0.201783 0.009565
C51   C     C_R   0.499434 0.574907 0.261203 -0.127257
H12   H     H_    0.395936 0.549699 0.285303 0.147348
C52   C     C_R   0.615207 0.638533 0.290643 0.317322
C53   C     C_R   0.315359 0.877079 0.736036 -0.091990
H13   H     H_    0.186969 0.872201 0.709456 0.111891
C54   C     C_R   0.302067 0.908679 0.795495 -0.200519
H14   H     H_    0.162546 0.927387 0.813756 0.129548
C55   C     C_R   0.467695 0.916337 0.830733 -0.057647
C56   C     C_R   0.646186 0.891059 0.804942 -0.197669
H15   H     H_    0.776866 0.895668 0.830515 0.131626
C57   C     C_R   0.658774 0.859127 0.745714 -0.093615
H16   H     H_    0.797430 0.840487 0.726766 0.113804
C58   C     C_R   0.493777 0.851975 0.710883 0.396141
C59   C     C_2   0.642738 0.269747 0.001855 -0.351778
H17   H     H_    0.776713 0.239375 0.006434 0.150748
C60   C     C_2   0.473155 0.229761 0.996724 -0.351270
H18   H     H_    0.339225 0.260147 0.992098 0.147187
O19   O     O_R   0.618210 0.960470 0.922400 -0.540474
O20   O     O_R   0.291310 0.111960 0.995450 -0.545571
O21   O     O_R   0.124210 0.039530 0.077580 -0.537339
C61   C     C_R   0.461164 0.144913 0.998030 0.774906
O22   O     O_R   0.288310 0.965490 0.917650 -0.543038
O23   O     O_R   0.121180 0.892010 0.999220 -0.534801
C62   C     C_R   0.456667 0.949249 0.893999 0.705037
O24   O     O_R   0.621230 0.107990 0.000760 -0.535541
O25   O     O_3   0.455770 0.976060 0.026840 -0.370105
V3    V     V_3+5 0.179680 0.004440 0.995020 1.403477
O26   O     O_R   0.791670 0.888040 0.004570 -0.546365
C63   C     C_R   0.961039 0.854910 0.001605 0.774412
O27   O     O_R   0.794680 0.034510 0.082370 -0.540991
C64   C     C_R   0.964122 0.050772 0.105901 0.705797
V4    V     V_3+5 0.680070 0.995560 0.005010 1.404237
O28   O     O_3   0.953840 0.023940 0.973160 -0.372058
H19   H     H_    0.749398 0.219756 0.275686 0.136340
H20   H     H_    0.913427 0.507742 0.825745 0.138094
C65   C     C_3   0.384277 0.309309 0.824821 -0.382538
C66   C     C_3   0.594668 0.329321 0.814865 -0.266548
C67   C     C_3   0.732732 0.273792 0.835814 -0.712706
H21   H     H_    0.715101 0.280180 0.882478 0.210602
H22   H     H_    0.705087 0.210650 0.812458 0.235400
H23   H     H_    0.883582 0.289062 0.827866 0.220690
H24   H     H_    0.619748 0.322968 0.768379 0.215787
H25   H     H_    0.626466 0.392182 0.838199 0.204370
H26   H     H_    0.359044 0.318880 0.871493 0.171246
H27   H     H_    0.356472 0.244668 0.805600 0.182682
H28   H     H_    0.511140 0.904060 0.427808 0.166794
C68   C     C_3   0.490214 0.988359 0.535492 -0.309787
C69   C     C_3   0.286740 0.014624 0.556798 -0.257241
C70   C     C_3   0.289555 0.099979 0.594448 -0.694910
H29   H     H_    0.396569 0.106371 0.629919 0.256876
H30   H     H_    0.325518 0.142790 0.568427 0.217340
H31   H     H_    0.146005 0.114439 0.613943 0.235318
H32   H     H_    0.189227 0.011416 0.519364 0.180443
H33   H     H_    0.225177 0.974547 0.581733 0.219400
H34   H     H_    0.603741 0.012370 0.567977 0.208882
H35   H     H_    0.520907 0.016458 0.499701 0.136192
C71   C     C_3   0.898977 0.689498 0.170200 -0.360548
C72   C     C_3   0.110350 0.667493 0.177493 -0.277153
C73   C     C_3   0.247098 0.725923 0.159486 -0.730264
H36   H     H_    0.219011 0.727054 0.114318 0.214523
H37   H     H_    0.228363 0.787073 0.187492 0.231299
H38   H     H_    0.398424 0.707376 0.163500 0.219021
H39   H     H_    0.141964 0.668572 0.223051 0.200254
H40   H     H_    0.137754 0.606125 0.150917 0.202645
H41   H     H_    0.863555 0.680148 0.123970 0.170333
H42   H     H_    0.878021 0.754532 0.189276 0.183325
C74   C     C_3   0.399158 0.468102 0.175277 -0.361600
C75   C     C_3   0.526741 0.393474 0.160905 -0.278924
C76   C     C_3   0.405321 0.317541 0.141684 -0.747091
H43   H     H_    0.311991 0.309916 0.177237 0.240678
H44   H     H_    0.313190 0.320481 0.104306 0.227561
H45   H     H_    0.501417 0.264834 0.129187 0.208611
H46   H     H_    0.628296 0.396876 0.126213 0.175392
H47   H     H_    0.612610 0.389879 0.199415 0.214705
H48   H     H_    0.286672 0.459122 0.205773 0.181400
H49   H     H_    0.318424 0.474550 0.136837 0.192109
H50   H     H_    0.805477 0.068742 0.468738 0.153469
H51   H     H_    0.811454 0.126425 0.571915 0.157623
C77   C     C_3   0.277543 0.057485 0.296627 -0.343436
C78   C     C_3   0.427078 0.120916 0.326090 -0.295121
C79   C     C_3   0.447444 0.126146 0.390225 -0.680272
H52   H     H_    0.307565 0.138106 0.412067 0.211443
H53   H     H_    0.504599 0.069240 0.397078 0.246203
H54   H     H_    0.545739 0.176123 0.410346 0.215466
H55   H     H_    0.569032 0.104729 0.305769 0.218404
H56   H     H_    0.391380 0.180994 0.320216 0.211684
H57   H     H_    0.203256 0.030977 0.328142 0.222830
H58   H     H_    0.355913 0.006789 0.268313 0.161222

loop_
_geom_bond_atom_site_label_1
_geom_bond_atom_site_label_2
_ccdc_geom_bond_type
C78   H56   S    
C33   N3    A    
C30   C31   A    
C30   C65   S    
C78   C79   S    
N4    C46   A    
O21   C64   A    
C20   O14   S    
N2    C20   A    
C9    C12   A    
C65   H27   S    
C1    O6    A    
C70   H31   S    
C74   H48   S    
C47   H11   S    
C28   H20   S    
C67   H21   S    
C24   C25   A    
C25   H19   S    
C28   C29   A    
C33   C37   A    
C55   C56   A    
C2    C59   S    
C48   C49   A    
C77   C78   S    
C18   H51   S    
C19   N2    A    
C45   O17   S    
N3    C58   S    
O5    C3    A    
C15   C16   A    
C51   C52   A    
C67   H22   S    
C13   H4    S    
C72   C73   S    
C75   H46   S    
C31   H8    S    
C40   C45   A    
O22   V3    S    
C37   C44   A    
O23   C63   A    
C66   H24   S    
O1    C2    A    
C44   C68   S    
C23   C24   A    
O8    V2    S    
C56   H15   S    
O25   V3    S    
C12   H3    S    
C41   C42   A    
O27   V4    S    
C17   H50   S    
C24   H6    S    
C8    C9    A    
C43   C44   A    
O1    V2    S    
C53   C54   A    
O7    V1    S    
C76   H44   S    
C74   H49   S    
C21   C77   S    
C34   C35   A    
C39   C40   A    
C69   H32   S    
O19   C62   A    
C46   O18   S    
O9    C4    A    
C78   H55   S    
C79   H53   S    
O22   C62   A    
C4    C5    S    
O19   V4    S    
C19   O13   S    
N2    C26   S    
C73   H38   S    
O24   V4    S    
O20   C61   A    
C47   C48   A    
C7    C11   A    
C22   C23   A    
C34   O16   S    
C72   H39   S    
C39   H10   S    
C38   H9    S    
C27   H7    S    
C60   H18   S    
C77   H58   S    
C49   C50   A    
C76   H45   S    
C73   H37   S    
C54   H14   S    
O20   V3    S    
C51   H12   S    
C73   H36   S    
C67   H23   S    
C70   H30   S    
C6    C63   S    
C10   C11   A    
C50   C51   A    
C14   C19   A    
C40   C41   A    
C57   C58   A    
N3    C34   A    
C27   C28   A    
C71   H42   S    
C75   H47   S    
O2    C1    A    
C21   C22   A    
N4    C52   S    
O5    V1    S    
C14   C15   A    
C54   C55   A    
C11   C18   A    
C16   C17   A    
C1    C49   S    
C57   H16   S    
C35   C36   A    
C5    H1    S    
C65   C66   S    
C42   C46   A    
C27   C32   A    
C9    C10   A    
C56   C57   A    
C76   H43   S    
O3    C4    A    
O26   V4    S    
C59   C60   D    
O21   V3    S    
C69   H33   S    
O6    V2    S    
O9    V2    S    
C69   C70   S    
C77   H57   S    
C68   H35   S    
O2    V1    S    
C33   O15   S    
C60   C61   S    
C22   H5    S    
O4    C2    A    
O26   C63   A    
C61   O24   A    
C10   C15   A    
C29   C30   A    
C13   C14   A    
C35   C38   A    
C16   C20   A    
C65   H26   S    
C45   N4    A    
N1    C32   S    
C48   C71   S    
O8    C3    A    
C21   C26   A    
C66   C67   S    
C70   H29   S    
C68   H34   S    
C8    O12   S    
C36   C41   A    
C59   H17   S    
C23   C64   S    
C53   C58   A    
O25   V4    S    
C17   C18   A    
C71   H41   S    
C6    H2    S    
C53   H13   S    
C50   C74   S    
O4    V1    S    
O3    V1    S    
V1    O10   S    
V4    O28   S    
V3    O28   S    
O27   C64   A    
C79   H52   S    
C43   H28   S    
C5    C6    D    
C31   C32   A    
C68   C69   S    
C38   C39   A    
C66   H25   S    
C42   C43   A    
C47   C52   A    
C36   C37   A    
O23   V3    S    
C72   H40   S    
C7    O11   S    
C74   C75   S    
C79   H54   S    
C25   C26   A    
C12   C13   A    
C71   C72   S    
N1    C8    A    
C75   C76   S    
C7    N1    A    
C3    C29   S    
V2    O10   S    
O7    V2    S    
C55   C62   S    
