data_str_m9_o16_o23_f0_sra.sym.29
_audit_creation_date              2013-03-05T15:48:44-0500
_audit_creation_method            fapswitch 2.2
_symmetry_space_group_name_H-M    P1
_symmetry_Int_Tables_number       1
_space_group_crystal_system       triclinic
_cell_length_a                    22.338904
_cell_length_b                    6.963807
_cell_length_c                    19.37269
_cell_angle_alpha                 89.941566
_cell_angle_beta                  99.213276
_cell_angle_gamma                 90.030733
_cell_volume                      2974.80879479

loop_
_atom_site_label
_atom_site_type_symbol
_atom_site_description
_atom_site_fract_x
_atom_site_fract_y
_atom_site_fract_z
_atom_type_partial_charge
O1    O     O_R   0.448420 0.506120 0.415750 -0.587190
O2    O     O_R   0.551580 0.006120 0.584250 -0.587158
O3    O     O_R   0.436490 0.174470 0.555610 -0.589442
O4    O     O_R   0.563510 0.674470 0.444390 -0.588840
C1    C     C_R   0.421152 0.344571 0.575785 0.967389
C2    C     C_R   0.578876 0.844788 0.424280 0.967455
O5    O     O_R   0.441310 0.176330 0.414520 -0.588192
O6    O     O_R   0.558690 0.676330 0.585480 -0.588099
O7    O     O_R   0.556430 0.007110 0.442150 -0.588293
O8    O     O_R   0.443570 0.507110 0.557850 -0.588382
C3    C     C_R   0.426863 0.345089 0.388370 0.924199
C4    C     C_R   0.573161 0.844988 0.611607 0.923288
O9    O     O_3   0.537770 0.339560 0.509230 -0.270704
O10   O     O_3   0.462230 0.839560 0.490770 -0.271083
V1    V     V_3+5 0.492990 0.064280 0.498290 1.169879
V2    V     V_3+5 0.507010 0.564280 0.501710 1.170307
C5    C     C_R   0.867021 0.977783 0.695679 -0.171238
C6    C     C_R   0.132845 0.473668 0.304388 -0.169815
H1    H     H_    0.954202 0.004717 0.759728 0.108829
H2    H     H_    0.045647 0.500417 0.240355 0.124264
H3    H     H_    0.784718 0.974322 0.580912 0.134094
H4    H     H_    0.215075 0.468385 0.419202 0.130625
H5    H     H_    0.885382 0.005196 0.648102 0.117173
H6    H     H_    0.114407 0.499134 0.352024 0.119635
C7    C     C_R   0.884479 0.941522 0.821523 -0.096183
C8    C     C_R   0.115530 0.440986 0.178447 -0.108402
C9    C     C_R   0.590067 0.817445 0.739819 -0.159856
C10   C     C_R   0.410073 0.320373 0.260078 -0.172060
C11   C     C_R   0.626714 0.815458 0.804954 -0.069086
C12   C     C_R   0.373476 0.319623 0.194903 -0.053723
C13   C     C_R   0.688998 0.845932 0.811004 -0.167099
C14   C     C_R   0.311150 0.349056 0.188867 -0.153839
C15   C     C_R   0.716615 0.879991 0.751317 0.084024
C16   C     C_R   0.283439 0.380717 0.248616 0.072406
C17   C     C_R   0.678434 0.883701 0.684353 0.104807
C18   C     C_R   0.321563 0.383087 0.315625 0.107726
C19   C     C_R   0.780729 0.910176 0.755862 0.087292
C20   C     C_R   0.219285 0.409831 0.244094 0.088814
C21   C     C_R   0.804698 0.945108 0.693315 0.183391
C22   C     C_R   0.195219 0.442290 0.306712 0.183130
C23   C     C_R   0.766466 0.948044 0.628649 -0.230326
C24   C     C_R   0.233400 0.443982 0.371415 -0.231374
C25   C     C_R   0.704475 0.917506 0.624114 -0.207565
C26   C     C_R   0.295431 0.414548 0.375924 -0.206469
C27   C     C_R   0.822152 0.907770 0.820025 -0.230715
C28   C     C_R   0.177912 0.408623 0.179894 -0.227061
C29   C     C_R   0.906387 0.977122 0.759181 -0.168381
C30   C     C_R   0.093516 0.474052 0.240862 -0.155172
C31   C     C_R   0.614892 0.851740 0.679164 -0.178328
C32   C     C_R   0.385148 0.352281 0.320796 -0.176204
H7    H     H_    0.807567 0.882421 0.869639 0.110212
H8    H     H_    0.192568 0.385087 0.130227 0.122581
H9    H     H_    0.541852 0.791662 0.736649 0.117308
H10   H     H_    0.458329 0.295596 0.263226 0.118006
H11   H     H_    0.714226 0.841745 0.863227 0.127344
H12   H     H_    0.285971 0.346021 0.136606 0.150675
H13   H     H_    0.606650 0.789133 0.851386 0.135138
H14   H     H_    0.393613 0.295176 0.148420 0.147088
H15   H     H_    0.676983 0.920974 0.572740 0.112822
H16   H     H_    0.322879 0.416975 0.427330 0.110928
C33   C     C_3   0.783811 0.708031 0.229426 -0.444173
C34   C     C_3   0.187949 0.277408 0.732914 -0.552469
C35   C     C_3   0.809811 0.033550 0.275708 0.390456
C36   C     C_3   0.222064 0.613081 0.761039 0.365870
C37   C     C_3   0.758331 0.032627 0.321313 -0.471935
C38   C     C_3   0.273206 0.595733 0.715207 -0.474410
H17   H     H_    0.762642 0.638119 0.333458 0.180001
H18   H     H_    0.213932 0.314532 0.629128 0.161376
H19   H     H_    0.828987 0.655171 0.254542 0.231565
H20   H     H_    0.143912 0.329109 0.703714 0.176259
H21   H     H_    0.850216 0.961989 0.306145 0.080513
H22   H     H_    0.179617 0.657952 0.726579 0.065292
H23   H     H_    0.777851 0.994684 0.376123 0.144994
H24   H     H_    0.256706 0.656183 0.662383 0.137430
H25   H     H_    0.738012 0.178255 0.322548 0.212991
H26   H     H_    0.313513 0.681801 0.738079 0.216141
C39   C     C_1   0.624594 0.855544 0.378830 -0.287815
C40   C     C_1   0.375564 0.354549 0.621452 -0.286724
C41   C     C_3   0.790266 0.919057 0.206556 -0.005742
C42   C     C_3   0.210628 0.415494 0.794703 0.084516
C43   C     C_3   0.738290 0.690267 0.282251 -0.346920
C44   C     C_3   0.234931 0.262686 0.681819 -0.376764
C45   C     C_3   0.708055 0.886596 0.292188 0.247442
C46   C     C_3   0.292417 0.382996 0.708618 0.296751
C47   C     C_3   0.677734 0.958639 0.219184 -0.494757
C48   C     C_3   0.319160 0.309694 0.782755 -0.489076
C49   C     C_3   0.726022 0.985042 0.169058 0.303247
C50   C     C_3   0.271868 0.331325 0.834165 0.265719
C51   C     C_1   0.662329 0.868186 0.340190 -0.009603
C52   C     C_1   0.337967 0.366050 0.660318 -0.025192
C53   C     C_1   0.837039 0.930235 0.159346 0.121655
C54   C     C_1   0.163426 0.429676 0.841227 0.095416
C55   C     C_1   0.875202 0.939637 0.121143 -0.205440
C56   C     C_1   0.125013 0.440056 0.879085 -0.215405
H27   H     H_    0.712243 0.887882 0.123611 0.068299
H28   H     H_    0.262484 0.184452 0.852059 0.147218
H29   H     H_    0.643319 0.851614 0.195845 0.165839
H30   H     H_    0.331461 0.155364 0.779606 0.183167
H31   H     H_    0.768737 0.616757 0.182853 0.265114
H32   H     H_    0.179394 0.132278 0.753169 0.234532
H33   H     H_    0.703011 0.581790 0.263118 0.219111
H34   H     H_    0.247530 0.109481 0.676265 0.184870
H35   H     H_    0.651927 0.091765 0.225576 0.212198
H36   H     H_    0.362359 0.385971 0.801344 0.211038
O11   O     O_R   0.056480 0.288780 0.942210 -0.591356
O12   O     O_R   0.943520 0.788780 0.057790 -0.592626
O13   O     O_R   0.058700 0.616820 0.085490 -0.589202
O14   O     O_R   0.941300 0.116820 0.914510 -0.591722
C57   C     C_R   0.073179 0.448362 0.111663 0.939000
C58   C     C_R   0.926832 0.948472 0.888321 0.923148
O15   O     O_R   0.063520 0.618570 0.944410 -0.579734
O16   O     O_R   0.936480 0.118570 0.055590 -0.571221
O17   O     O_R   0.948420 0.787670 0.915740 -0.592414
O18   O     O_R   0.051580 0.287670 0.084260 -0.588526
C59   C     C_R   0.078947 0.449897 0.924116 0.963004
C60   C     C_R   0.921076 0.949720 0.075891 0.959732
O19   O     O_3   0.962260 0.453430 0.990800 -0.268575
O20   O     O_3   0.037740 0.953430 0.009200 -0.266883
V3    V     V_3+5 0.007000 0.728750 0.001710 1.195532
V4    V     V_3+5 0.993000 0.228750 0.998290 1.199596
Cl1   Cl    Cl    0.834724 0.271086 0.261532 -0.697172
Cl2   Cl    Cl    0.238215 0.801298 0.824061 -0.671350
N1    N     N_R   0.727213 0.181115 0.140679 0.268286
O21   O     O_R   0.753914 0.212275 0.086753 -0.393950
O22   O     O_R   0.697025 0.320955 0.163347 -0.425082
N2    N     N_R   0.295527 0.441900 0.897455 0.274052
O23   O     O_R   0.271108 0.419474 0.953573 -0.384226
O24   O     O_R   0.342565 0.553820 0.900312 -0.341452

loop_
_geom_bond_atom_site_label_1
_geom_bond_atom_site_label_2
_geom_bond_distance
_ccdc_geom_bond_type
C20   C22   1.421685 A    
C50   H28   1.110201 S    
O4    V2    1.964929 S    
N2    O23   1.301294 A    
O12   V3    1.964918 S    
C9    C11   1.389881 A    
C36   C42   1.560442 S    
O14   V4    1.994251 S    
O1    C3    1.299841 A    
C48   H36   1.109798 S    
C2    O7    1.306151 A    
C35   C37   1.558348 S    
C4    C31   1.481063 S    
O3    V1    1.966340 S    
N1    O21   1.301210 A    
C21   C23   1.398788 A    
C35   C41   1.560609 S    
C40   C52   1.217116 T    
O5    C3    1.299514 A    
C39   C51   1.216755 T    
C5    H5    1.083895 S    
C46   C52   1.493361 S    
C6    H6    1.083894 S    
C34   C42   1.556216 S    
C46   C48   1.550591 S    
O19   V3    2.156532 S    
C48   C50   1.571011 S    
C37   C45   1.552701 S    
C27   H7    1.077511 S    
C38   H24   1.113019 S    
C28   H8    1.077555 S    
C37   H23   1.112962 S    
C34   H20   1.113177 S    
O15   V3    1.966380 S    
C5    C21   1.404083 A    
O13   V3    1.993441 S    
C6    C22   1.404105 A    
O20   V3    1.705307 S    
C50   N2    1.472949 S    
C35   Cl1   1.780005 S    
O17   V3    1.988939 S    
C10   C32   1.397638 A    
C49   H27   1.114404 S    
C17   C31   1.424251 A    
C13   C15   1.414766 A    
O11   V4    1.964121 S    
C12   C14   1.393660 A    
C17   C25   1.404411 A    
C7    C29   1.395754 A    
C41   C53   1.496677 S    
C47   H35   1.109413 S    
C8    C30   1.395709 A    
C22   C24   1.398742 A    
C34   C44   1.557181 S    
O2    C4    1.299970 A    
O6    V2    1.994239 S    
C42   C50   1.569890 S    
C23   C25   1.389750 A    
C33   H31   1.111350 S    
C24   C26   1.389709 A    
C41   C49   1.569932 S    
C43   C45   1.551014 S    
C47   C49   1.573280 S    
C45   C51   1.492796 S    
C47   H29   1.113431 S    
O4    C2    1.310649 A    
H3    C23   1.084114 S    
O19   V4    1.705711 S    
O16   V4    1.964969 S    
C10   H10   1.083834 S    
C2    C39   1.453144 S    
C43   H33   1.111534 S    
C15   C19   1.436185 A    
O12   C60   1.299279 A    
C55   C60   1.452958 S    
C36   C38   1.559896 S    
C42   C54   1.496180 S    
C53   C55   1.216836 T    
C8    C57   1.476334 S    
O6    C4    1.299441 A    
C38   H26   1.112889 S    
C54   C56   1.217025 T    
C44   H34   1.113234 S    
H1    C29   1.083558 S    
O1    V2    1.988239 S    
C26   H16   1.082835 S    
O2    V1    1.987834 S    
C58   O17   1.298454 A    
H2    C30   1.083575 S    
C57   O18   1.298251 A    
C34   H32   1.111266 S    
C7    C58   1.476523 S    
C45   C47   1.550112 S    
C35   H21   1.113645 S    
H17   C43   1.112904 S    
C44   C46   1.551387 S    
O9    V1    2.156699 S    
O10   V2    2.157269 S    
C18   C26   1.404412 A    
C19   C27   1.425911 A    
C7    C27   1.407605 A    
O16   C60   1.302937 A    
C18   C32   1.424216 A    
C33   H19   1.110624 S    
N2    O24   1.302000 A    
C16   C20   1.436196 A    
O11   C59   1.299442 A    
C5    C29   1.392955 A    
C11   H13   1.082726 S    
O3    C1    1.310566 A    
C6    C30   1.392915 A    
C56   C59   1.453405 S    
C9    H9    1.083839 S    
C25   H15   1.082834 S    
C37   H25   1.113135 S    
H18   C44   1.112856 S    
C10   C12   1.389994 A    
O7    V1    1.960812 S    
C1    O8    1.306520 A    
C11   C13   1.393629 A    
C3    C32   1.481184 S    
C33   C43   1.558682 S    
C49   N1    1.473248 S    
O13   C57   1.297910 A    
O8    V2    1.960050 S    
C33   C41   1.547752 S    
C36   Cl2   1.788978 S    
C12   H14   1.082746 S    
O5    V1    1.993427 S    
C15   C17   1.434121 A    
O14   C58   1.297901 A    
C16   C18   1.434136 A    
C36   H22   1.113396 S    
C48   H30   1.113592 S    
O20   V4    2.157101 S    
C20   C28   1.425844 A    
N1    O22   1.300905 A    
C8    C28   1.407613 A    
C38   C46   1.553638 S    
C19   C21   1.421653 A    
O9    V2    1.706153 S    
H4    C24   1.084103 S    
O10   V1    1.705749 S    
O15   C59   1.302993 A    
C13   H11   1.076741 S    
C1    C40   1.453742 S    
C14   H12   1.076812 S    
O18   V4    1.989351 S    
C9    C31   1.397602 A    
C14   C16   1.414830 A    
