data_str_m9_o18_o19_f0_sra.sym.68
_audit_creation_date              2012-12-11T15:27:41-0500
_audit_creation_method            fapswitch 2.2
_symmetry_space_group_name_H-M    P1
_symmetry_Int_Tables_number       1
_space_group_crystal_system       triclinic
_cell_length_a                    23.141071
_cell_length_b                    7.294419
_cell_length_c                    15.128619
_cell_angle_alpha                 90.012785
_cell_angle_beta                  107.912467
_cell_angle_gamma                 89.984099
_cell_volume                      2429.93564208

loop_
_atom_site_label
_atom_site_type_symbol
_atom_type_description
_atom_site_fract_x
_atom_site_fract_y
_atom_site_fract_z
_atom_type_partial_charge
O1    O     O_R   0.711000 0.648610 0.341170 -0.541771
O2    O     O_R   0.289000 0.351390 0.658830 -0.527531
O3    O     O_R   0.789000 0.148610 0.158830 -0.541619
O4    O     O_R   0.211000 0.851390 0.841170 -0.527137
O5    O     O_R   0.829650 0.322030 0.336650 -0.539254
O6    O     O_R   0.170350 0.677970 0.663350 -0.531956
O7    O     O_R   0.670350 0.822030 0.163350 -0.539396
O8    O     O_R   0.329650 0.177970 0.836650 -0.532057
C1    C     C_R   0.854308 0.485805 0.356727 0.711881
C2    C     C_R   0.145683 0.514181 0.643306 0.713090
C3    C     C_R   0.645693 0.985824 0.143271 0.712179
C4    C     C_R   0.354318 0.014163 0.856692 0.712817
O9    O     O_R   0.713950 0.319280 0.352070 -0.531754
O10   O     O_R   0.286050 0.680720 0.647930 -0.546298
O11   O     O_R   0.786050 0.819280 0.147930 -0.532136
O12   O     O_R   0.213950 0.180720 0.852070 -0.546451
O13   O     O_R   0.672470 0.142870 0.174360 -0.526963
O14   O     O_R   0.327530 0.857130 0.825640 -0.534490
O15   O     O_R   0.827530 0.642870 0.325640 -0.527047
O16   O     O_R   0.172470 0.357130 0.674360 -0.534636
C5    C     C_R   0.701597 0.487781 0.375959 0.749978
C6    C     C_R   0.298410 0.512700 0.624039 0.749992
C7    C     C_R   0.798409 0.987720 0.124050 0.750251
C8    C     C_R   0.201594 0.012759 0.875972 0.749700
O17   O     O_3   0.736530 0.478650 0.191680 -0.381877
O18   O     O_3   0.263470 0.521350 0.808320 -0.381882
O19   O     O_3   0.763470 0.978650 0.308320 -0.381790
O20   O     O_3   0.236530 0.021350 0.691680 -0.381992
V1    V     V_3+5 0.752500 0.206170 0.260820 1.464955
V2    V     V_3+5 0.247500 0.793830 0.739180 1.463845
V3    V     V_3+5 0.747500 0.706170 0.239180 1.464179
V4    V     V_3+5 0.252500 0.293830 0.760820 1.463227
C9    C     C_R   0.827848 0.000655 0.051539 -0.072680
C10   C     C_R   0.172301 0.009303 0.948877 -0.072507
C11   C     C_R   0.672196 0.501028 0.448516 -0.072890
C12   C     C_R   0.327748 0.508941 0.551199 -0.072345
C13   C     C_R   0.823525 0.095311 0.896660 -0.147392
C14   C     C_R   0.177438 0.072956 0.107797 -0.148017
C15   C     C_R   0.676306 0.599143 0.602826 -0.147428
C16   C     C_R   0.322446 0.568995 0.391902 -0.147933
C17   C     C_R   0.794722 0.065273 0.963653 -0.261872
C18   C     C_R   0.205992 0.056199 0.039621 -0.262458
C19   C     C_R   0.705167 0.567948 0.536001 -0.261516
C20   C     C_R   0.293931 0.553424 0.460183 -0.262815
C21   C     C_R   0.890331 0.967065 0.073115 0.350014
C22   C     C_R   0.109501 0.980113 0.925730 0.349429
C23   C     C_R   0.609804 0.466209 0.427190 0.350085
C24   C     C_R   0.390622 0.481056 0.574530 0.349349
C25   C     C_R   0.921744 0.029609 0.011162 -0.024144
C26   C     C_R   0.078656 0.030595 0.990489 -0.024473
C27   C     C_R   0.578242 0.529893 0.488753 -0.024277
C28   C     C_R   0.421334 0.530310 0.509444 -0.024370
C29   C     C_R   0.886798 0.078778 0.919753 0.059236
C30   C     C_R   0.114017 0.061537 0.083941 0.059694
C31   C     C_R   0.613075 0.581521 0.579843 0.059242
C32   C     C_R   0.385895 0.558719 0.415810 0.059673
C33   C     C_R   0.986146 0.049223 0.036984 -0.037638
C34   C     C_R   0.014491 0.055842 0.965740 -0.038044
C35   C     C_R   0.513795 0.548423 0.462808 -0.037581
C36   C     C_R   0.485440 0.556613 0.534008 -0.038140
C37   C     C_R   0.978541 0.110059 0.874959 0.285573
C38   C     C_R   0.022569 0.085436 0.130016 0.285142
C39   C     C_R   0.521267 0.613295 0.624427 0.285635
C40   C     C_R   0.477285 0.582108 0.369552 0.285124
C41   C     C_R   0.915402 0.120302 0.853491 -0.253177
C42   C     C_R   0.085787 0.090567 0.151934 -0.253483
C43   C     C_R   0.584380 0.624469 0.645831 -0.253109
C44   C     C_R   0.414054 0.586293 0.347621 -0.253520
H1    H     H_    0.888585 0.165587 0.784842 0.121879
H2    H     H_    0.113012 0.122207 0.222513 0.121819
H3    H     H_    0.611096 0.671630 0.714180 0.121866
H4    H     H_    0.386753 0.615999 0.276846 0.121814
H5    H     H_    0.254559 0.078000 0.057735 0.123218
H6    H     H_    0.746382 0.090358 0.946712 0.123605
H7    H     H_    0.245303 0.574106 0.441932 0.123096
H8    H     H_    0.753433 0.594085 0.552748 0.123759
H9    H     H_    0.796640 0.139313 0.827874 0.126375
H10   H     H_    0.204704 0.103241 0.178462 0.126412
H11   H     H_    0.703090 0.645023 0.671324 0.126387
H12   H     H_    0.295101 0.597326 0.321051 0.126397
C45   C     C_1   0.416810 0.006824 0.918609 -0.178565
C46   C     C_1   0.583216 0.993066 0.081294 -0.181474
C47   C     C_1   0.083192 0.506868 0.581385 -0.178992
C48   C     C_1   0.916786 0.493018 0.418700 -0.181184
C49   C     C_1   0.469173 0.002231 0.969861 0.007802
C50   C     C_1   0.530856 0.997528 0.030023 0.006292
C51   C     C_1   0.030828 0.502251 0.530132 0.007642
C52   C     C_1   0.969146 0.497502 0.469970 0.006574
O21   O     O_3   0.080785 0.895582 0.842006 -0.638513
H13   H     H_    0.044101 0.832468 0.847417 0.285439
O22   O     O_3   0.918095 0.866520 0.152171 -0.638780
H14   H     H_    0.954106 0.804492 0.143592 0.285815
O23   O     O_3   0.419550 0.398724 0.658771 -0.638680
H15   H     H_    0.456382 0.335848 0.653746 0.285390
O24   O     O_3   0.582279 0.363620 0.348761 -0.638592
H16   H     H_    0.546412 0.301467 0.357726 0.285905
N1    N     N_2   0.005454 0.178937 0.808593 -0.486733
H17   H     H_    0.978979 0.162427 0.740416 0.258269
C53   C     C_3   0.029576 0.362941 0.827202 -0.495769
H18   H     H_    0.992305 0.461983 0.822963 0.176561
H19   H     H_    0.052193 0.401346 0.774901 0.198522
H20   H     H_    0.063753 0.371325 0.897113 0.201087
N2    N     N_2   0.996312 0.141921 0.199413 -0.487696
H21   H     H_    0.022517 0.112481 0.266483 0.258071
C54   C     C_3   0.974171 0.328807 0.189800 -0.492320
H22   H     H_    0.951755 0.357355 0.243540 0.197266
H23   H     H_    0.940278 0.350714 0.120530 0.201328
H24   H     H_    0.012513 0.426208 0.199075 0.177858
N3    N     N_2   0.494198 0.683591 0.690340 -0.486638
H25   H     H_    0.520703 0.668936 0.758619 0.258294
C55   C     C_3   0.469675 0.866952 0.670539 -0.495781
H26   H     H_    0.506736 0.966360 0.674199 0.176352
H27   H     H_    0.446932 0.906410 0.722544 0.198586
H28   H     H_    0.435514 0.873433 0.600551 0.201073
N4    N     N_2   0.503408 0.637050 0.299778 -0.487804
H29   H     H_    0.477257 0.605813 0.232909 0.258044
C56   C     C_3   0.525164 0.824283 0.308182 -0.492415
H30   H     H_    0.547509 0.851642 0.254247 0.197255
H31   H     H_    0.559020 0.848090 0.377298 0.201361
H32   H     H_    0.486621 0.921212 0.298298 0.178081

loop_
_geom_bond_atom_site_label_1
_geom_bond_atom_site_label_2
_ccdc_geom_bond_type
O17   V3    S    
C47   C51   T    
C51   C52   S    
O1    C5    A    
O23   H15   S    
O19   V1    S    
C9    C21   A    
O3    C7    A    
C55   H26   S    
C10   C18   A    
O15   V3    S    
N1    H17   S    
C25   C33   A    
C33   C38   A    
C22   O21   S    
C49   C50   S    
O7    C3    A    
C54   H23   S    
C35   C40   A    
C26   C30   A    
C36   C39   A    
C40   C44   A    
O9    V1    S    
C14   C18   A    
N3    C55   S    
O4    C8    A    
C25   C29   A    
N4    H29   S    
C2    C47   S    
O1    V3    S    
O13   V1    S    
O2    V4    S    
O3    V1    S    
C28   C36   A    
C17   H6    S    
C1    O15   A    
C15   C31   A    
O24   H16   S    
C2    O16   A    
C7    C9    S    
O2    C6    A    
C16   H12   S    
C10   C22   A    
C11   C19   A    
C16   C20   A    
C43   H3    S    
C44   H4    S    
C13   C29   A    
C34   C37   A    
O11   C7    A    
C11   C23   A    
C35   C36   A    
O12   C8    A    
C40   N4    S    
O10   V2    S    
N1    C53   S    
O5    V1    S    
C3    C46   S    
C54   H24   S    
C39   C43   A    
O7    V3    S    
C24   O23   S    
C38   C42   A    
O8    V4    S    
C55   H27   S    
N3    H25   S    
C56   H32   S    
O22   H14   S    
O18   V4    S    
C23   C27   A    
C14   H10   S    
C16   C32   A    
C32   C44   A    
C13   H9    S    
C8    C10   S    
C26   C34   A    
C39   N3    S    
C20   H7    S    
O5    C1    A    
C31   C43   A    
C53   H18   S    
C14   C30   A    
C21   C25   A    
O8    C4    A    
O9    C5    A    
N2    C54   S    
O14   V2    S    
C53   H19   S    
C12   C20   A    
C27   C35   A    
C29   C41   A    
C38   N2    S    
O16   V4    S    
C19   H8    S    
N4    C56   S    
C3    O13   A    
C18   H5    S    
O6    V2    S    
C37   N1    S    
C48   C52   T    
O6    C2    A    
C15   C19   A    
O11   V3    S    
C5    C11   S    
O12   V4    S    
C6    C12   S    
C54   H22   S    
C22   C26   A    
C9    C17   A    
O10   C6    A    
C56   H31   S    
C46   C50   T    
C56   H30   S    
C33   C34   A    
C42   H2    S    
C41   H1    S    
O20   V2    S    
C4    C45   S    
C12   C24   A    
C55   H28   S    
C27   C31   A    
C13   C17   A    
C21   O22   S    
O4    V2    S    
C1    C48   S    
C37   C41   A    
C24   C28   A    
C53   H20   S    
C4    O14   A    
N2    H21   S    
C23   O24   S    
O21   H13   S    
C30   C42   A    
C45   C49   T    
C28   C32   A    
C15   H11   S    
