data_str_m12_o9_o22_f0_bcu.sym.42
_audit_creation_date              2013-03-05T15:58:07-0500
_audit_creation_method            fapswitch 2.2
_symmetry_space_group_name_H-M    P1
_symmetry_Int_Tables_number       1
_space_group_crystal_system       triclinic
_cell_length_a                    14.999893
_cell_length_b                    14.884848
_cell_length_c                    15.125137
_cell_angle_alpha                 110.228845
_cell_angle_beta                  108.979649
_cell_angle_gamma                 109.070969
_cell_volume                      2603.6277334

loop_
_atom_site_label
_atom_site_type_symbol
_atom_site_description
_atom_site_fract_x
_atom_site_fract_y
_atom_site_fract_z
_atom_type_partial_charge
C1    C     C_R   0.906254 0.193415 0.991329 -0.137582
H1    H     H_    0.846801 0.165195 0.014906 0.105420
N1    N     N_R   0.947080 0.293830 0.002870 -0.043426
C2    C     C_R   0.295264 0.805471 0.205790 -0.132489
H2    H     H_    0.341757 0.832112 0.169460 0.088347
N2    N     N_R   0.208950 0.706170 0.152110 -0.040230
C3    C     C_R   0.222197 0.406987 0.972633 -0.039868
H3    H     H_    0.200496 0.321288 0.936462 0.118820
N3    N     N_R   0.153670 0.443180 0.946090 -0.036288
C4    C     C_R   0.054520 0.590224 0.314231 -0.140467
H4    H     H_    0.099759 0.674641 0.380039 0.104683
N4    N     N_R   0.002360 0.556820 0.208890 -0.040795
C5    C     C_R   0.314288 0.591909 0.061235 -0.143380
H5    H     H_    0.376910 0.677238 0.106808 0.092078
N5    N     N_R   0.210070 0.556820 0.002870 -0.035459
C6    C     C_R   0.970379 0.405571 0.218049 -0.106779
H6    H     H_    0.944038 0.320287 0.193092 0.110792
N6    N     N_R   0.945960 0.443180 0.152110 -0.041314
C7    C     C_R   0.207814 0.803559 0.299366 -0.143153
H7    H     H_    0.176755 0.824451 0.353081 0.132069
N7    N     N_R   0.151710 0.706170 0.208890 -0.042874
C8    C     C_R   0.998385 0.196913 0.902616 -0.156522
H8    H     H_    0.021477 0.175168 0.842207 0.134625
N8    N     N_R   0.004320 0.293830 0.946090 -0.048083
C9    C     C_R   0.935801 0.129497 0.926944 0.069338
C10   C     C_R   0.297078 0.870442 0.298616 0.066015
C11   C     C_R   0.324722 0.498823 0.043357 -0.004716
C12   C     C_R   0.033413 0.495135 0.320827 0.049327
C13   C     C_R   0.701032 0.407998 0.004453 -0.146041
H9    H     H_    0.646803 0.322458 0.973631 0.125114
N9    N     N_R   0.789930 0.443180 0.997130 -0.037415
C14   C     C_R   0.091282 0.591227 0.790058 -0.146668
H10   H     H_    0.142938 0.676303 0.817084 0.114231
N10   N     N_R   0.054040 0.556820 0.847890 -0.040531
C15   C     C_R   0.780633 0.250101 0.687588 -0.122353
H11   H     H_    0.806766 0.252038 0.630100 0.119051
N11   N     N_R   0.848290 0.293830 0.791110 -0.044910
C16   C     C_R   0.931880 0.747661 0.026862 -0.139276
H12   H     H_    0.876705 0.751818 0.056521 0.125374
N12   N     N_R   0.995680 0.706170 0.053910 -0.042661
C17   C     C_R   0.025347 0.750830 0.937551 -0.125566
H13   H     H_    0.059170 0.762972 0.887146 0.096137
N13   N     N_R   0.052920 0.706170 0.997130 -0.042116
C18   C     C_R   0.685396 0.240766 0.775166 -0.110183
H14   H     H_    0.620572 0.224162 0.794343 0.120529
N14   N     N_R   0.791050 0.293830 0.847890 -0.041905
C19   C     C_R   0.791079 0.590995 0.096781 -0.145488
H15   H     H_    0.820218 0.676092 0.152595 0.099658
N15   N     N_R   0.846330 0.556820 0.053910 -0.038274
C20   C     C_R   0.007027 0.408261 0.703433 -0.126389
H16   H     H_    0.984837 0.323878 0.652609 0.117523
N16   N     N_R   0.997640 0.443180 0.791110 -0.044551
Ni1   Ni    Ni4+2 0.869690 0.369690 0.000000 0.230298
Ni2   Ni    Ni4+2 0.130310 0.630310 0.000000 0.213324
Ni3   Ni    Ni4+2 0.000970 0.369690 0.869780 0.228873
Ni4   Ni    Ni4+2 0.999030 0.630310 0.130220 0.212984
C21   C     C_R   0.700161 0.499090 0.068160 0.016252
C22   C     C_R   0.063778 0.498890 0.699488 0.062471
C23   C     C_R   0.676850 0.211887 0.673035 0.046191
C24   C     C_R   0.947127 0.776179 0.952570 0.057991
H17   H     H_    0.558900 0.105584 0.101196 0.134796
C25   C     C_R   0.669984 0.274134 0.227715 -0.127598
H18   H     H_    0.607005 0.295928 0.220122 0.106218
C26   C     C_R   0.777945 0.353071 0.305961 -0.141450
H19   H     H_    0.797893 0.436207 0.358208 0.110524
C27   C     C_R   0.859055 0.323379 0.319843 0.124049
C28   C     C_R   0.830712 0.213909 0.254415 -0.210041
H20   H     H_    0.892189 0.189453 0.265687 0.117920
C29   C     C_R   0.723099 0.136018 0.174095 -0.101181
H21   H     H_    0.701905 0.052118 0.123132 0.133712
C30   C     C_R   0.642675 0.166054 0.161337 -0.063997
C31   C     C_R   0.985741 0.404746 0.508054 -0.242587
H22   H     H_    0.918765 0.344043 0.504903 0.126904
C32   C     C_R   0.075634 0.492037 0.606873 0.075624
C33   C     C_R   0.160152 0.574875 0.611137 0.059854
C34   C     C_R   0.147460 0.569113 0.513438 -0.243227
H23   H     H_    0.210207 0.631046 0.513071 0.134630
C35   C     C_R   0.051672 0.487024 0.416278 0.066850
C36   C     C_R   0.970085 0.402967 0.413328 0.014331
C37   C     C_R   0.296970 0.776998 0.730484 -0.235327
H24   H     H_    0.256427 0.791788 0.667839 0.138908
C38   C     C_R   0.386788 0.866675 0.828733 0.392173
C39   C     C_R   0.436995 0.850160 0.912580 -0.161111
H25   H     H_    0.505093 0.919037 0.989483 0.125757
C40   C     C_R   0.398720 0.744236 0.897656 -0.174772
H26   H     H_    0.434747 0.732482 0.963987 0.116294
C41   C     C_R   0.312465 0.653796 0.798039 -0.127989
H27   H     H_    0.285393 0.572171 0.787777 0.169368
C42   C     C_R   0.258422 0.669429 0.714214 0.061331
H28   H     H_    0.994820 0.888886 0.449151 0.104096
C43   C     C_R   0.090045 0.972949 0.393993 -0.124523
H29   H     H_    0.021704 0.965091 0.332388 0.115689
C44   C     C_R   0.192392 0.021323 0.403955 -0.122812
H30   H     H_    0.201573 0.048886 0.348296 0.110126
C45   C     C_R   0.280513 0.025935 0.479974 0.113425
C46   C     C_R   0.266449 0.987981 0.550298 -0.166312
H31   H     H_    0.333143 0.989373 0.608249 0.161226
C47   C     C_R   0.163327 0.937685 0.538282 -0.127732
H32   H     H_    0.151516 0.903178 0.588557 0.138514
C48   C     C_R   0.074993 0.929386 0.459570 -0.127943
C49   C     C_R   0.479465 0.134335 0.565681 -0.219403
H33   H     H_    0.479311 0.181749 0.638388 0.138589
C50   C     C_R   0.577240 0.147192 0.568020 0.065471
C51   C     C_R   0.575771 0.089876 0.470208 0.018030
C52   C     C_R   0.477857 0.021411 0.375397 -0.228867
H34   H     H_    0.480676 0.978672 0.303241 0.124745
C53   C     C_R   0.381555 0.986274 0.379501 0.052447
C54   C     C_R   0.380700 0.051003 0.473045 0.022345
C55   C     C_R   0.729823 0.124648 0.430610 -0.192389
H35   H     H_    0.717677 0.184415 0.410564 0.132406
C56   C     C_R   0.814429 0.105539 0.427910 -0.117146
H36   H     H_    0.868154 0.151011 0.407089 0.119297
C57   C     C_R   0.829454 0.026965 0.451402 -0.114536
H37   H     H_    0.893180 0.010328 0.446397 0.098588
C58   C     C_R   0.759960 0.967330 0.477848 -0.134038
H38   H     H_    0.767906 0.902616 0.490594 0.104052
C59   C     C_R   0.679388 0.990537 0.486910 -0.120901
H39   H     H_    0.626944 0.944972 0.509164 0.116947
C60   C     C_R   0.664929 0.070541 0.464918 0.108228
C61   C     C_3   0.528651 0.393524 0.063990 -0.389714
H40   H     H_    0.572894 0.392010 0.137692 0.156064
H41   H     H_    0.505138 0.316958 0.992168 0.179965
C62   C     C_3   0.424230 0.393608 0.057209 -0.397212
H42   H     H_    0.354317 0.317142 0.983253 0.181895
H43   H     H_    0.417298 0.392515 0.127927 0.157573
H44   H     H_    0.673662 0.599150 0.244046 0.163941
H45   H     H_    0.518020 0.600666 0.232222 0.180278
C63   C     C_3   0.629789 0.600122 0.169508 -0.416023
C64   C     C_3   0.540205 0.498213 0.963965 -0.443022
C65   C     C_3   0.602252 0.498047 0.067908 0.342690
H46   H     H_    0.591678 0.570823 0.963242 0.150442
H47   H     H_    0.521296 0.424507 0.891917 0.203983
C66   C     C_3   0.424763 0.496836 0.053985 0.298217
C67   C     C_3   0.525043 0.599984 0.160995 -0.460655
C68   C     C_3   0.436171 0.498530 0.955324 0.198407
H48   H     H_    0.440523 0.574785 0.956875 0.078801
H49   H     H_    0.683118 0.677857 0.177537 0.162605
H50   H     H_    0.531415 0.677575 0.164141 0.149659
H51   H     H_    0.240284 0.138178 0.737082 0.171439
C69   C     C_R   0.070034 0.054601 0.686058 -0.114145
H52   H     H_    0.044900 0.061542 0.614352 0.134152
C70   C     C_R   0.992356 0.001679 0.709062 -0.208498
H53   H     H_    0.907340 0.967431 0.655149 0.122297
C71   C     C_R   0.025532 0.001530 0.806885 0.120396
C72   C     C_R   0.136298 0.044881 0.876157 -0.164295
H54   H     H_    0.162844 0.042657 0.950709 0.121375
C73   C     C_R   0.213212 0.092042 0.849774 -0.135641
H55   H     H_    0.298359 0.124530 0.902839 0.156076
C74   C     C_R   0.180339 0.099212 0.756073 -0.028885
C75   C     C_R   0.932477 0.857519 0.836262 -0.234848
H56   H     H_    0.967306 0.815180 0.797806 0.128595
C76   C     C_R   0.898940 0.831513 0.904626 0.060028
C77   C     C_R   0.838704 0.877710 0.938538 0.021471
C78   C     C_R   0.828609 0.957387 0.915192 -0.217041
H57   H     H_    0.781994 0.991135 0.941268 0.135920
C79   C     C_R   0.898816 0.010838 0.885575 0.052976
C80   C     C_R   0.945549 0.954629 0.837196 0.026632
C81   C     C_R   0.703557 0.791326 0.987102 -0.143170
H58   H     H_    0.647887 0.728126 0.902788 0.126875
C82   C     C_R   0.670555 0.796139 0.064231 -0.145631
H59   H     H_    0.591225 0.736288 0.040734 0.103428
C83   C     C_R   0.739642 0.879171 0.172430 -0.113736
H60   H     H_    0.712426 0.882146 0.230816 0.127962
C84   C     C_R   0.842746 0.958330 0.204381 -0.140015
H61   H     H_    0.896041 0.024072 0.287628 0.106849
C85   C     C_R   0.876880 0.953988 0.128340 -0.175641
H62   H     H_    0.956232 0.017459 0.153697 0.117951
C86   C     C_R   0.807522 0.870088 0.019257 0.107614
Br1   Br    Br    0.439133 0.011728 0.848828 -0.705295
Br2   Br    Br    0.314175 0.379225 0.811633 -0.670436

loop_
_geom_bond_atom_site_label_1
_geom_bond_atom_site_label_2
_geom_bond_distance
_ccdc_geom_bond_type
C6    C12   1.369266 A    
C1    C9    1.401972 A    
C41   H27   1.082281 S    
C44   H30   1.083204 S    
C75   C80   1.388126 A    
C17   H13   1.076217 S    
C45   C46   1.406653 A    
H45   C67   1.113015 S    
C14   C22   1.376823 A    
C63   H49   1.108263 S    
C72   H54   1.083294 S    
C81   C86   1.400186 A    
C62   H42   1.105894 S    
C19   N15   1.327785 A    
C40   H26   1.076894 S    
C61   H40   1.108856 S    
N8    Ni3   1.873590 S    
C64   H46   1.110275 S    
C27   C36   1.482216 S    
C52   C53   1.396810 A    
C55   C60   1.403803 A    
C49   H33   1.083253 S    
C62   C66   1.551577 S    
C61   C65   1.553750 S    
C79   C80   1.421389 A    
C15   N11   1.317273 A    
C34   C35   1.398062 A    
C57   H37   1.081467 S    
C31   C36   1.363611 A    
C55   C56   1.398110 A    
C16   H12   1.070410 S    
C62   H43   1.112853 S    
C43   C44   1.396471 A    
C18   C23   1.401218 A    
C58   H38   1.080622 S    
C3    C11   1.386686 A    
C15   C23   1.381041 A    
C1    H1    1.079142 S    
C24   C76   1.479133 S    
C68   Br2   1.961163 S    
C37   C42   1.410147 A    
C29   C30   1.397522 A    
C7    C10   1.389477 A    
C25   C26   1.397130 A    
N6    Ni1   1.878377 S    
C14   N10   1.334223 A    
C64   C68   1.524745 S    
N12   N13   1.397983 A    
C77   C78   1.387934 A    
C73   H55   1.081887 S    
C61   H41   1.111437 S    
C6    H6    1.074209 S    
N12   Ni4   1.873592 S    
C8    C9    1.374073 A    
C46   C47   1.397302 A    
C19   H15   1.080210 S    
C20   N16   1.319553 A    
C53   C54   1.416852 A    
N3    Ni3   1.882829 S    
C43   C48   1.396420 A    
C12   C35   1.434853 S    
C78   C79   1.395879 A    
C61   C62   1.536462 S    
C64   H47   1.113745 S    
H17   C30   1.080665 S    
C49   C54   1.394137 A    
C27   C28   1.404881 A    
C38   Br1   1.911455 S    
C49   C50   1.402493 A    
C5    H5    1.079077 S    
C9    C79   1.479356 S    
C81   C82   1.397175 A    
C17   N13   1.332857 A    
N1    N8    1.397984 A    
N9    N15   1.379187 A    
H28   C48   1.082472 S    
C51   C52   1.376005 A    
C72   C73   1.395336 A    
C18   N14   1.338896 A    
C83   C84   1.393892 A    
C40   C41   1.395533 A    
C32   C33   1.414945 A    
C28   H20   1.082564 S    
C11   C66   1.467628 S    
N5    Ni2   1.866575 S    
C21   C65   1.462380 S    
C68   H48   1.106937 S    
C85   C86   1.404878 A    
C69   H52   1.079844 S    
C31   C32   1.393401 A    
C4    H4    1.081035 S    
C43   H29   1.075975 S    
C35   C36   1.410822 A    
C37   H24   1.083052 S    
C58   C59   1.395192 A    
N2    N7    1.397984 A    
H51   C74   1.081588 S    
N9    Ni1   1.866576 S    
C57   C58   1.395212 A    
C1    N1    1.338430 A    
C15   H11   1.068746 S    
C26   C27   1.403215 A    
C33   C34   1.394971 A    
C13   H9    1.079908 S    
C63   C67   1.533384 S    
C19   C21   1.380568 A    
C66   C67   1.558290 S    
N13   Ni2   1.866048 S    
C39   H25   1.079615 S    
C5    N5    1.321296 A    
C46   H31   1.083066 S    
C25   H18   1.079958 S    
C20   H16   1.082592 S    
C20   C22   1.373414 A    
C56   C57   1.397315 A    
C6    N6    1.313280 A    
C34   H23   1.084272 S    
C78   H57   1.081076 S    
N4    Ni4   1.874058 S    
C4    N4    1.336059 A    
C16   C24   1.388787 A    
C2    N2    1.325133 A    
C39   C40   1.394463 A    
C13   C21   1.372347 A    
N2    Ni2   1.878136 S    
C47   C48   1.397683 A    
C38   C39   1.396874 A    
C41   C42   1.406248 A    
C77   C86   1.467914 S    
C81   H58   1.083009 S    
C75   C76   1.399997 A    
C70   C71   1.400314 A    
C18   H14   1.080126 S    
C22   C32   1.442004 S    
C64   C65   1.546052 S    
C4    C12   1.392425 A    
C3    N3    1.323257 A    
C84   H61   1.078903 S    
H44   C63   1.113205 S    
C56   H36   1.078310 S    
C73   C74   1.395546 A    
C8    H8    1.064969 S    
C17   C24   1.404986 A    
C69   C70   1.397367 A    
C31   H22   1.083445 S    
C63   C65   1.550156 S    
C10   C53   1.476583 S    
C67   H50   1.110027 S    
N7    Ni4   1.882606 S    
C2    C10   1.387886 A    
N16   Ni3   1.874059 S    
N10   Ni2   1.878379 S    
C83   H60   1.080613 S    
N15   Ni4   1.882826 S    
C52   H34   1.079373 S    
N10   N16   1.379189 A    
C75   H56   1.080617 S    
C71   C72   1.405063 A    
C23   C50   1.463218 S    
C26   H19   1.083189 S    
C51   C60   1.477486 S    
C7    H7    1.067690 S    
C59   C60   1.404121 A    
N3    N5    1.379186 A    
C13   N9    1.320789 A    
C55   H35   1.083087 S    
C14   H10   1.079771 S    
C16   N12   1.330758 A    
N1    Ni1   1.866050 S    
C85   H62   1.083532 S    
N14   Ni1   1.878139 S    
C84   C85   1.393701 A    
C37   C38   1.398560 A    
C25   C30   1.395982 A    
C8    N8    1.320376 A    
C71   C80   1.472643 S    
C29   H21   1.081801 S    
C82   H59   1.071992 S    
C3    H3    1.078259 S    
C45   C54   1.473657 S    
C33   C42   1.488729 S    
N11   Ni3   1.882605 S    
C2    H2    1.079250 S    
C76   C77   1.419801 A    
C44   C45   1.404080 A    
C47   H32   1.082446 S    
N4    N6    1.379186 A    
C50   C51   1.417984 A    
C66   C68   1.563987 S    
C70   H53   1.078116 S    
C5    C11   1.388367 A    
C28   C29   1.397537 A    
N11   N14   1.397984 A    
C59   H39   1.083328 S    
C69   C74   1.398572 A    
C82   C83   1.393130 A    
C7    N7    1.328217 A    
