data_str_m3_o10_o29_f0_pcu.sym.238
_audit_creation_date              2012-12-10T16:59:19-0500
_audit_creation_method            fapswitch 2.2
_symmetry_space_group_name_H-M    P1
_symmetry_Int_Tables_number       1
_space_group_crystal_system       triclinic
_cell_length_a                    7.792026
_cell_length_b                    8.546122
_cell_length_c                    27.740286
_cell_angle_alpha                 91.772538
_cell_angle_beta                  85.307061
_cell_angle_gamma                 93.81155
_cell_volume                      1836.40113024

loop_
_atom_site_label
_atom_site_type_symbol
_atom_type_description
_atom_site_fract_x
_atom_site_fract_y
_atom_site_fract_z
_atom_type_partial_charge
C1    C     C_R   0.545773 0.794656 0.498784 0.957058
C2    C     C_R   0.454227 0.205343 0.501215 0.957064
C3    C     C_R   0.518340 0.499250 0.897608 -0.096450
C4    C     C_R   0.481181 0.500852 0.102415 -0.096431
C5    C     C_R   0.580708 0.635175 0.871947 -0.098616
C6    C     C_R   0.418763 0.364934 0.128074 -0.098670
C7    C     C_R   0.643021 0.768622 0.898038 0.325049
C8    C     C_R   0.356362 0.231523 0.101983 0.325066
C9    C     C_R   0.463846 0.362411 0.871853 -0.006444
C10   C     C_R   0.535787 0.637655 0.128170 -0.006472
C11   C     C_R   0.506009 0.498684 0.646413 -0.030604
C12   C     C_R   0.493917 0.501292 0.353587 -0.030629
C13   C     C_R   0.551760 0.638708 0.026101 0.073311
C14   C     C_R   0.447736 0.361415 0.973923 0.073314
C15   C     C_R   0.434800 0.363215 0.025272 -0.001085
C16   C     C_R   0.564629 0.636929 0.974751 -0.001060
C17   C     C_R   0.489373 0.500773 0.051072 0.080080
C18   C     C_R   0.510104 0.499352 0.948951 0.080074
C19   C     C_R   0.597228 0.775117 0.053627 -0.204463
C20   C     C_R   0.402389 0.224969 0.946398 -0.204527
C21   C     C_R   0.591423 0.773584 0.103506 -0.067397
C22   C     C_R   0.408248 0.226476 0.896519 -0.067373
C23   C     C_R   0.501586 0.499819 0.593867 0.850170
C24   C     C_R   0.498403 0.500170 0.406132 0.850135
C25   C     C_R   0.634532 0.767782 0.948187 -0.266297
C26   C     C_R   0.364801 0.232391 0.051835 -0.266275
C27   C     C_2   0.569837 0.958299 0.498047 -0.375413
C28   C     C_2   0.430163 0.041701 0.501950 -0.375462
C29   C     C_R   0.577665 0.630900 0.821161 0.545593
C30   C     C_R   0.421840 0.369189 0.178859 0.545622
C31   C     C_R   0.466867 0.363823 0.821571 0.532516
C32   C     C_R   0.532870 0.636200 0.178449 0.532576
C33   C     C_R   0.668999 0.490262 0.716796 -0.089990
C34   C     C_R   0.330980 0.511131 0.283237 -0.090199
C35   C     C_R   0.664171 0.490702 0.666894 -0.210743
C36   C     C_R   0.335888 0.510671 0.333137 -0.210797
C37   C     C_R   0.352748 0.505090 0.676568 -0.213454
C38   C     C_R   0.646960 0.493477 0.323400 -0.213215
C39   C     C_R   0.357943 0.504197 0.726480 -0.086810
C40   C     C_R   0.641680 0.494379 0.273491 -0.086955
C41   C     C_R   0.515990 0.497055 0.746500 0.310598
C42   C     C_R   0.483769 0.502944 0.253508 0.310848
H1    H     H_    0.229160 0.510319 0.661747 0.147031
H2    H     H_    0.770436 0.487090 0.338193 0.146852
H3    H     H_    0.239593 0.509407 0.749675 0.143472
H4    H     H_    0.759851 0.488078 0.250269 0.143392
H5    H     H_    0.216237 0.517773 0.355574 0.157042
H6    H     H_    0.783988 0.484726 0.644478 0.156863
H7    H     H_    0.208919 0.518136 0.267595 0.141335
H8    H     H_    0.791173 0.484361 0.732460 0.141346
H9    H     H_    0.630260 0.880774 0.122744 0.211584
H10   H     H_    0.369500 0.119257 0.877282 0.211633
H11   H     H_    0.636651 0.886903 0.038152 0.149208
H12   H     H_    0.363064 0.113166 0.961877 0.149218
H13   H     H_    0.688051 0.872566 0.965172 0.172446
H14   H     H_    0.311159 0.127662 0.034847 0.172474
H15   H     H_    0.701699 0.009533 0.494296 0.195560
H16   H     H_    0.298300 0.990467 0.505701 0.195524
N1    N     N_R   0.520972 0.497063 0.797675 -0.369371
N2    N     N_R   0.478694 0.502974 0.202340 -0.369427
N3    N     N_2   0.950320 0.457960 0.486880 0.191468
N4    N     N_2   0.049680 0.542040 0.513120 0.191463
O1    O     O_R   0.389250 0.738570 0.503220 -0.632101
O2    O     O_R   0.610750 0.261430 0.496780 -0.632031
O3    O     O_R   0.678390 0.711630 0.494810 -0.571287
O4    O     O_R   0.321610 0.288370 0.505190 -0.571289
O5    O     O_R   0.355440 0.513440 0.575450 -0.661213
O6    O     O_R   0.644560 0.486560 0.424550 -0.661176
O7    O     O_R   0.644590 0.486500 0.567040 -0.595370
O8    O     O_R   0.355410 0.513500 0.432960 -0.595476
O9    O     O_2   0.627178 0.758766 0.795056 -0.477310
O10   O     O_2   0.372165 0.241368 0.204971 -0.477293
O11   O     O_2   0.584213 0.766665 0.203498 -0.514545
O12   O     O_2   0.415723 0.233290 0.796523 -0.514536
Zn1   Zn    Zn3+2 0.306940 0.517990 0.505620 1.030441
Zn2   Zn    Zn3+2 0.693060 0.482010 0.494380 1.030514
O13   O     O_3   0.029291 0.337206 0.464457 -0.525948
C43   C     C_3   0.952749 0.302552 0.421092 -0.144779
H17   H     H_    0.949425 0.409412 0.399458 0.133171
H18   H     H_    0.822883 0.243081 0.427787 0.179709
H19   H     H_    0.033151 0.220012 0.399149 0.147610
O14   O     O_3   0.970688 0.662766 0.535554 -0.525992
C44   C     C_3   0.047379 0.697549 0.578890 -0.144833
H20   H     H_    0.177150 0.757159 0.572155 0.179784
H21   H     H_    0.050954 0.590736 0.600529 0.133230
H22   H     H_    0.966939 0.780013 0.600853 0.147486
Br1   Br    Br    0.749929 0.957756 0.869493 -0.434552
Br2   Br    Br    0.249482 0.042372 0.130524 -0.434572

loop_
_geom_bond_atom_site_label_1
_geom_bond_atom_site_label_2
_ccdc_geom_bond_type
C8    C26   A    
C14   C18   A    
C34   C42   A    
C24   O8    A    
C39   C41   A    
O13   C43   S    
C40   H4    S    
O3    Zn2   S    
C3    C18   A    
C19   C21   A    
C43   H18   S    
C9    C22   A    
C23   O5    A    
C36   H5    S    
C31   N1    A    
C11   C37   A    
C23   O7    A    
C7    Br1   S    
C29   N1    A    
N3    O13   S    
C30   N2    A    
C1    O3    A    
C12   C36   A    
C39   H3    S    
C19   H11   S    
C40   C42   A    
N4    O14   S    
N3    Zn2   S    
C35   H6    S    
C1    O1    A    
C2    O2    A    
C5    C29   A    
C10   C21   A    
C13   C19   A    
C14   C20   A    
C41   N1    S    
C4    C6    A    
C27   H15   S    
C42   N2    S    
C32   O11   S    
C5    C7    A    
C9    C31   A    
C43   H17   S    
C15   C26   A    
C6    C8    A    
C3    C5    A    
C33   H8    S    
C8    Br2   S    
C37   H1    S    
C38   H2    S    
C3    C9    A    
C44   H20   S    
O2    Zn2   S    
C4    C17   A    
C20   H12   S    
C44   H21   S    
C20   C22   A    
N4    Zn1   S    
O5    Zn1   S    
C32   N2    A    
C4    C10   A    
C21   H9    S    
C22   H10   S    
C16   C25   A    
C15   C17   A    
C34   H7    S    
C6    C30   A    
C25   H13   S    
C2    O4    A    
C26   H14   S    
C30   O10   S    
C28   H16   S    
O6    Zn2   S    
C12   C24   S    
C7    C25   A    
C13   C17   A    
C33   C41   A    
C11   C35   A    
C37   C39   A    
C38   C40   A    
C43   H19   S    
O1    Zn1   S    
O4    Zn1   S    
C11   C23   S    
C33   C35   A    
C34   C36   A    
C12   C38   A    
N3    N4    D    
C31   O12   S    
C24   O6    A    
C10   C32   A    
C44   H22   S    
O7    Zn2   S    
O8    Zn1   S    
C16   C18   A    
O14   C44   S    
C13   C16   A    
C27   C28   D    
C1    C27   S    
C14   C15   A    
C2    C28   S    
C29   O9    S    
