data_str_m9_o18_o19_f0_sra.sym.26
_audit_creation_date              2012-12-11T15:27:36-0500
_audit_creation_method            fapswitch 2.2
_symmetry_space_group_name_H-M    P1
_symmetry_Int_Tables_number       1
_space_group_crystal_system       triclinic
_cell_length_a                    23.365434
_cell_length_b                    7.294649
_cell_length_c                    15.112543
_cell_angle_alpha                 89.819842
_cell_angle_beta                  108.552527
_cell_angle_gamma                 90.142333
_cell_volume                      2441.9472882

loop_
_atom_site_label
_atom_site_type_symbol
_atom_type_description
_atom_site_fract_x
_atom_site_fract_y
_atom_site_fract_z
_atom_type_partial_charge
O1    O     O_R   0.711000 0.648610 0.341170 -0.536956
O2    O     O_R   0.289000 0.351390 0.658830 -0.536956
O3    O     O_R   0.789000 0.148610 0.158830 -0.538521
O4    O     O_R   0.211000 0.851390 0.841170 -0.538521
O5    O     O_R   0.829650 0.322030 0.336650 -0.536829
O6    O     O_R   0.170350 0.677970 0.663350 -0.536829
O7    O     O_R   0.670350 0.822030 0.163350 -0.536390
O8    O     O_R   0.329650 0.177970 0.836650 -0.536391
C1    C     C_R   0.854315 0.485809 0.356746 0.719894
C2    C     C_R   0.145685 0.514191 0.643254 0.719892
C3    C     C_R   0.645686 0.985725 0.143269 0.717799
C4    C     C_R   0.354314 0.014275 0.856731 0.717802
O9    O     O_R   0.713950 0.319280 0.352070 -0.542572
O10   O     O_R   0.286050 0.680720 0.647930 -0.542573
O11   O     O_R   0.786050 0.819280 0.147930 -0.541191
O12   O     O_R   0.213950 0.180720 0.852070 -0.541191
O13   O     O_R   0.672470 0.142870 0.174360 -0.533135
O14   O     O_R   0.327530 0.857130 0.825640 -0.533135
O15   O     O_R   0.827530 0.642870 0.325640 -0.532581
O16   O     O_R   0.172470 0.357130 0.674360 -0.532581
C5    C     C_R   0.700801 0.487077 0.374896 0.701477
C6    C     C_R   0.299198 0.512923 0.625103 0.701476
C7    C     C_R   0.799185 0.987645 0.125107 0.701241
C8    C     C_R   0.200815 0.012355 0.874893 0.701240
O17   O     O_3   0.736530 0.478650 0.191680 -0.378758
O18   O     O_3   0.263470 0.521350 0.808320 -0.378758
O19   O     O_3   0.763470 0.978650 0.308320 -0.378297
O20   O     O_3   0.236530 0.021350 0.691680 -0.378297
V1    V     V_3+5 0.752500 0.206170 0.260820 1.416954
V2    V     V_3+5 0.247500 0.793830 0.739180 1.416952
V3    V     V_3+5 0.747500 0.706170 0.239180 1.410742
V4    V     V_3+5 0.252500 0.293830 0.760820 1.410742
C9    C     C_R   0.829358 0.999678 0.053768 -0.039499
C10   C     C_R   0.170642 0.000322 0.946233 -0.039501
C11   C     C_R   0.670653 0.491687 0.446394 -0.037991
C12   C     C_R   0.329346 0.508313 0.553603 -0.037993
C13   C     C_R   0.827604 0.109655 0.902032 -0.168695
C14   C     C_R   0.172397 0.890343 0.097969 -0.168696
C15   C     C_R   0.673990 0.421166 0.604194 -0.168061
C16   C     C_R   0.326009 0.578842 0.395805 -0.168065
C17   C     C_R   0.799814 0.090938 0.970283 -0.209279
C18   C     C_R   0.200186 0.909061 0.029717 -0.209278
C19   C     C_R   0.701573 0.423231 0.535231 -0.208719
C20   C     C_R   0.298427 0.576784 0.464771 -0.208720
C21   C     C_R   0.888530 0.931859 0.070497 0.082585
C22   C     C_R   0.111470 0.068143 0.929505 0.082590
C23   C     C_R   0.610393 0.552939 0.425356 0.083313
C24   C     C_R   0.389602 0.447041 0.574636 0.083306
C25   C     C_R   0.921648 0.990643 0.010767 0.074448
C26   C     C_R   0.078353 0.009356 0.989235 0.074443
C27   C     C_R   0.578177 0.508786 0.488567 0.074743
C28   C     C_R   0.421819 0.491191 0.511426 0.074750
C29   C     C_R   0.888199 0.060169 0.921528 0.113793
C30   C     C_R   0.111802 0.939828 0.078474 0.113793
C31   C     C_R   0.612625 0.463538 0.581650 0.114170
C32   C     C_R   0.387372 0.536449 0.418346 0.114171
C33   C     C_R   0.986033 0.984578 0.035077 0.060166
C34   C     C_R   0.013968 0.015420 0.964926 0.060166
C35   C     C_R   0.513761 0.506720 0.464167 0.060488
C36   C     C_R   0.486235 0.493248 0.535826 0.060484
C37   C     C_R   0.976411 0.039952 0.872086 -0.201173
C38   C     C_R   0.023590 0.960051 0.127917 -0.201170
C39   C     C_R   0.524025 0.493716 0.629438 -0.200827
C40   C     C_R   0.475970 0.506247 0.370555 -0.200827
C41   C     C_R   0.915289 0.075420 0.851963 -0.194457
C42   C     C_R   0.084713 0.924579 0.148040 -0.194456
C43   C     C_R   0.585683 0.465404 0.651679 -0.194758
C44   C     C_R   0.414313 0.534571 0.348315 -0.194763
H1    H     H_    0.888820 0.111420 0.781126 0.124949
H2    H     H_    0.111182 0.888581 0.218878 0.124949
H3    H     H_    0.612623 0.448539 0.724276 0.125036
H4    H     H_    0.387373 0.551439 0.275719 0.125039
H5    H     H_    0.245881 0.859367 0.043554 0.119219
H6    H     H_    0.754119 0.140631 0.956446 0.119218
H7    H     H_    0.251932 0.621098 0.447781 0.117757
H8    H     H_    0.748071 0.378933 0.552224 0.117753
H9    H     H_    0.802417 0.168977 0.835156 0.118673
H10   H     H_    0.197585 0.831021 0.164844 0.118674
H11   H     H_    0.700049 0.380087 0.674435 0.118303
H12   H     H_    0.299951 0.619932 0.325567 0.118305
C45   C     C_1   0.416810 0.007153 0.918671 -0.189845
C46   C     C_1   0.583190 0.992847 0.081329 -0.189845
C47   C     C_1   0.083192 0.506937 0.581319 -0.190704
C48   C     C_1   0.916808 0.493063 0.418681 -0.190704
C49   C     C_1   0.469159 0.002493 0.969922 0.001501
C50   C     C_1   0.530841 0.997507 0.030078 0.001501
C51   C     C_1   0.030841 0.502378 0.530073 0.001542
C52   C     C_1   0.969159 0.497622 0.469927 0.001542
C53   C     C_3   0.089663 0.222188 0.859216 -0.784976
H13   H     H_    0.079624 0.169648 0.786972 0.197662
H14   H     H_    0.049998 0.294832 0.867133 0.213108
H15   H     H_    0.124780 0.330287 0.871674 0.226624
C54   C     C_3   0.910336 0.777821 0.140786 -0.784974
H16   H     H_    0.950003 0.705178 0.132878 0.213103
H17   H     H_    0.920371 0.830356 0.213031 0.197666
H18   H     H_    0.875218 0.669721 0.128317 0.226622
C55   C     C_3   0.413878 0.312716 0.654610 -0.785308
H19   H     H_    0.454803 0.240053 0.651638 0.212616
H20   H     H_    0.422844 0.383320 0.722678 0.197333
H21   H     H_    0.380656 0.201166 0.649514 0.225537
C56   C     C_3   0.586113 0.687242 0.345372 -0.785309
H22   H     H_    0.577148 0.616616 0.277308 0.197330
H23   H     H_    0.545187 0.759903 0.348341 0.212617
H24   H     H_    0.619331 0.798799 0.350457 0.225532
H25   H     H_    0.993742 0.035368 0.813961 0.148939
H26   H     H_    0.006259 0.964637 0.186042 0.148939
H27   H     H_    0.506514 0.512584 0.686761 0.148923
H28   H     H_    0.493481 0.487368 0.313232 0.148924

loop_
_geom_bond_atom_site_label_1
_geom_bond_atom_site_label_2
_ccdc_geom_bond_type
O17   V3    S    
C47   C51   T    
C51   C52   S    
O1    C5    A    
C56   H22   S    
C23   C56   S    
O19   V1    S    
C9    C21   A    
O3    C7    A    
C10   C18   A    
C11   C23   A    
C55   H19   S    
C25   C33   A    
C33   C38   A    
C22   C53   S    
C49   C50   S    
O7    C3    A    
C24   C55   S    
C35   C40   A    
C54   H16   S    
C36   C39   A    
C40   C44   A    
O9    V1    S    
C14   C18   A    
O4    C8    A    
C25   C29   A    
C2    C47   S    
O1    V3    S    
O13   V1    S    
O2    V4    S    
O3    V1    S    
C54   H17   S    
C28   C36   A    
C17   H6    S    
C1    O15   A    
C15   C31   A    
C2    O16   A    
C16   C32   A    
O2    C6    A    
C16   H12   S    
C10   C22   A    
C53   H14   S    
C11   C19   A    
C16   C20   A    
C43   H3    S    
C44   H4    S    
C13   C29   A    
C34   C37   A    
O11   C7    A    
O15   V3    S    
C35   C36   A    
O12   C8    A    
O10   V2    S    
C55   H20   S    
C40   H28   S    
O5    V1    S    
C3    C46   S    
C39   C43   A    
O7    V3    S    
C38   C42   A    
O8    V4    S    
O18   V4    S    
C15   C19   A    
C14   H10   S    
C7    C9    S    
C32   C44   A    
C13   H9    S    
C8    C10   S    
C26   C34   A    
C20   H7    S    
O5    C1    A    
C31   C43   A    
C14   C30   A    
C21   C25   A    
O8    C4    A    
C29   C41   A    
O9    C5    A    
C26   C30   A    
C53   H15   S    
O14   V2    S    
O6    V2    S    
C21   C54   S    
C54   H18   S    
C12   C20   A    
C27   C35   A    
C39   H27   S    
C55   H21   S    
C37   H25   S    
O16   V4    S    
C19   H8    S    
C3    O13   A    
C18   H5    S    
C48   C52   T    
O6    C2    A    
C23   C27   A    
O11   V3    S    
C30   C42   A    
O12   V4    S    
C6    C12   S    
C22   C26   A    
C9    C17   A    
O10   C6    A    
O20   V2    S    
C5    C11   S    
C46   C50   T    
C33   C34   A    
C42   H2    S    
C41   H1    S    
C4    C45   S    
C12   C24   A    
C27   C31   A    
C13   C17   A    
O4    V2    S    
C1    C48   S    
C37   C41   A    
C24   C28   A    
C56   H23   S    
C38   H26   S    
C4    O14   A    
C56   H24   S    
C53   H13   S    
C45   C49   T    
C28   C32   A    
C15   H11   S    
