data_str_m2_o14_o16_f0_pcu.sym.200
_audit_creation_date              2013-03-05T15:50:33-0500
_audit_creation_method            fapswitch 2.2
_symmetry_space_group_name_H-M    P1
_symmetry_Int_Tables_number       1
_space_group_crystal_system       triclinic
_cell_length_a                    9.64495
_cell_length_b                    10.888347
_cell_length_c                    13.439259
_cell_angle_alpha                 94.605536
_cell_angle_beta                  72.599382
_cell_angle_gamma                 87.286554
_cell_volume                      1338.63918424

loop_
_atom_site_label
_atom_site_type_symbol
_atom_site_description
_atom_site_fract_x
_atom_site_fract_y
_atom_site_fract_z
_atom_type_partial_charge
O1    O     O_R   0.381190 0.680360 0.500010 -0.561391
O2    O     O_R   0.618760 0.680340 0.500000 -0.588905
C1    C     C_R   0.496182 0.738441 0.499724 0.833539
O3    O     O_R   0.323240 0.499990 0.650990 -0.547874
O4    O     O_R   0.560820 0.499960 0.650980 -0.582402
C2    C     C_R   0.422341 0.496535 0.699849 0.782489
Cu1   Cu    Cu3+1 0.359340 0.500010 0.500010 1.031772
Cu2   Cu    Cu3+1 0.640660 0.499990 0.499990 0.982440
O5    O     O_R   0.381240 0.319660 0.500000 -0.575472
O6    O     O_R   0.618810 0.319640 0.499990 -0.556292
O7    O     O_R   0.439180 0.500040 0.349020 -0.535633
O8    O     O_R   0.676760 0.500010 0.349010 -0.622124
C3    C     C_R   0.497590 0.264827 0.512646 0.848828
C4    C     C_R   0.578739 0.502410 0.300521 0.836615
C5    C     C_R   0.795987 0.405218 0.021675 -0.161253
H1    H     H_    0.842324 0.408634 0.167682 0.154149
H2    H     H_    0.817473 0.327907 0.825509 0.149364
H3    H     H_    0.900254 0.356754 0.978934 0.145167
C6    C     C_R   0.627998 0.495174 0.186071 -0.023651
C7    C     C_R   0.235787 0.546705 0.872521 -0.149332
C8    C     C_R   0.197297 0.573538 0.980365 -0.140712
C9    C     C_R   0.300587 0.558120 0.032562 -0.120301
C10   C     C_R   0.444359 0.508552 0.978023 0.097649
C11   C     C_R   0.478433 0.469415 0.869501 0.066051
C12   C     C_R   0.553796 0.492126 0.028294 0.100985
C13   C     C_R   0.689991 0.427953 0.971897 0.157569
C14   C     C_R   0.716308 0.381268 0.868074 -0.168739
C15   C     C_R   0.611176 0.399204 0.818541 -0.161823
C16   C     C_R   0.530550 0.533223 0.134171 -0.140348
C17   C     C_R   0.763976 0.436343 0.128892 -0.178793
C18   C     C_R   0.377254 0.499156 0.815264 -0.121085
H4    H     H_    0.432616 0.587039 0.180549 0.145744
H5    H     H_    0.155570 0.566886 0.833621 0.227823
H6    H     H_    0.262842 0.582636 0.115990 0.150980
H7    H     H_    0.087528 0.610291 0.023540 0.165441
H8    H     H_    0.633695 0.352919 0.740925 0.212183
H9    H     H_    0.718066 0.873150 0.482812 0.207606
C19   C     C_R   0.217040 0.906581 0.536364 -0.028114
H10   H     H_    0.204698 0.818488 0.499233 0.179311
C20   C     C_R   0.087919 0.978083 0.587615 -0.004734
H11   H     H_    0.984265 0.939295 0.595980 0.178064
C21   C     C_R   0.092105 0.098117 0.629165 -0.112467
H12   H     H_    0.992006 0.152632 0.671486 0.174389
C22   C     C_R   0.225367 0.149231 0.613747 -0.172253
H13   H     H_    0.224193 0.242602 0.648428 0.154216
C23   C     C_R   0.357546 0.079145 0.558842 0.066495
C24   C     C_R   0.354174 0.951163 0.531897 0.098693
C25   C     C_R   0.487204 0.874842 0.504469 -0.173273
C26   C     C_R   0.617374 0.929921 0.497721 -0.247343
C27   C     C_R   0.622102 0.056834 0.513567 0.343565
C28   C     C_R   0.492915 0.133375 0.532925 -0.212189
H14   H     H_    0.809128 0.639347 0.622639 0.177830
C29   C     C_R   0.911177 0.323345 0.371673 -0.172237
H15   H     H_    0.809116 0.329235 0.357058 0.218872
C30   C     C_R   0.995671 0.216119 0.328793 -0.216970
H16   H     H_    0.954175 0.145320 0.286335 0.204452
C31   C     C_R   0.133137 0.199551 0.338228 0.333257
C32   C     C_R   0.196880 0.302549 0.371961 0.259887
C33   C     C_R   0.104829 0.408882 0.434340 -0.021637
C34   C     C_R   0.954693 0.412423 0.435284 0.177059
N1    N     N_R   0.852480 0.498790 0.499000 -0.207468
C35   C     C_R   0.892657 0.577373 0.566919 -0.081818
C36   C     C_R   0.037727 0.574011 0.571796 0.378660
N2    N     N_R   0.148360 0.498710 0.498970 -0.242146
N3    N     N_R   0.756832 0.103641 0.518398 0.116052
O9    O     O_R   0.756687 0.183470 0.595765 -0.409760
O10   O     O_R   0.878818 0.041313 0.466381 -0.396817
N4    N     N_R   0.219667 0.088722 0.286762 0.156146
O11   O     O_R   0.187792 0.984418 0.325652 -0.348715
O12   O     O_R   0.301459 0.086711 0.190030 -0.281242
N5    N     N_R   0.337941 0.313599 0.302259 0.160964
O13   O     O_R   0.341956 0.355783 0.213739 -0.382085
O14   O     O_R   0.446090 0.237964 0.303296 -0.344713
N6    N     N_R   0.057240 0.633946 0.665494 0.098542
O15   O     O_R   0.163016 0.703949 0.662412 -0.369549
O16   O     O_R   0.954587 0.633718 0.754175 -0.411186

loop_
_geom_bond_atom_site_label_1
_geom_bond_atom_site_label_2
_geom_bond_distance
_ccdc_geom_bond_type
C5    H3    1.084114 S    
C30   H16   1.084062 S    
Cu1   Cu2   2.713226 S    
C29   H15   1.059891 S    
Cu1   O7    1.943233 S    
C33   N2    1.417003 A    
N6    O16   1.302164 A    
C16   H4    1.077437 S    
C19   H10   1.073637 S    
O7    C4    1.310939 A    
C32   N5    1.419274 S    
H1    C17   1.083097 S    
C1    C25   1.478729 S    
O5    C3    1.308273 A    
C3    C28   1.478610 S    
N4    O11   1.299908 A    
N3    O10   1.299930 A    
C10   C11   1.420193 A    
Cu2   N1    2.038469 S    
C20   C21   1.386689 A    
C2    C18   1.477874 S    
C33   C34   1.442968 A    
C8    C9    1.390596 A    
C21   C22   1.389832 A    
O3    Cu1   1.953419 S    
C29   C34   1.402757 A    
C22   C23   1.416654 A    
C29   C30   1.371238 A    
C12   C16   1.404494 A    
C9    H6    1.076814 S    
N6    O15   1.294962 A    
H2    C14   1.084418 S    
O3    C2    1.312291 A    
N5    O14   1.302176 A    
C5    C13   1.402021 A    
C12   C13   1.421547 A    
C23   C28   1.417277 A    
C34   N1    1.366549 A    
O1    C1    1.301647 A    
C35   C36   1.419074 A    
H9    C26   1.082734 S    
C24   C25   1.428181 A    
Cu2   O8    1.953419 S    
C27   C28   1.409876 A    
C13   C14   1.389866 A    
C19   C24   1.416549 A    
C7    H5    1.079102 S    
Cu2   O6    1.984884 S    
C25   C26   1.398585 A    
O8    C4    1.299234 A    
N3    O9    1.300189 A    
C30   C31   1.374072 A    
C21   H12   1.082136 S    
C31   N4    1.434054 S    
C6    C16   1.393971 A    
C22   H13   1.081956 S    
C5    C17   1.389967 A    
Cu1   O5    1.965058 S    
C23   C24   1.415754 A    
C20   H11   1.082064 S    
O1    Cu1   1.984885 S    
C4    C6    1.462077 S    
O2    Cu2   1.965059 S    
C11   C15   1.411183 A    
O6    C3    1.309773 A    
O4    Cu2   1.943232 S    
C8    H7    1.082996 S    
C36   N6    1.438183 S    
O2    C1    1.315354 A    
C32   C33   1.460531 A    
C11   C18   1.421942 A    
N5    O13   1.299851 A    
H14   C35   1.082450 S    
C19   C20   1.393023 A    
C31   C32   1.411223 A    
O4    C2    1.304079 A    
C10   C12   1.424983 A    
N1    C35   1.353873 A    
C27   N3    1.435418 S    
Cu1   N2    2.039826 S    
C36   N2    1.390114 A    
C7    C8    1.386979 A    
C15   H8    1.076542 S    
N4    O12   1.301253 A    
C26   C27   1.386189 A    
C14   C15   1.383951 A    
C9    C10   1.417430 A    
C6    C17   1.399825 A    
C7    C18   1.401080 A    
