data_str_m9_o2_o23_f0_sra.sym.73
_audit_creation_date              2012-12-11T16:31:33-0500
_audit_creation_method            fapswitch 2.2
_symmetry_space_group_name_H-M    P1
_symmetry_Int_Tables_number       1
_space_group_crystal_system       triclinic
_cell_length_a                    6.997417
_cell_length_b                    18.280395
_cell_length_c                    20.134398
_cell_angle_alpha                 68.374318
_cell_angle_beta                  93.411625
_cell_angle_gamma                 92.339855
_cell_volume                      2389.47787049

loop_
_atom_site_label
_atom_site_type_symbol
_atom_type_description
_atom_site_fract_x
_atom_site_fract_y
_atom_site_fract_z
_atom_type_partial_charge
O1    O     O_R   0.488990 0.443920 0.942160 -0.539274
O2    O     O_R   0.823840 0.406530 0.087600 -0.517738
O3    O     O_R   0.999650 0.556080 0.057840 -0.520552
C1    C     C_R   0.657982 0.384489 0.115654 0.785920
O4    O     O_R   0.818390 0.434590 0.944530 -0.526009
O5    O     O_R   0.994160 0.584350 0.913750 -0.540342
C2    C     C_R   0.643292 0.420337 0.924272 0.700471
O6    O     O_R   0.494480 0.415650 0.086250 -0.542032
O7    O     O_3   0.662600 0.549100 0.990070 -0.372007
V1    V     V_3+5 0.935320 0.490890 0.001840 1.511930
O8    O     O_R   0.324240 0.593470 0.912400 -0.541340
C3    C     C_R   0.153520 0.616182 0.884962 0.674030
O9    O     O_R   0.329690 0.565410 0.055470 -0.537219
C4    C     C_R   0.165724 0.579959 0.075598 0.737465
V2    V     V_3+5 0.435990 0.509110 0.998160 1.480168
O10   O     O_3   0.158840 0.450900 0.009930 -0.364826
C5    C     C_3   0.010202 0.668979 0.267149 0.120441
C6    C     C_3   0.354971 0.720081 0.240901 0.657157
C7    C     C_3   0.336630 0.765559 0.293572 0.116007
H1    H     H_    0.041500 0.678778 0.372668 0.122086
H2    H     H_    0.061580 0.608967 0.300305 0.092619
H3    H     H_    0.375069 0.725930 0.349335 0.084435
C8    C     C_1   0.100622 0.874380 0.378534 -0.131975
C9    C     C_3   0.151130 0.710976 0.206160 -0.000521
C10   C     C_3   0.997528 0.716652 0.316866 -0.369447
C11   C     C_3   0.126654 0.791945 0.291960 -0.018995
C12   C     C_3   0.062933 0.842526 0.213673 -0.267170
C13   C     C_3   0.070427 0.795070 0.163491 0.225613
C14   C     C_1   0.108966 0.836936 0.339893 0.067824
C15   C     C_1   0.161264 0.664692 0.158698 -0.043558
C16   C     C_1   0.166432 0.626515 0.120532 -0.185746
H4    H     H_    0.920939 0.789278 0.143011 0.147286
H5    H     H_    0.914325 0.862737 0.212003 0.184639
H6    H     H_    0.846778 0.733176 0.318018 0.258168
H7    H     H_    0.155022 0.896554 0.194005 0.210790
C17   C     C_R   0.040599 0.767460 0.879967 -0.193006
C18   C     C_R   0.996545 0.839676 0.882010 -0.271761
C19   C     C_R   0.009126 0.907933 0.821031 0.426586
C20   C     C_R   0.061812 0.903175 0.756428 0.201835
C21   C     C_R   0.092111 0.828062 0.751314 -0.070398
C22   C     C_R   0.089736 0.759831 0.815853 0.051505
C23   C     C_R   0.127139 0.818167 0.685661 -0.136627
C24   C     C_R   0.173748 0.742803 0.686463 0.064641
C25   C     C_R   0.183167 0.676833 0.751863 -0.015663
C26   C     C_R   0.140220 0.685222 0.816402 -0.121124
C27   C     C_R   0.211147 0.731594 0.622497 -0.189296
C28   C     C_R   0.259031 0.658111 0.623167 -0.210749
C29   C     C_R   0.270091 0.593136 0.687590 0.437996
C30   C     C_R   0.231567 0.602680 0.751051 -0.136454
H8    H     H_    0.035147 0.717509 0.929826 0.125576
H9    H     H_    0.957846 0.842606 0.932259 0.126770
H10   H     H_    0.204162 0.779365 0.571018 0.110729
H11   H     H_    0.287307 0.651981 0.573190 0.120267
H12   H     H_    0.238963 0.550868 0.799628 0.141003
H13   H     H_    0.848867 0.466068 0.322527 0.136914
C31   C     C_R   0.569153 0.227042 0.121681 -0.133073
C32   C     C_R   0.522613 0.152085 0.121732 0.407290
C33   C     C_R   0.508440 0.088887 0.187065 -0.191171
C34   C     C_R   0.539780 0.100682 0.251403 -0.181551
C35   C     C_R   0.585243 0.176387 0.252475 0.058689
C36   C     C_R   0.601625 0.240740 0.186260 -0.023023
C37   C     C_R   0.609421 0.188738 0.318075 -0.119783
C38   C     C_R   0.645052 0.266717 0.316720 -0.038442
C39   C     C_R   0.693232 0.328347 0.251235 0.014428
C40   C     C_R   0.655208 0.316759 0.185336 -0.138537
C41   C     C_R   0.631509 0.286768 0.378135 0.216077
C42   C     C_R   0.710509 0.357186 0.379669 -0.100270
C43   C     C_R   0.788089 0.411912 0.319396 -0.225492
C44   C     C_R   0.774300 0.400239 0.254178 0.340936
H14   H     H_    0.581275 0.274220 0.070181 0.103780
H15   H     H_    0.472211 0.030319 0.188231 0.169639
H16   H     H_    0.525493 0.049802 0.300204 0.139095
H17   H     H_    0.703095 0.371570 0.427044 0.201369
O11   O     O_R   0.770890 0.084490 0.414040 -0.538162
O12   O     O_R   0.445980 0.065450 0.555510 -0.493700
O13   O     O_R   0.270670 0.915620 0.586180 -0.537251
C45   C     C_R   0.620869 0.078536 0.576983 0.781147
O14   O     O_R   0.441480 0.093500 0.412450 -0.525315
O15   O     O_R   0.266140 0.943870 0.442100 -0.540959
C46   C     C_R   0.608555 0.119210 0.386985 0.729608
O16   O     O_R   0.775410 0.056240 0.558120 -0.522338
O17   O     O_3   0.602660 0.950990 0.510100 -0.385817
V3    V     V_3+5 0.329740 0.009100 0.498130 1.577047
O18   O     O_R   0.936120 0.934420 0.444240 -0.541163
C47   C     C_R   0.100289 0.920236 0.423995 0.683050
O19   O     O_R   0.940610 0.906370 0.587310 -0.537955
C48   C     C_R   0.111447 0.884622 0.615585 0.744307
V4    V     V_3+5 0.829110 0.990690 0.501470 1.527866
O20   O     O_3   0.106080 0.049010 0.489880 -0.336536
C49   C     C_3   0.829771 0.266813 0.705447 0.548113
C50   C     C_3   0.468439 0.267029 0.678835 0.568313
C51   C     C_3   0.425740 0.300417 0.738491 -0.382866
H18   H     H_    0.742033 0.381882 0.702518 0.176320
H19   H     H_    0.382395 0.362889 0.713975 0.211827
H20   H     H_    0.305310 0.266476 0.769599 0.256456
C52   C     C_1   0.614632 0.374867 0.878422 -0.086854
C53   C     C_3   0.648617 0.212956 0.704859 -0.007163
C54   C     C_3   0.782923 0.324095 0.743875 0.019662
C55   C     C_3   0.605614 0.292769 0.790689 -0.008900
C56   C     C_3   0.623831 0.203508 0.835151 -0.426268
C57   C     C_3   0.623181 0.155614 0.784736 0.115467
C58   C     C_1   0.596110 0.337644 0.839144 0.154878
C59   C     C_1   0.664354 0.165172 0.658798 0.222699
C60   C     C_1   0.648843 0.125592 0.621509 -0.003864
H21   H     H_    0.744468 0.113964 0.802025 0.153836
H22   H     H_    0.756505 0.192562 0.870284 0.167960
H23   H     H_    0.503211 0.183122 0.871737 0.213500
O21   O     O_3   0.825869 0.661535 0.238197 -0.599146
H24   H     H_    0.823958 0.614146 0.225293 0.301501
O22   O     O_3   0.317148 0.519491 0.690380 -0.628561
H25   H     H_    0.339864 0.522424 0.641298 0.294985
O23   O     O_3   0.974620 0.980785 0.823532 -0.609397
H26   H     H_    0.939788 0.974117 0.872501 0.285393
Br1   Br    Br    0.113075 0.004187 0.682894 -0.416722
O24   O     O_3   0.492806 0.142572 0.057015 -0.643524
H27   H     H_    0.461574 0.086395 0.066102 0.299285
Br2   Br    Br    0.452322 0.238320 0.450470 -0.490137
O25   O     O_3   0.845168 0.457503 0.194057 -0.643670
H28   H     H_    0.907383 0.500405 0.206928 0.271401
O26   O     O_3   0.478414 0.763382 0.186614 -0.562078
H29   H     H_    0.508162 0.729829 0.159596 0.335469
Br3   Br    Br    0.908550 0.331641 0.608675 -0.426759
Br4   Br    Br    0.258581 0.206518 0.652811 -0.312090
O27   O     O_3   0.503925 0.330723 0.615188 -0.626355
H30   H     H_    0.383318 0.360261 0.598762 0.340843
O28   O     O_3   0.452869 0.110547 0.790844 -0.579654
H31   H     H_    0.462171 0.066415 0.837897 0.319694
O29   O     O_3   0.984583 0.218816 0.740691 -0.590215
H32   H     H_    0.981971 0.203555 0.793114 0.309784
Br5   Br    Br    0.007634 0.352681 0.793525 -0.571925
O30   O     O_3   0.436164 0.645472 0.277795 -0.631305
H33   H     H_    0.370772 0.618741 0.323035 0.253652
Br6   Br    Br    0.521252 0.853663 0.276930 -0.588906
O31   O     O_3   0.181557 0.837160 0.104908 -0.612838
H34   H     H_    0.140992 0.818656 0.065554 0.287325

loop_
_geom_bond_atom_site_label_1
_geom_bond_atom_site_label_2
_ccdc_geom_bond_type
C25   C30   A    
C29   O22   S    
O28   H31   S    
C52   C58   T    
C4    C16   S    
C1    O6    A    
O29   H32   S    
H13   C43   S    
C6    O30   S    
C32   O24   S    
C12   H5    S    
C2    C52   S    
C11   C12   S    
C18   C19   A    
C6    C9    S    
C8    C14   T    
C37   C46   S    
C17   C18   A    
O5    C3    A    
C15   C16   T    
C18   H9    S    
O19   V4    S    
C33   H15   S    
H1    C10   S    
C30   H12   S    
C27   H10   S    
C44   O25   S    
O21   H24   S    
C35   C37   A    
C6    C7    S    
C7    C11   S    
O22   H25   S    
O25   H28   S    
O8    V2    S    
O14   V3    S    
C55   C56   S    
C43   C44   A    
C41   Br2   S    
C42   H17   S    
O7    V1    S    
C49   C53   S    
C10   H6    S    
C28   H11   S    
C21   C23   A    
C41   C42   A    
C38   C41   A    
C34   C35   A    
O11   C46   A    
O9    C4    A    
C49   Br3   S    
C17   C22   A    
O13   V3    S    
O23   H26   S    
C57   H21   S    
C19   C20   A    
V3    O20   S    
C5    C9    S    
C42   C43   A    
C9    C13   S    
C13   H4    S    
C7    H3    S    
O18   C47   A    
C5    O21   S    
C50   C51   S    
O4    C2    A    
O19   C48   A    
C12   H7    S    
C10   C11   S    
C51   H20   S    
C5    H2    S    
C35   C36   A    
O2    C1    A    
C24   C25   A    
C37   C38   A    
C28   C29   A    
C45   O16   A    
C20   Br1   S    
C54   Br5   S    
C51   H19   S    
C57   O28   S    
C39   C44   A    
C50   C53   S    
O12   C45   A    
O13   C48   A    
C53   C59   S    
O3    C4    A    
O1    V2    S    
C21   C22   A    
O17   V3    S    
O6    V2    S    
C31   H14   S    
C50   O27   S    
O9    V2    S    
C13   O31   S    
C23   C24   A    
C19   O23   S    
O30   H33   S    
O2    V1    S    
C6    O26   S    
O15   C47   A    
C17   H8    S    
O26   H29   S    
O24   H27   S    
C31   C32   A    
C27   C28   A    
C29   C30   A    
C56   H23   S    
C49   O29   S    
O1    C2    A    
C25   C26   A    
O18   V4    S    
C3    C26   S    
O5    V1    S    
O8    C3    A    
O31   H34   S    
C7    Br6   S    
C34   H16   S    
C56   H22   S    
C5    C10   S    
C39   C40   A    
C33   C34   A    
O4    V1    S    
O3    V1    S    
V1    O10   S    
O15   V3    S    
O12   V3    S    
C32   C33   A    
C1    C40   S    
O17   V4    S    
C56   C57   S    
O14   C46   A    
O7    V2    S    
C24   C27   A    
C9    C15   S    
O16   V4    S    
C38   C39   A    
C20   C21   A    
C36   C40   A    
C55   C58   S    
V4    O20   S    
C11   C14   S    
C54   C55   S    
C8    C47   S    
C59   C60   T    
C22   C26   A    
C31   C36   A    
C45   C60   S    
C50   Br4   S    
C23   C48   S    
O11   V4    S    
H18   C54   S    
C49   C54   S    
C53   C57   S    
V2    O10   S    
C51   C55   S    
O27   H30   S    
C12   C13   S    
