data_str_m3_o40_o40_f0_fof.sym.26
_audit_creation_date              2012-12-10T16:37:23-0500
_audit_creation_method            fapswitch 2.2
_symmetry_space_group_name_H-M    P1
_symmetry_Int_Tables_number       1
_space_group_crystal_system       triclinic
_cell_length_a                    16.763079
_cell_length_b                    16.88819
_cell_length_c                    16.79591
_cell_angle_alpha                 65.400851
_cell_angle_beta                  65.46267
_cell_angle_gamma                 65.524394
_cell_volume                      3761.63114716

loop_
_atom_site_label
_atom_site_type_symbol
_atom_type_description
_atom_site_fract_x
_atom_site_fract_y
_atom_site_fract_z
_atom_type_partial_charge
C1    C     C_R   0.467570 0.928527 0.691365 -0.203891
C2    C     C_R   0.392003 0.657842 0.079554 -0.213567
C3    C     C_R   0.927272 0.600513 0.349897 -0.221550
C4    C     C_R   0.077206 0.398759 0.648869 -0.211500
C5    C     C_R   0.975918 0.177658 0.431291 0.988896
C6    C     C_R   0.024306 0.822278 0.568680 0.983833
C7    C     C_R   0.162126 0.424780 0.006037 0.963659
C8    C     C_R   0.821802 0.568251 0.025014 0.967539
C9    C     C_R   0.432424 0.973148 0.178335 1.051666
C10   C     C_R   0.568626 0.024652 0.822140 0.961401
C11   C     C_R   0.560239 0.820752 0.041745 0.968145
C12   C     C_R   0.533106 0.071977 0.307830 -0.208896
C13   C     C_R   0.432128 0.178694 0.973238 0.966657
C14   C     C_R   0.040859 0.560610 0.820487 0.939106
C15   C     C_R   0.959217 0.439418 0.179560 0.968640
C16   C     C_R   0.820496 0.041608 0.560073 0.956010
C17   C     C_R   0.179553 0.959193 0.439584 0.991545
C18   C     C_R   0.513908 0.942740 0.733960 -0.146274
C19   C     C_R   0.487004 0.057151 0.265397 -0.131289
C20   C     C_R   0.944053 0.733323 0.511681 -0.142516
C21   C     C_R   0.056643 0.265806 0.488842 -0.141764
C22   C     C_R   0.726706 0.509778 0.950849 -0.150118
C23   C     C_R   0.929983 0.690440 0.465666 -0.195416
C24   C     C_R   0.247684 0.501525 0.073172 -0.138942
C25   C     C_R   0.300212 0.919847 0.557708 -0.128329
C26   C     C_R   0.698989 0.083094 0.442005 -0.090388
C27   C     C_R   0.533526 0.311970 0.927033 -0.119944
C28   C     C_R   0.439841 0.704051 0.086005 -0.122097
C29   C     C_R   0.919903 0.555972 0.300610 -0.091178
C30   C     C_R   0.084496 0.443608 0.698063 -0.123591
C31   C     C_R   0.549652 0.011117 0.543566 0.041387
C32   C     C_R   0.450486 0.990355 0.455854 0.041694
C33   C     C_R   0.011614 0.543720 0.549146 0.039673
C34   C     C_R   0.071212 0.308437 0.534811 -0.202400
C35   C     C_R   0.990627 0.455381 0.450791 0.043378
C36   C     C_R   0.535098 0.554257 0.016366 0.041106
C37   C     C_R   0.439603 0.457286 0.003885 0.035280
C38   C     C_R   0.572839 0.041417 0.446766 0.039462
C39   C     C_R   0.427087 0.960479 0.552624 0.039794
C40   C     C_R   0.041920 0.447373 0.572789 0.040074
C41   C     C_R   0.960974 0.551686 0.426866 0.039747
C42   C     C_R   0.437920 0.581089 0.046498 0.041705
C43   C     C_R   0.536344 0.434971 0.967101 0.037652
C44   C     C_R   0.520794 0.033708 0.402882 0.045548
C45   C     C_R   0.680533 0.466648 0.936981 -0.202737
C46   C     C_R   0.479472 0.967612 0.596441 0.045372
C47   C     C_R   0.389990 0.530930 0.042496 0.046890
C48   C     C_R   0.584469 0.483961 0.973429 0.045713
C49   C     C_R   0.033771 0.403161 0.521390 0.044966
C50   C     C_R   0.968385 0.595828 0.478656 0.047355
C51   C     C_R   0.572118 0.999052 0.684160 0.001496
C52   C     C_R   0.428626 0.000982 0.315507 -0.003977
C53   C     C_R   0.999393 0.684222 0.571047 0.004091
C54   C     C_R   0.001538 0.315217 0.429193 -0.009916
C55   C     C_R   0.679758 0.570627 0.004116 0.001163
C56   C     C_R   0.293670 0.550006 0.078642 -0.194165
C57   C     C_R   0.295586 0.430736 0.032960 0.031498
C58   C     C_R   0.326627 0.943239 0.461828 0.000684
C59   C     C_R   0.673085 0.058636 0.537906 -0.000998
C60   C     C_R   0.438557 0.328496 0.969390 0.005508
C61   C     C_R   0.535826 0.675360 0.061299 -0.001985
C62   C     C_R   0.943783 0.460626 0.326879 -0.006326
C63   C     C_R   0.058509 0.538966 0.672709 0.014859
C64   C     C_R   0.605880 0.032571 0.725789 -0.284788
C65   C     C_R   0.395092 0.966516 0.274475 -0.219318
C66   C     C_R   0.032153 0.726075 0.605553 -0.257028
C67   C     C_R   0.349938 0.927069 0.602190 -0.214088
C68   C     C_R   0.968367 0.273765 0.394578 -0.269299
C69   C     C_R   0.724262 0.604669 0.034794 -0.274164
C70   C     C_R   0.249792 0.381983 0.024837 -0.257951
C71   C     C_R   0.279637 0.934271 0.413357 -0.213692
C72   C     C_R   0.720296 0.067112 0.586475 -0.185568
C73   C     C_R   0.388000 0.269502 0.984562 -0.245901
C74   C     C_R   0.586687 0.721318 0.067331 -0.194552
C75   C     C_R   0.935060 0.412390 0.279714 -0.192392
C76   C     C_R   0.066114 0.587462 0.720251 -0.238316
C77   C     C_R   0.673757 0.076570 0.672539 0.367748
C78   C     C_R   0.649426 0.075781 0.397339 -0.221743
C79   C     C_R   0.326645 0.923475 0.327937 0.365016
C80   C     C_R   0.075653 0.673165 0.673829 0.366733
C81   C     C_R   0.924850 0.326968 0.326340 0.398942
C82   C     C_R   0.672845 0.674076 0.076609 0.368961
C83   C     C_R   0.292951 0.293679 0.025068 0.302749
C84   C     C_R   0.597271 0.024211 0.588222 0.070488
C85   C     C_R   0.402925 0.976926 0.411389 0.071663
C86   C     C_R   0.024390 0.588671 0.596653 0.081203
C87   C     C_R   0.977351 0.410696 0.403320 0.070601
C88   C     C_R   0.583351 0.598940 0.028633 0.075232
C89   C     C_R   0.581265 0.363289 0.926396 -0.202754
C90   C     C_R   0.391622 0.405282 0.002527 0.087887
H1    H     H_    0.423999 0.884925 0.734520 0.146235
H2    H     H_    0.318563 0.685516 0.100000 0.154552
H3    H     H_    0.907901 0.673787 0.324432 0.150598
H4    H     H_    0.098257 0.325465 0.673494 0.145370
H5    H     H_    0.504211 0.907340 0.806117 0.169160
H6    H     H_    0.496860 0.092210 0.193174 0.174611
H7    H     H_    0.908949 0.805177 0.500972 0.164796
H8    H     H_    0.091243 0.193846 0.499837 0.171276
H9    H     H_    0.799425 0.495606 0.916837 0.172062
H10   H     H_    0.174158 0.517346 0.104648 0.157422
H11   H     H_    0.243211 0.892079 0.599775 0.218475
H12   H     H_    0.576902 0.115296 0.264388 0.145637
H13   H     H_    0.755572 0.111569 0.400264 0.218028
H14   H     H_    0.572812 0.259457 0.893471 0.219918
H15   H     H_    0.399965 0.760700 0.113940 0.223946
H16   H     H_    0.891580 0.597621 0.243985 0.221379
H17   H     H_    0.114632 0.402674 0.753709 0.176894
H18   H     H_    0.767992 0.253943 0.634565 0.379115
H19   H     H_    0.406509 0.715979 0.278018 0.387412
H20   H     H_    0.281684 0.729759 0.595077 0.382354
H21   H     H_    0.743041 0.366761 0.235471 0.378178
H22   H     H_    0.636977 0.763846 0.256980 0.377752
H23   H     H_    0.886907 0.733276 0.421429 0.143146
H24   H     H_    0.151636 0.277049 0.209701 0.321609
H25   H     H_    0.113760 0.265221 0.579481 0.143315
H26   H     H_    0.722702 0.419919 0.896963 0.143066
H27   H     H_    0.251158 0.600945 0.113591 0.144188
H28   H     H_    0.324671 0.907990 0.675919 0.153477
H29   H     H_    0.674311 0.095707 0.323594 0.150602
H30   H     H_    0.654150 0.343619 0.894443 0.150897
O1    O     O_R   0.982940 0.138950 0.510160 -0.645587
O2    O     O_R   0.982940 0.510160 0.138950 -0.688885
O3    O     O_R   0.861050 0.017060 0.489840 -0.668957
O4    O     O_R   0.138950 0.982940 0.510160 -0.663241
O5    O     O_R   0.867700 0.025880 0.612340 -0.575157
O6    O     O_R   0.132300 0.974120 0.387660 -0.555532
O7    O     O_R   0.025880 0.612340 0.867700 -0.563397
O8    O     O_R   0.974120 0.387660 0.132300 -0.528101
O9    O     O_R   0.612340 0.867700 0.025880 -0.577394
O10   O     O_R   0.387660 0.132300 0.974120 -0.554599
O11   O     O_R   0.387660 0.974120 0.132300 -0.521807
O12   O     O_R   0.017060 0.861050 0.489840 -0.633070
O13   O     O_R   0.612340 0.025880 0.867700 -0.557853
O14   O     O_R   0.132300 0.387660 0.974120 -0.572306
O15   O     O_R   0.867700 0.612340 0.025880 -0.564214
O16   O     O_R   0.974120 0.132300 0.387660 -0.548685
O17   O     O_R   0.025880 0.867700 0.612340 -0.566033
O18   O     O_2   0.606712 0.208728 0.752842 -0.325973
O19   O     O_2   0.755324 0.098047 0.767840 -0.298277
O20   O     O_3   0.749882 0.220991 0.611009 -0.518644
O21   O     O_2   0.257641 0.784573 0.382466 -0.291818
O22   O     O_2   0.252856 0.893120 0.231319 -0.256510
O23   O     O_R   0.138950 0.510160 0.982940 -0.619325
O24   O     O_3   0.410855 0.779093 0.250499 -0.573914
O25   O     O_2   0.103582 0.768225 0.750634 -0.273764
O26   O     O_2   0.215993 0.620451 0.741390 -0.303658
O27   O     O_3   0.218118 0.755211 0.591047 -0.562413
O28   O     O_2   0.900155 0.232635 0.246717 -0.277025
O29   O     O_2   0.789502 0.249623 0.394955 -0.305839
O30   O     O_3   0.778769 0.389706 0.250914 -0.526644
O31   O     O_2   0.752217 0.605688 0.210448 -0.298960
O32   O     O_2   0.770617 0.752455 0.098627 -0.304992
O33   O     O_3   0.612799 0.749847 0.221207 -0.524601
O34   O     O_R   0.861050 0.489840 0.017060 -0.640945
O35   O     O_2   0.203968 0.180964 0.045932 -0.226888
O36   O     O_2   0.283288 0.136214 0.158933 -0.353072
O37   O     O_3   0.131394 0.264004 0.169955 -0.549129
O38   O     O_R   0.510160 0.982940 0.138950 -0.662564
O39   O     O_R   0.489840 0.017060 0.861050 -0.651548
O40   O     O_R   0.489840 0.861050 0.017060 -0.667247
O41   O     O_R   0.510160 0.138950 0.982940 -0.651301
O42   O     O_R   0.017060 0.489840 0.861050 -0.668556
S1    S     S_3+6 0.695802 0.151788 0.704979 0.048311
S2    S     S_3+6 0.308249 0.844206 0.298050 0.046935
S3    S     S_3+6 0.154236 0.704222 0.692870 0.048772
S4    S     S_3+6 0.847571 0.295856 0.305334 0.059028
S5    S     S_3+6 0.706060 0.694897 0.152384 0.047399
S6    S     S_3+6 0.228460 0.214873 0.100002 0.053019
Zn1   Zn    Zn3+2 0.004880 0.004880 0.583590 1.059602
Zn2   Zn    Zn3+2 0.995120 0.995120 0.416410 1.098473
Zn3   Zn    Zn3+2 0.004880 0.583590 0.004880 1.064536
Zn4   Zn    Zn3+2 0.995120 0.416410 0.995120 1.071013
Zn5   Zn    Zn3+2 0.583590 0.004880 0.004880 1.068871
Zn6   Zn    Zn3+2 0.416410 0.995120 0.995120 1.091889

loop_
_geom_bond_atom_site_label_1
_geom_bond_atom_site_label_2
_ccdc_geom_bond_type
C77   S1    S    
C5    O16   A    
O1    Zn1   S    
H21   O30   S    
C37   C43   A    
C65   C79   A    
C15   O2    A    
C30   H17   S    
O28   S4    D    
C64   C77   A    
C60   C73   A    
C36   C42   A    
C16   C72   S    
C10   O13   A    
C79   S2    S    
C7    C70   S    
C7    O23   A    
C4    C30   A    
O25   S3    D    
O10   Zn6   S    
O20   S1    S    
C38   C44   A    
C1    C18   A    
C26   C78   A    
C37   C90   A    
C68   C81   A    
C52   C85   A    
C16   O3    A    
C27   C60   A    
O22   S2    D    
C54   C87   A    
C17   O6    A    
C54   C68   A    
C63   C76   A    
O36   S6    D    
O7    Zn3   S    
C40   C49   A    
O30   S4    S    
C5    O1    A    
C27   H14   S    
C56   H27   S    
C32   C39   A    
C55   C88   A    
C3    C29   A    
C69   C82   A    
O27   S3    S    
C35   C87   A    
C19   C52   A    
O4    Zn1   S    
C4    C40   A    
C39   C67   A    
C24   C57   A    
C31   C46   A    
C25   C67   A    
C13   O41   A    
C35   C49   A    
C13   O10   A    
C89   H30   S    
C36   C48   A    
C53   C86   A    
O15   Zn3   S    
C57   C70   A    
C37   C47   A    
O5    Zn1   S    
C43   C48   A    
O35   S6    D    
O17   Zn1   S    
C59   C72   A    
C28   C61   A    
C83   S6    S    
C1    H1    S    
O14   Zn4   S    
C30   C63   A    
O33   S5    S    
C8    O15   A    
C18   H5    S    
O9    Zn5   S    
O12   Zn2   S    
C74   C82   A    
C5    C68   S    
C35   C41   A    
C11   O9    A    
O37   S6    S    
C71   C79   A    
C11   O40   A    
C82   S5    S    
C9    O11   A    
C32   C44   A    
C33   C40   A    
C57   C90   A    
C20   H7    S    
C70   C83   A    
C59   C84   A    
C7    O14   A    
C6    O12   A    
H18   O20   S    
C75   C81   A    
C23   C50   A    
C21   C34   A    
C38   C78   A    
C33   C50   A    
O39   Zn6   S    
C36   C88   A    
C31   C84   A    
C14   C76   S    
C41   C50   A    
C14   O42   A    
C33   C86   A    
H24   O37   S    
C12   H12   S    
C72   C77   A    
O6    Zn2   S    
C61   C88   A    
C26   H13   S    
C23   H23   S    
O41   Zn5   S    
H19   O24   S    
C17   O4    A    
C20   C23   A    
C28   H15   S    
C81   S4    S    
C8    C69   S    
O34   Zn4   S    
C3    H3    S    
C43   C89   A    
C2    H2    S    
C53   C66   A    
O18   S1    D    
C39   C46   A    
C4    H4    S    
O26   S3    D    
O16   Zn2   S    
C17   C71   S    
C15   O8    A    
C63   C86   A    
C61   C74   A    
C29   H16   S    
C25   C58   A    
C62   C75   A    
H20   O27   S    
C58   C85   A    
C80   S3    S    
O32   S5    D    
C8    O34   A    
C15   C75   S    
C16   O5    A    
C45   C48   A    
C29   C62   A    
C3    C41   A    
C34   C49   A    
C22   H9    S    
C24   H10   S    
O40   Zn6   S    
C10   C64   S    
C51   C64   A    
C76   C80   A    
C13   C73   S    
C20   C53   A    
C11   C74   S    
C2    C28   A    
O8    Zn4   S    
C22   C55   A    
C60   C90   A    
C18   C51   A    
C24   C56   A    
C66   C80   A    
C62   C87   A    
O11   Zn6   S    
C31   C38   A    
H22   O33   S    
C55   C69   A    
C6    O17   A    
O19   S1    D    
C78   H29   S    
C34   H25   S    
O23   Zn3   S    
C12   C44   A    
C21   H8    S    
C45   H26   S    
C25   H11   S    
C21   C54   A    
C9    O38   A    
C2    C42   A    
O31   S5    D    
C32   C85   A    
C51   C84   A    
C12   C19   A    
C27   C89   A    
O38   Zn5   S    
C42   C47   A    
C1    C46   A    
C67   H28   S    
C9    C65   S    
O3    Zn2   S    
C58   C71   A    
C14   O7    A    
C19   H6    S    
C6    C66   S    
C22   C45   A    
O42   Zn4   S    
O21   S2    D    
O2    Zn3   S    
C26   C59   A    
O29   S4    D    
O13   Zn5   S    
C10   O39   A    
C73   C83   A    
O24   S2    S    
C52   C65   A    
C47   C56   A    
