data_str_m9_o1_o16_f0_sra.sym.100
_audit_creation_date              2012-12-11T15:46:59-0500
_audit_creation_method            fapswitch 2.2
_symmetry_space_group_name_H-M    P1
_symmetry_Int_Tables_number       1
_space_group_crystal_system       triclinic
_cell_length_a                    20.172669
_cell_length_b                    7.268964
_cell_length_c                    13.663129
_cell_angle_alpha                 90.000077
_cell_angle_beta                  102.732799
_cell_angle_gamma                 89.999986
_cell_volume                      1954.21615789

loop_
_atom_site_label
_atom_site_type_symbol
_atom_type_description
_atom_site_fract_x
_atom_site_fract_y
_atom_site_fract_z
_atom_type_partial_charge
O1    O     O_R   0.449560 0.506810 0.599700 -0.537699
O2    O     O_R   0.550440 0.006810 0.400300 -0.537717
O3    O     O_R   0.587960 0.180060 0.595760 -0.547961
O4    O     O_R   0.412040 0.680060 0.404240 -0.547949
C1    C     C_R   0.613817 0.344684 0.619706 0.692497
C2    C     C_R   0.386184 0.844684 0.380292 0.692530
O5    O     O_R   0.452380 0.177430 0.611700 -0.538575
O6    O     O_R   0.547620 0.677430 0.388300 -0.538570
O7    O     O_R   0.413900 0.001890 0.416350 -0.536281
O8    O     O_R   0.586100 0.501890 0.583650 -0.536274
C3    C     C_R   0.435547 0.346031 0.636374 0.745567
C4    C     C_R   0.564454 0.846031 0.363628 0.745546
O9    O     O_3   0.487530 0.337490 0.435890 -0.384018
O10   O     O_3   0.512470 0.837490 0.564110 -0.384019
V1    V     V_3+5 0.502310 0.064660 0.511890 1.422958
V2    V     V_3+5 0.497690 0.564660 0.488110 1.422994
C5    C     C_R   0.616497 0.928779 0.121171 -0.163511
C6    C     C_R   0.383508 0.428754 0.878837 -0.163517
H1    H     H_    0.521886 0.881999 0.163281 0.131427
H2    H     H_    0.478118 0.381966 0.836723 0.131430
H3    H     H_    0.702964 0.047442 0.014448 0.117241
H4    H     H_    0.297043 0.547418 0.985566 0.117240
H5    H     H_    0.591902 0.963895 0.044677 0.128699
H6    H     H_    0.408104 0.463857 0.955333 0.128699
C7    C     C_R   0.606927 0.857881 0.289974 -0.129366
C8    C     C_R   0.393076 0.357879 0.710030 -0.129383
C9    C     C_R   0.932718 0.757482 0.307476 0.418887
C10   C     C_R   0.067285 0.257510 0.692524 0.418889
C11   C     C_R   0.893601 0.691415 0.373178 -0.341547
C12   C     C_R   0.106402 0.191445 0.626821 -0.341554
C13   C     C_R   0.823227 0.724987 0.356931 0.451135
C14   C     C_R   0.176778 0.225006 0.643073 0.451115
C15   C     C_R   0.790995 0.835153 0.273586 -0.011133
C16   C     C_R   0.209010 0.335159 0.726422 -0.011154
C17   C     C_R   0.830047 0.895220 0.204263 -0.064101
C18   C     C_R   0.169959 0.395220 0.795747 -0.064108
C19   C     C_R   0.719390 0.872494 0.250750 0.006037
C20   C     C_R   0.280615 0.372497 0.749259 0.006058
C21   C     C_R   0.687506 0.928464 0.152174 0.082176
C22   C     C_R   0.312500 0.428452 0.847836 0.082181
C23   C     C_R   0.726775 0.990626 0.087050 -0.171618
C24   C     C_R   0.273231 0.490610 0.912962 -0.171613
C25   C     C_R   0.797107 0.985165 0.115594 -0.158587
C26   C     C_R   0.202900 0.485157 0.884417 -0.158590
C27   C     C_R   0.678086 0.866395 0.322671 0.466772
C28   C     C_R   0.321916 0.366408 0.677336 0.466761
C29   C     C_R   0.576581 0.884186 0.188769 -0.263834
C30   C     C_R   0.423423 0.384165 0.811236 -0.263839
C31   C     C_R   0.900126 0.852181 0.220515 -0.171101
C32   C     C_R   0.099878 0.352188 0.779491 -0.171089
H7    H     H_    0.916965 0.598763 0.432401 0.133919
H8    H     H_    0.083039 0.098806 0.567592 0.133911
H9    H     H_    0.825280 0.043607 0.064551 0.129076
H10   H     H_    0.174726 0.543602 0.935460 0.129070
C33   C     C_R   0.225563 0.030117 0.206903 0.108820
C34   C     C_R   0.774437 0.530113 0.793100 0.108813
C35   C     C_R   0.295732 0.014930 0.252841 0.112696
C36   C     C_R   0.704268 0.514922 0.747162 0.112707
C37   C     C_R   0.319026 0.853087 0.307653 -0.072583
C38   C     C_R   0.680976 0.353087 0.692342 -0.072578
C39   C     C_R   0.275819 0.698998 0.296071 -0.226809
C40   C     C_R   0.724186 0.199004 0.703913 -0.226816
H11   H     H_    0.292705 0.571849 0.334783 0.141694
H12   H     H_    0.707303 0.071862 0.665189 0.141701
C41   C     C_R   0.210333 0.705915 0.235054 -0.219059
C42   C     C_R   0.789671 0.205917 0.764934 -0.219049
H13   H     H_    0.178005 0.586825 0.229445 0.158114
H14   H     H_    0.822000 0.086827 0.770540 0.158105
C43   C     C_R   0.184037 0.868443 0.187486 -0.094594
C44   C     C_R   0.815964 0.368441 0.812512 -0.094595
O11   O     O_R   0.913920 0.203370 0.916260 -0.543111
O12   O     O_R   0.086080 0.703370 0.083740 -0.543111
O13   O     O_R   0.047620 0.535540 0.888290 -0.551809
O14   O     O_R   0.952380 0.035540 0.111710 -0.551810
C45   C     C_R   0.063204 0.367746 0.861524 0.755933
C46   C     C_R   0.936799 0.867745 0.138480 0.755925
O15   O     O_R   0.912040 0.532780 0.904220 -0.539455
O16   O     O_R   0.087960 0.032780 0.095780 -0.539457
O17   O     O_R   0.949550 0.708160 0.099720 -0.522010
O18   O     O_R   0.050450 0.208160 0.900280 -0.522014
C47   C     C_R   0.885664 0.366592 0.881487 0.711790
C48   C     C_R   0.114337 0.866593 0.118513 0.711777
O19   O     O_3   0.012480 0.375300 0.064060 -0.382865
O20   O     O_3   0.987520 0.875300 0.935940 -0.382868
V3    V     V_3+5 0.997690 0.648180 0.988110 1.419873
V4    V     V_3+5 0.002310 0.148180 0.011890 1.419868
C49   C     C_3   0.344809 0.168597 0.238487 -0.340396
C50   C     C_3   0.399684 0.099650 0.186184 -0.730423
H15   H     H_    0.432568 0.995579 0.232074 0.206185
H16   H     H_    0.375856 0.038195 0.112351 0.219494
H17   H     H_    0.432244 0.216589 0.173549 0.212022
H18   H     H_    0.319126 0.279766 0.189884 0.185080
H19   H     H_    0.367142 0.238573 0.310059 0.204668
C51   C     C_3   0.655190 0.668582 0.761523 -0.340400
C52   C     C_3   0.600317 0.599621 0.813828 -0.730429
H20   H     H_    0.567445 0.495517 0.767947 0.206173
H21   H     H_    0.624149 0.538203 0.887669 0.219497
H22   H     H_    0.567746 0.716546 0.826446 0.212028
H23   H     H_    0.680873 0.779749 0.810129 0.185086
H24   H     H_    0.632855 0.738563 0.689954 0.204670
O21   O     O_3   0.705516 0.885274 0.424388 -0.550348
C53   C     C_3   0.727544 0.068640 0.444487 -0.261758
H25   H     H_    0.683327 0.163342 0.435653 0.158308
H26   H     H_    0.762526 0.115536 0.396964 0.140918
H27   H     H_    0.756723 0.076925 0.523100 0.150348
O22   O     O_3   0.294487 0.385337 0.575621 -0.550358
C54   C     C_3   0.272451 0.568706 0.555559 -0.261690
H28   H     H_    0.316660 0.663478 0.564570 0.158272
H29   H     H_    0.237381 0.615421 0.602982 0.140907
H30   H     H_    0.243364 0.577102 0.476901 0.150366
O23   O     O_3   0.000390 0.706020 0.316284 -0.547165
C55   C     C_3   0.038043 0.714970 0.416344 -0.272465
H31   H     H_    0.030996 0.587738 0.457804 0.141011
H32   H     H_    0.025552 0.839434 0.456206 0.122885
H33   H     H_    0.092768 0.722086 0.415151 0.154467
O24   O     O_3   0.999610 0.206067 0.683713 -0.547172
C56   C     C_3   0.961962 0.214959 0.583650 -0.272462
H34   H     H_    0.969027 0.087727 0.542205 0.140998
H35   H     H_    0.974438 0.339431 0.543782 0.122906
H36   H     H_    0.907234 0.222014 0.584835 0.154466
O25   O     O_3   0.783626 0.620610 0.407765 -0.533894
C57   C     C_3   0.810681 0.618390 0.512558 -0.159222
H37   H     H_    0.833751 0.752522 0.541537 0.123472
H38   H     H_    0.847974 0.505203 0.532796 0.102711
H39   H     H_    0.768690 0.590195 0.550998 0.167826
O26   O     O_3   0.216379 0.120635 0.592238 -0.533903
C58   C     C_3   0.189327 0.118421 0.487445 -0.159252
H40   H     H_    0.166259 0.252557 0.458467 0.123503
H41   H     H_    0.152032 0.005238 0.467203 0.102705
H42   H     H_    0.231319 0.090224 0.449007 0.167821
C59   C     C_3   0.194795 0.220858 0.199011 -0.360962
C60   C     C_3   0.188014 0.304127 0.094549 -0.664181
H43   H     H_    0.189848 0.197647 0.036827 0.220555
H44   H     H_    0.139248 0.378582 0.072950 0.232759
H45   H     H_    0.228890 0.405765 0.094870 0.184809
H46   H     H_    0.145630 0.221003 0.222841 0.186382
H47   H     H_    0.226339 0.311410 0.256069 0.143244
C61   C     C_3   0.805203 0.720857 0.800990 -0.360959
C62   C     C_3   0.811985 0.804134 0.905450 -0.664187
H48   H     H_    0.810146 0.697660 0.963173 0.220553
H49   H     H_    0.860753 0.878579 0.927051 0.232766
H50   H     H_    0.771112 0.905785 0.905126 0.184809
H51   H     H_    0.854368 0.721002 0.777158 0.186378
H52   H     H_    0.773659 0.811405 0.743931 0.143249

loop_
_geom_bond_atom_site_label_1
_geom_bond_atom_site_label_2
_ccdc_geom_bond_type
C42   H14   S    
C49   C50   S    
O21   C53   S    
C9    C11   A    
C54   H29   S    
O23   C55   S    
O1    C3    A    
C46   O17   A    
O2    C4    A    
C2    O7    A    
C55   H32   S    
O12   V3    S    
C52   H22   S    
O3    V1    S    
C21   C23   A    
C42   C44   A    
O5    C3    A    
C5    H5    S    
O14   C46   A    
C6    H6    S    
C61   H51   S    
C56   H35   S    
C62   H50   S    
H1    C29   S    
C35   C37   A    
O22   C54   S    
C36   C38   A    
C49   H19   S    
O24   C56   S    
C53   H27   S    
C38   C40   A    
C5    C21   A    
C14   O26   S    
C39   H11   S    
C44   C47   S    
C6    C22   A    
C40   H12   S    
C43   C48   S    
C10   O24   S    
C10   C32   A    
C25   H9    S    
C52   H20   S    
C60   H43   S    
C41   H13   S    
C17   C31   A    
O18   V4    S    
C54   H28   S    
C13   C15   A    
C51   H24   S    
C12   C14   A    
C17   C25   A    
C45   O18   A    
C7    C29   A    
C8    C30   A    
O16   V4    S    
O5    V1    S    
C9    O23   S    
O6    V2    S    
C49   H18   S    
O13   C45   A    
C51   C52   S    
C24   C26   A    
C55   H31   S    
C19   C21   A    
C37   C39   A    
C40   C42   A    
C9    C31   A    
C60   H45   S    
O20   V3    S    
C13   O25   S    
O4    C2    A    
C59   H46   S    
C56   H36   S    
C3    C8    S    
C15   C19   A    
C35   C49   S    
C14   C16   A    
O4    V2    S    
C58   H41   S    
C59   H47   S    
C26   H10   S    
O11   V4    S    
C34   C61   S    
O16   C48   A    
C50   H17   S    
O15   C47   A    
O6    C4    A    
C31   C46   S    
O1    V2    S    
C33   C43   A    
O14   V4    S    
C53   H26   S    
O2    V1    S    
O13   V3    S    
O25   C57   S    
H2    C30   S    
C27   O21   S    
H3    C23   S    
C50   H16   S    
C33   C59   S    
C33   C35   A    
C54   H30   S    
C18   C26   A    
C19   C27   A    
C59   C60   S    
C7    C27   A    
O17   V3    S    
C18   C32   A    
C11   H7    S    
C12   H8    S    
C1    C38   S    
C16   C20   A    
C2    C37   S    
C23   C25   A    
C5    C29   A    
O3    C1    A    
C6    C30   A    
C62   H48   S    
C52   H21   S    
C34   C44   A    
C4    C7    S    
C57   H39   S    
C10   C12   A    
C36   C51   S    
C58   H42   S    
C1    O8    A    
C11   C13   A    
O8    V2    S    
C32   C45   S    
C20   C22   A    
C62   H49   S    
H4    C24   S    
C51   H23   S    
O26   C58   S    
C41   C43   A    
C28   O22   S    
C22   C24   A    
C15   C17   A    
C34   C36   A    
C16   C18   A    
O7    V1    S    
C53   H25   S    
C20   C28   A    
C61   C62   S    
C8    C28   A    
O15   V3    S    
C39   C41   A    
O19   V4    S    
C50   H15   S    
C60   H44   S    
O9    V2    S    
O10   V1    S    
C61   H52   S    
C57   H37   S    
C56   H34   S    
C57   H38   S    
C55   H33   S    
O12   C48   A    
C58   H40   S    
O11   C47   A    
