data_str_m3_o12_o15_f0_pcu.sym.153
_audit_creation_date              2012-12-10T17:16:36-0500
_audit_creation_method            fapswitch 2.2
_symmetry_space_group_name_H-M    P1
_symmetry_Int_Tables_number       1
_space_group_crystal_system       triclinic
_cell_length_a                    10.165167
_cell_length_b                    10.594391
_cell_length_c                    10.876739
_cell_angle_alpha                 90.983965
_cell_angle_beta                  94.220047
_cell_angle_gamma                 82.86437
_cell_volume                      1159.09517977

loop_
_atom_site_label
_atom_site_type_symbol
_atom_type_description
_atom_site_fract_x
_atom_site_fract_y
_atom_site_fract_z
_atom_type_partial_charge
C1    C     C_R   0.444947 0.510830 0.268201 1.016481
C2    C     C_R   0.555116 0.488313 0.731722 0.988305
C3    C     C_2   0.413501 0.512689 0.137376 -0.332934
C4    C     C_2   0.587126 0.485683 0.862448 -0.265766
C5    C     C_2   0.512885 0.508559 0.064595 -0.025373
C6    C     C_2   0.488456 0.487209 0.935565 -0.044504
C7    C     C_2   0.065545 0.513308 0.476344 -0.083114
C8    C     C_2   0.924629 0.514976 0.508011 -0.041927
C9    C     C_R   0.493167 0.259858 0.485130 0.944180
C10   C     C_R   0.507257 0.739190 0.517880 0.938306
C11   C     C_R   0.652798 0.069589 0.318312 0.473276
C12   C     C_R   0.334056 0.919150 0.677860 0.460204
C13   C     C_R   0.775255 0.997900 0.299040 -0.221008
C14   C     C_R   0.207478 0.985586 0.688829 -0.204681
C15   C     C_R   0.827442 0.900787 0.379593 -0.230843
C16   C     C_R   0.163594 0.090367 0.615115 -0.237523
C17   C     C_R   0.749355 0.863249 0.468912 -0.105105
C18   C     C_R   0.250465 0.136115 0.538569 -0.124602
C19   C     C_R   0.620210 0.926524 0.480990 0.023195
C20   C     C_R   0.379926 0.072771 0.528830 0.029740
C21   C     C_R   0.584052 0.043085 0.421910 -0.070190
C22   C     C_R   0.412964 0.953467 0.584119 -0.057791
C23   C     C_R   0.522575 0.873731 0.542826 -0.131945
C24   C     C_R   0.477512 0.124482 0.465536 -0.101316
H1    H     H_    0.065055 0.140731 0.622603 0.168154
H2    H     H_    0.924493 0.849112 0.367672 0.170068
H3    H     H_    0.829670 0.016738 0.220794 0.185198
H4    H     H_    0.144966 0.959600 0.758339 0.155557
H5    H     H_    0.789819 0.784460 0.527617 0.156679
H6    H     H_    0.214459 0.219192 0.484752 0.172627
H7    H     H_    0.387559 0.477450 0.899678 0.183419
H8    H     H_    0.614348 0.516209 0.100768 0.176391
H9    H     H_    0.688858 0.491432 0.898707 0.141625
H10   H     H_    0.311564 0.508684 0.100786 0.134187
H11   H     H_    0.888701 0.568994 0.586655 0.123605
H12   H     H_    0.095171 0.474569 0.388269 0.167831
N1    N     N_2   0.157300 0.551390 0.551120 -0.034292
N2    N     N_2   0.842700 0.448610 0.448880 -0.045089
O1    O     O_R   0.568940 0.489660 0.307530 -0.596252
O2    O     O_R   0.431060 0.510340 0.692470 -0.553096
O3    O     O_R   0.348880 0.522640 0.340350 -0.633529
O4    O     O_R   0.651120 0.477360 0.659650 -0.639387
O5    O     O_R   0.610030 0.300280 0.483580 -0.608578
O6    O     O_R   0.389970 0.699720 0.516420 -0.595170
O7    O     O_R   0.389970 0.333270 0.516400 -0.642097
O8    O     O_R   0.610030 0.666730 0.483600 -0.639349
Zn1   Zn    Zn3+2 0.646940 0.477980 0.478080 0.977923
Zn2   Zn    Zn3+2 0.353060 0.522020 0.521920 1.003698
S1    S     S_3+6 0.574980 0.161959 0.193519 0.002964
O9    O     O_2   0.655564 0.267255 0.170616 -0.351980
O10   O     O_2   0.572748 0.077839 0.080856 -0.245595
O11   O     O_3   0.418024 0.221919 0.218507 -0.607009
H13   H     H_    0.373947 0.241424 0.135556 0.378470
S2    S     S_3+6 0.402656 0.826226 0.805524 0.021986
O12   O     O_2   0.542381 0.767558 0.788495 -0.327348
O13   O     O_2   0.404853 0.910853 0.917818 -0.257929
O14   O     O_3   0.305925 0.712779 0.828543 -0.556792
H14   H     H_    0.232341 0.754989 0.875183 0.345088
N3    N     N_2   0.877346 0.402846 0.334967 -0.254774
H15   H     H_    0.803954 0.427836 0.266570 0.280609
C25   C     C_3   0.921211 0.268336 0.335992 -0.675989
H16   H     H_    0.935709 0.233064 0.240615 0.237853
H17   H     H_    0.847196 0.217555 0.377794 0.253796
H18   H     H_    0.016279 0.249367 0.391669 0.209194
N4    N     N_2   0.128557 0.581233 0.671189 -0.181462
H19   H     H_    0.052341 0.653563 0.681741 0.195893
C26   C     C_3   0.131595 0.472449 0.750639 -0.656732
H20   H     H_    0.133400 0.504793 0.848274 0.211794
H21   H     H_    0.221473 0.403808 0.738017 0.251952
H22   H     H_    0.042115 0.423431 0.729852 0.200824

loop_
_geom_bond_atom_site_label_1
_geom_bond_atom_site_label_2
_ccdc_geom_bond_type
C10   O8    A    
C25   H18   S    
C2    C4    S    
C9    C24   S    
C9    O7    A    
C18   H6    S    
C12   C22   A    
C10   C23   S    
C17   H5    S    
C7    H12   S    
S2    O12   D    
C19   C23   A    
C8    H11   S    
C3    C5    D    
C26   H22   S    
C14   H4    S    
N2    N3    S    
S1    O11   S    
S1    O10   D    
C25   H17   S    
C6    H7    S    
O14   H14   S    
C7    C8    S    
C1    C3    S    
N1    Zn2   S    
C1    O3    A    
C11   C13   A    
N2    Zn1   S    
C5    C6    S    
C8    N2    D    
C2    O4    A    
C11   S1    S    
C16   C18   A    
C19   C21   A    
O3    Zn2   S    
C12   C14   A    
N4    H19   S    
C18   C20   A    
O4    Zn1   S    
C13   C15   A    
C7    N1    D    
C25   H16   S    
C20   C24   A    
C14   C16   A    
N3    C25   S    
C9    O5    A    
C1    O1    A    
C10   O6    A    
C26   H20   S    
C2    O2    A    
N3    H15   S    
O11   H13   S    
C4    C6    D    
S1    O9    D    
C21   C24   A    
C26   H21   S    
C16   H1    S    
C15   C17   A    
C4    H9    S    
O2    Zn2   S    
C22   C23   A    
C13   H3    S    
C15   H2    S    
O7    Zn2   S    
C3    H10   S    
C17   C19   A    
O8    Zn1   S    
O1    Zn1   S    
O5    Zn1   S    
C11   C21   A    
C5    H8    S    
C12   S2    S    
O6    Zn2   S    
C20   C22   A    
S2    O13   D    
N4    C26   S    
S2    O14   S    
N1    N4    S    
