data_str_m3_o10_o14_f0_pcu.sym.174
_audit_creation_date              2012-12-10T16:50:05-0500
_audit_creation_method            fapswitch 2.2
_symmetry_space_group_name_H-M    P1
_symmetry_Int_Tables_number       1
_space_group_crystal_system       triclinic
_cell_length_a                    7.787293
_cell_length_b                    8.566154
_cell_length_c                    10.601361
_cell_angle_alpha                 90.967659
_cell_angle_beta                  85.694588
_cell_angle_gamma                 93.749927
_cell_volume                      703.630146716

loop_
_atom_site_label
_atom_site_type_symbol
_atom_type_description
_atom_site_fract_x
_atom_site_fract_y
_atom_site_fract_z
_atom_type_partial_charge
C1    C     C_R   0.545804 0.794678 0.496823 0.931596
C2    C     C_R   0.460996 0.650979 0.938039 0.094217
C3    C     C_R   0.507857 0.514588 0.871258 -0.087464
C4    C     C_R   0.554272 0.382166 0.930905 -0.209032
C5    C     C_R   0.549020 0.380628 0.059954 -0.213556
C6    C     C_R   0.497578 0.511563 0.128522 -0.086925
C7    C     C_2   0.569796 0.958276 0.494957 -0.383826
C8    C     C_2   0.430189 0.041684 0.505140 -0.401424
C9    C     C_R   0.502506 0.504076 0.739217 0.859527
C10   C     C_R   0.454206 0.205311 0.503259 0.962363
C11   C     C_R   0.498750 0.502696 0.260698 0.858698
C12   C     C_R   0.423723 0.788800 0.876486 -0.179061
C13   C     C_R   0.381241 0.922085 0.946401 -0.135986
C14   C     C_R   0.375999 0.920614 0.077918 -0.137279
C15   C     C_R   0.413179 0.785849 0.139929 -0.175986
C16   C     C_R   0.455563 0.649432 0.070372 0.094754
H1    H     H_    0.590586 0.278832 0.877394 0.149486
H2    H     H_    0.353492 0.027070 0.898371 0.139176
H3    H     H_    0.410139 0.790342 0.241994 0.149466
H4    H     H_    0.701575 0.009522 0.485208 0.185627
H5    H     H_    0.298411 0.990418 0.514876 0.183426
N1    N     N_2   0.950330 0.457950 0.466250 -0.171257
N2    N     N_2   0.049670 0.542050 0.533750 -0.170952
O1    O     O_R   0.389250 0.738570 0.508280 -0.622705
O2    O     O_R   0.678390 0.711630 0.486650 -0.625061
O3    O     O_R   0.355400 0.513470 0.694050 -0.613787
O4    O     O_R   0.644540 0.486530 0.672420 -0.620465
O5    O     O_R   0.321610 0.288370 0.513350 -0.627071
O6    O     O_R   0.610750 0.261430 0.491720 -0.612325
O7    O     O_R   0.355460 0.513470 0.327580 -0.628037
O8    O     O_R   0.644600 0.486530 0.305950 -0.607663
Zn1   Zn    Zn3+2 0.306930 0.517990 0.514440 0.939799
Zn2   Zn    Zn3+2 0.693070 0.482010 0.485560 0.946566
H6    H     H_    0.986718 0.617991 0.594581 0.194715
H7    H     H_    0.429466 0.795530 0.774482 0.142044
H8    H     H_    0.344135 0.024454 0.132040 0.135941
H9    H     H_    0.583253 0.276644 0.106812 0.148748
H10   H     H_    0.013298 0.382032 0.405409 0.193708

loop_
_geom_bond_atom_site_label_1
_geom_bond_atom_site_label_2
_ccdc_geom_bond_type
O7    Zn1   S    
O1    Zn1   S    
O3    Zn1   S    
C3    C9    S    
C5    H9    S    
C2    C16   A    
N2    H6    S    
C2    C12   A    
N2    Zn1   S    
O8    Zn2   S    
C2    C3    A    
C11   O8    A    
C7    C8    D    
C13   C14   A    
O4    Zn2   S    
C12   H7    S    
C15   H3    S    
C10   O6    A    
C13   H2    S    
C4    H1    S    
C9    O3    A    
C8    H5    S    
N1    N2    D    
C14   H8    S    
C5    C6    A    
C6    C16   A    
C3    C4    A    
N1    H10   S    
O6    Zn2   S    
O5    Zn1   S    
C12   C13   A    
C9    O4    A    
C1    O1    A    
C8    C10   S    
C7    H4    S    
C10   O5    A    
C6    C11   S    
N1    Zn2   S    
C14   C15   A    
C1    C7    S    
C1    O2    A    
C15   C16   A    
C11   O7    A    
O2    Zn2   S    
C4    C5    A    
