data_str_m9_o7_o16_f0_sra.sym.63
_audit_creation_date              2012-12-11T17:34:22-0500
_audit_creation_method            fapswitch 2.2
_symmetry_space_group_name_H-M    P1
_symmetry_Int_Tables_number       1
_space_group_crystal_system       triclinic
_cell_length_a                    23.779389
_cell_length_b                    7.22157
_cell_length_c                    20.62956
_cell_angle_alpha                 89.98601
_cell_angle_beta                  105.427368
_cell_angle_gamma                 89.986296
_cell_volume                      3414.9556396

loop_
_atom_site_label
_atom_site_type_symbol
_atom_type_description
_atom_site_fract_x
_atom_site_fract_y
_atom_site_fract_z
_atom_type_partial_charge
O1    O     O_R   0.449110 0.494310 0.552140 -0.541372
O2    O     O_R   0.550890 0.994310 0.447860 -0.541247
O3    O     O_R   0.440010 0.824420 0.415850 -0.525402
O4    O     O_R   0.559990 0.324420 0.584150 -0.525263
C1    C     C_R   0.425285 0.655784 0.390987 0.706864
C2    C     C_R   0.574710 0.155704 0.609010 0.707431
O5    O     O_R   0.442260 0.824040 0.549660 -0.525083
O6    O     O_R   0.557740 0.324040 0.450340 -0.525129
O7    O     O_R   0.553160 0.993960 0.582620 -0.539405
O8    O     O_R   0.446840 0.493960 0.417380 -0.539389
C3    C     C_R   0.427683 0.655411 0.566328 0.705609
C4    C     C_R   0.572310 0.155399 0.433675 0.706201
O9    O     O_3   0.536380 0.660670 0.510660 -0.369397
O10   O     O_3   0.463620 0.160670 0.489340 -0.369422
V1    V     V_3+5 0.493250 0.935680 0.498020 1.475412
V2    V     V_3+5 0.506750 0.435680 0.501980 1.475183
C5    C     C_R   0.822271 0.907728 0.168929 -0.136122
C6    C     C_R   0.177718 0.407659 0.831073 -0.136166
H1    H     H_    0.805219 0.781191 0.184612 0.108224
H2    H     H_    0.194752 0.281111 0.815372 0.108186
C7    C     C_R   0.861956 0.897015 0.129380 -0.167381
C8    C     C_R   0.138026 0.396968 0.870612 -0.167351
H3    H     H_    0.874517 0.761577 0.115561 0.122494
H4    H     H_    0.125441 0.261533 0.884406 0.122467
C9    C     C_R   0.885310 0.059010 0.108490 -0.052162
C10   C     C_R   0.114695 0.558984 0.891523 -0.052095
C11   C     C_R   0.867348 0.231706 0.128020 -0.169697
C12   C     C_R   0.132685 0.731675 0.872027 -0.169786
H5    H     H_    0.884037 0.359750 0.113094 0.125242
H6    H     H_    0.116014 0.859730 0.886972 0.125218
C13   C     C_R   0.827699 0.241921 0.167484 -0.139254
C14   C     C_R   0.172341 0.741868 0.832573 -0.139231
H7    H     H_    0.814900 0.376443 0.181982 0.107488
H8    H     H_    0.185164 0.876387 0.818099 0.107455
C15   C     C_R   0.805054 0.080203 0.188337 0.129932
C16   C     C_R   0.194963 0.580132 0.811700 0.129974
C17   C     C_1   0.764807 0.091909 0.230183 -0.058644
C18   C     C_1   0.235212 0.591819 0.769862 -0.058684
C19   C     C_1   0.731509 0.103353 0.265513 -0.042055
C20   C     C_1   0.268509 0.603264 0.734535 -0.042089
C21   C     C_R   0.648691 0.985129 0.304842 -0.102769
C22   C     C_R   0.350971 0.484079 0.694741 -0.101870
H9    H     H_    0.643774 0.871001 0.269690 0.115825
H10   H     H_    0.355622 0.369123 0.729535 0.116354
C23   C     C_R   0.610970 0.998447 0.346434 -0.154887
C24   C     C_R   0.388684 0.497445 0.653141 -0.154575
H11   H     H_    0.577201 0.894635 0.341418 0.125950
H12   H     H_    0.422180 0.392795 0.657809 0.127084
C25   C     C_R   0.615800 0.144635 0.392958 -0.123914
C26   C     C_R   0.384189 0.644672 0.607057 -0.125013
C27   C     C_R   0.661028 0.277672 0.397646 -0.025372
C28   C     C_R   0.339301 0.778754 0.602846 -0.025052
C29   C     C_R   0.697802 0.264043 0.354272 -0.179630
C30   C     C_R   0.302545 0.765048 0.646233 -0.179938
H13   H     H_    0.732303 0.364732 0.357698 0.143511
H14   H     H_    0.268316 0.866574 0.643163 0.143086
C31   C     C_R   0.692060 0.118155 0.308248 0.098827
C32   C     C_R   0.307952 0.618097 0.691800 0.098423
C33   C     C_R   0.640033 0.188927 0.796541 0.158768
C34   C     C_R   0.359767 0.692685 0.203577 0.158751
H15   H     H_    0.554391 0.214798 0.727706 0.099510
H16   H     H_    0.445400 0.718575 0.272410 0.099483
H17   H     H_    0.729007 0.185664 0.911678 0.139730
H18   H     H_    0.270727 0.690787 0.088498 0.139720
C35   C     C_R   0.618153 0.149547 0.675225 -0.064892
C36   C     C_R   0.381827 0.649984 0.324772 -0.064968
C37   C     C_R   0.901339 0.017527 0.767924 -0.161164
C38   C     C_R   0.098800 0.515135 0.232009 -0.161083
C39   C     C_R   0.862672 0.015151 0.704213 -0.115542
C40   C     C_R   0.137514 0.511839 0.295686 -0.115539
C41   C     C_R   0.803382 0.047929 0.695657 -0.144930
C42   C     C_R   0.196752 0.545520 0.304265 -0.144753
C43   C     C_R   0.780792 0.084764 0.751313 0.088182
C44   C     C_R   0.219239 0.584265 0.248670 0.088175
C45   C     C_R   0.821109 0.088915 0.816699 0.073100
C46   C     C_R   0.178864 0.589494 0.183326 0.073061
C47   C     C_R   0.719701 0.117072 0.744133 0.037388
C48   C     C_R   0.280283 0.617454 0.255870 0.037520
C49   C     C_R   0.700293 0.154427 0.802685 0.110506
C50   C     C_R   0.299575 0.656983 0.197393 0.110452
C51   C     C_R   0.741455 0.157858 0.865977 -0.201944
C52   C     C_R   0.258361 0.661400 0.134144 -0.201931
C53   C     C_R   0.800275 0.125335 0.872802 -0.196775
C54   C     C_R   0.199596 0.627866 0.127289 -0.196970
C55   C     C_R   0.677209 0.114104 0.680711 -0.194403
C56   C     C_R   0.322837 0.613352 0.319243 -0.194380
C57   C     C_R   0.600206 0.187401 0.732763 -0.205691
C58   C     C_R   0.399644 0.690123 0.267317 -0.205399
C59   C     C_R   0.881589 0.054661 0.824592 -0.081563
C60   C     C_R   0.118439 0.554239 0.175404 -0.081717
H19   H     H_    0.688436 0.087076 0.634361 0.120900
H20   H     H_    0.311696 0.584677 0.365534 0.120121
H21   H     H_    0.947131 0.989930 0.773119 0.107499
H22   H     H_    0.053060 0.486672 0.226790 0.107606
H23   H     H_    0.776534 0.043061 0.644665 0.118740
H24   H     H_    0.223644 0.539825 0.355225 0.118587
H25   H     H_    0.878791 0.986689 0.660843 0.125868
H26   H     H_    0.121477 0.481883 0.339007 0.125894
H27   H     H_    0.829535 0.129354 0.922969 0.111768
H28   H     H_    0.170295 0.632711 0.077154 0.112106
O11   O     O_R   0.053190 0.709680 0.082610 -0.531143
O12   O     O_R   0.946810 0.209680 0.917390 -0.531106
O13   O     O_R   0.057740 0.380240 0.950340 -0.539765
O14   O     O_R   0.942260 0.880240 0.049660 -0.539765
C61   C     C_R   0.071579 0.548897 0.932655 0.674278
C62   C     C_R   0.928422 0.048902 0.067348 0.674220
O15   O     O_R   0.060000 0.379940 0.084150 -0.532307
O16   O     O_R   0.940000 0.879940 0.915850 -0.532297
O17   O     O_R   0.949110 0.210100 0.052140 -0.537845
O18   O     O_R   0.050890 0.710100 0.947860 -0.537899
C63   C     C_R   0.074783 0.548241 0.109028 0.677625
C64   C     C_R   0.925227 0.048320 0.890971 0.677686
O19   O     O_3   0.963630 0.543720 0.989330 -0.371907
O20   O     O_3   0.036370 0.043720 0.010670 -0.371957
V3    V     V_3+5 0.006750 0.268680 0.001980 1.412070
V4    V     V_3+5 0.993250 0.768680 0.998020 1.411968
C65   C     C_3   0.616102 0.228034 0.856420 -0.370550
C66   C     C_3   0.609533 0.049674 0.893545 -0.752135
H29   H     H_    0.578555 0.954617 0.859398 0.228239
H30   H     H_    0.652056 0.978139 0.912370 0.226695
H31   H     H_    0.592139 0.082724 0.937090 0.217312
H32   H     H_    0.643902 0.329370 0.891027 0.172408
H33   H     H_    0.572364 0.294141 0.839794 0.177492
C67   C     C_3   0.383555 0.734445 0.143796 -0.370601
C68   C     C_3   0.390407 0.557564 0.106043 -0.752461
H34   H     H_    0.421567 0.462172 0.139836 0.228258
H35   H     H_    0.348008 0.485586 0.086987 0.226713
H36   H     H_    0.407713 0.592564 0.062599 0.217391
H37   H     H_    0.355545 0.836198 0.109564 0.172531
H38   H     H_    0.427177 0.801137 0.160606 0.177501
C69   C     C_2   0.673665 0.426741 0.448935 0.748608
O21   O     O_2   0.670793 0.396035 0.506274 -0.565079
O22   O     O_R   0.691327 0.601056 0.432217 -0.668673
H39   H     H_    0.698993 0.691224 0.471261 0.295907
C70   C     C_2   0.327016 0.929193 0.552064 0.748873
O23   O     O_2   0.329324 0.899253 0.494462 -0.564457
O24   O     O_R   0.310355 0.104014 0.569575 -0.669099
H40   H     H_    0.302897 0.195178 0.530821 0.295886

loop_
_geom_bond_atom_site_label_1
_geom_bond_atom_site_label_2
_ccdc_geom_bond_type
C61   O18   A    
C11   H5    S    
C21   H9    S    
C29   H13   S    
O12   C64   A    
O1    C3    A    
O2    C4    A    
C46   C54   A    
C2    O7    A    
O14   C62   A    
O20   V3    S    
C34   C58   A    
C70   O23   D    
O5    C3    A    
C59   C64   S    
C44   C46   A    
H17   C51   S    
C14   C16   A    
C8    H4    S    
C15   C17   S    
C36   C58   A    
C48   C50   A    
C41   H23   S    
O11   V4    S    
C19   C31   S    
C37   C59   A    
C39   C41   A    
C22   C24   A    
C23   H11   S    
C34   C67   S    
C43   C47   A    
C66   H29   S    
O12   V3    S    
H15   C57   S    
O14   V4    S    
C2    C35   S    
C25   C27   A    
C68   H36   S    
C38   C60   A    
C13   H7    S    
C35   C57   A    
O19   V4    S    
C38   C40   A    
C48   C56   A    
O5    V1    S    
C47   C55   A    
O6    V2    S    
C53   H27   S    
C43   C45   A    
C22   C32   A    
C22   H10   S    
C60   C63   S    
C10   C61   S    
C51   C53   A    
C28   C30   A    
C9    C62   S    
C4    C25   S    
C24   H12   S    
C47   C49   A    
C55   H19   S    
C30   H14   S    
C20   C32   S    
C11   C13   A    
C54   H28   S    
C12   C14   A    
C42   C44   A    
C33   C49   A    
C49   C51   A    
C27   C69   S    
C37   H21   S    
O3    C1    A    
H16   C58   S    
C5    C7    A    
O16   C64   A    
C37   C39   A    
C66   H31   S    
C14   H8    S    
O4    V2    S    
O13   V3    S    
C65   H32   S    
C26   C28   A    
C23   C25   A    
O6    C4    A    
H18   C52   S    
C67   H38   S    
O13   C61   A    
O1    V2    S    
O2    V1    S    
O15   V3    S    
C66   H30   S    
O4    C2    A    
C52   C54   A    
C7    H3    S    
C44   C48   A    
C68   H34   S    
C13   C15   A    
C9    C11   A    
C69   O21   D    
O18   V4    S    
O3    V1    S    
C41   C43   A    
C30   C32   A    
C70   O24   S    
C7    C9    A    
C34   C50   A    
C29   C31   A    
C6    C8    A    
O15   C63   A    
C1    C36   S    
C69   O22   S    
C36   C56   A    
C40   C42   A    
C35   C55   A    
O11   C63   A    
C38   H22   S    
O24   H40   S    
C24   C26   A    
C10   C12   A    
O16   V4    S    
C16   C18   S    
C65   H33   S    
C21   C31   A    
C1    O8    A    
C17   C19   T    
C3    C26   S    
C56   H20   S    
C65   C66   S    
C18   C20   T    
C45   C53   A    
O22   H39   S    
C12   H6    S    
C5    H1    S    
C50   C52   A    
C67   H37   S    
C6    H2    S    
C45   C59   A    
O7    V1    S    
C33   C57   A    
O17   V3    S    
C42   H24   S    
C33   C65   S    
C8    C10   A    
O9    V2    S    
C68   H35   S    
C28   C70   S    
C21   C23   A    
O10   V1    S    
O8    V2    S    
C5    C15   A    
C27   C29   A    
C6    C16   A    
C40   H26   S    
C46   C60   A    
C67   C68   S    
C62   O17   A    
C39   H25   S    
