data_str_m4_o15_o24_f0_acs.sym.86
_audit_creation_date              2012-12-11T14:28:32-0500
_audit_creation_method            fapswitch 2.2
_symmetry_space_group_name_H-M    P1
_symmetry_Int_Tables_number       1
_space_group_crystal_system       triclinic
_cell_length_a                    11.157983
_cell_length_b                    19.751036
_cell_length_c                    18.672367
_cell_angle_alpha                 89.945663
_cell_angle_beta                  88.997363
_cell_angle_gamma                 89.805239
_cell_volume                      4114.39298128

loop_
_atom_site_label
_atom_site_type_symbol
_atom_type_description
_atom_site_fract_x
_atom_site_fract_y
_atom_site_fract_z
_atom_type_partial_charge
C1    C     C_R   0.316340 0.938297 0.637549 0.520165
C2    C     C_R   0.315211 0.939672 0.862600 0.529649
C3    C     C_R   0.314075 0.062204 0.362345 0.510556
C4    C     C_R   0.317359 0.062604 0.137735 0.523485
C5    C     C_R   0.817363 0.438360 0.637631 0.524093
C6    C     C_R   0.817986 0.462632 0.855371 0.544766
C7    C     C_R   0.815712 0.561621 0.362415 0.536106
C8    C     C_R   0.817763 0.560805 0.138085 0.554305
C9    C     C_3   0.207815 0.742826 0.448289 -0.012240
C10   C     C_3   0.142120 0.693451 0.020378 0.011499
C11   C     C_3   0.215391 0.250137 0.551462 -0.028316
C12   C     C_3   0.152992 0.300978 0.966972 0.017098
C13   C     C_3   0.703298 0.217072 0.457215 -0.012870
C14   C     C_3   0.655757 0.201453 0.022130 -0.001185
C15   C     C_3   0.676732 0.794559 0.530074 -0.005150
C16   C     C_3   0.649479 0.787939 0.970999 0.013344
C17   C     C_3   0.075285 0.743426 0.429151 0.043295
C18   C     C_3   0.077604 0.743679 0.070827 0.053373
C19   C     C_3   0.082743 0.255456 0.572103 0.043625
C20   C     C_3   0.035137 0.273417 0.937978 0.035843
C21   C     C_3   0.590105 0.247437 0.424351 0.053477
C22   C     C_3   0.573254 0.245090 0.069251 0.043229
C23   C     C_3   0.583182 0.754561 0.573628 0.050989
C24   C     C_3   0.524040 0.776807 0.940783 0.024371
C25   C     C_R   0.315043 0.039938 0.437584 -0.051605
C26   C     C_R   0.325245 0.042980 0.061623 -0.028412
C27   C     C_R   0.319242 0.961191 0.562555 -0.028801
C28   C     C_R   0.319737 0.964983 0.936388 -0.021446
C29   C     C_R   0.822649 0.539018 0.437344 -0.040592
C30   C     C_R   0.826012 0.541055 0.063149 0.001371
C31   C     C_R   0.824926 0.460668 0.562602 -0.040530
C32   C     C_R   0.821762 0.490561 0.925412 0.011209
C33   C     C_R   0.533249 0.050430 0.443773 -0.069727
C34   C     C_R   0.547558 0.043561 0.052027 -0.054725
C35   C     C_R   0.540461 0.957264 0.551251 -0.093517
C36   C     C_R   0.540859 0.956453 0.939515 -0.099835
C37   C     C_R   0.044787 0.543533 0.440477 -0.077186
C38   C     C_R   0.050125 0.516153 0.058551 -0.057552
C39   C     C_R   0.047754 0.459976 0.556633 -0.080505
C40   C     C_R   0.040732 0.513768 0.912284 -0.046234
C41   C     C_R   0.641075 0.021979 0.460903 -0.029929
C42   C     C_R   0.652974 0.023000 0.017463 -0.065839
C43   C     C_R   0.645382 0.978123 0.517012 -0.054981
C44   C     C_R   0.649182 0.980980 0.959784 -0.065591
C45   C     C_R   0.152071 0.521907 0.466376 -0.050959
C46   C     C_R   0.153474 0.504943 0.016674 -0.149563
C47   C     C_R   0.153531 0.480187 0.525059 -0.051999
C48   C     C_R   0.150212 0.512183 0.943982 -0.152149
C49   C     C_R   0.427680 0.981303 0.529465 0.055100
C50   C     C_R   0.431071 0.980856 0.967619 0.028284
C51   C     C_R   0.424562 0.025093 0.470600 0.025334
C52   C     C_R   0.434308 0.022344 0.028513 0.057994
C53   C     C_R   0.935084 0.480443 0.530317 0.017922
C54   C     C_R   0.932603 0.509134 0.953902 0.031986
C55   C     C_R   0.933728 0.521098 0.468450 0.013980
C56   C     C_R   0.936290 0.522590 0.027211 0.034667
C57   C     C_R   0.208398 0.975723 0.528904 0.022147
C58   C     C_R   0.211635 0.985248 0.970894 0.031294
C59   C     C_R   0.205540 0.021335 0.471891 0.026104
C60   C     C_R   0.216458 0.031797 0.026285 0.030423
C61   C     C_R   0.716153 0.475198 0.528040 0.007350
C62   C     C_R   0.714466 0.494541 0.967222 0.024826
C63   C     C_R   0.714603 0.522533 0.473091 0.007467
C64   C     C_R   0.715951 0.535596 0.026387 0.030203
C65   C     C_R   0.098330 0.947215 0.552477 -0.088954
C66   C     C_R   0.097248 0.961268 0.951474 -0.090681
C67   C     C_R   0.092444 0.048436 0.452214 -0.089291
C68   C     C_R   0.109307 0.062986 0.048902 -0.089417
C69   C     C_R   0.606228 0.446464 0.550143 -0.089999
C70   C     C_R   0.604780 0.461049 0.952296 -0.089565
C71   C     C_R   0.603010 0.550046 0.453377 -0.095916
C72   C     C_R   0.604768 0.562921 0.050542 -0.082559
C73   C     C_R   0.990073 0.974853 0.533965 -0.110284
C74   C     C_R   0.992747 0.985397 0.983561 -0.113187
C75   C     C_R   0.986726 0.025920 0.484025 -0.117741
C76   C     C_R   0.999001 0.037461 0.031943 -0.114191
C77   C     C_R   0.498326 0.472589 0.529136 -0.064811
C78   C     C_R   0.496810 0.483003 0.982100 -0.122283
C79   C     C_R   0.496512 0.524710 0.480326 -0.075064
C80   C     C_R   0.496812 0.536056 0.029728 -0.122872
C81   C     C_R   0.182865 0.770422 0.636016 0.525954
C82   C     C_R   0.136469 0.759873 0.856971 0.587478
C83   C     C_R   0.185820 0.228527 0.362851 0.531565
C84   C     C_R   0.173065 0.231978 0.135661 0.519739
C85   C     C_R   0.681628 0.270207 0.635869 0.524301
C86   C     C_R   0.631809 0.258351 0.855286 0.555538
C87   C     C_R   0.644555 0.738778 0.359448 0.536925
C88   C     C_R   0.633729 0.742751 0.145141 0.535234
C89   C     C_R   0.544886 0.769532 0.646627 0.546367
C90   C     C_R   0.498849 0.786834 0.863029 0.526125
C91   C     C_R   0.544516 0.230545 0.353404 0.535972
C92   C     C_R   0.543007 0.230192 0.144947 0.533754
C93   C     C_R   0.036865 0.272624 0.643083 0.535022
C94   C     C_R   0.000032 0.286472 0.863104 0.548004
C95   C     C_R   0.032652 0.726372 0.358117 0.527103
C96   C     C_R   0.043210 0.729726 0.145252 0.543454
C97   C     C_3   0.051922 0.807671 0.472299 -0.126211
C98   C     C_3   0.137526 0.804254 0.034195 -0.139086
C99   C     C_3   0.051495 0.193849 0.527567 -0.122659
C100  C     C_3   0.068548 0.201964 0.963092 -0.117150
C101  C     C_3   0.614100 0.315997 0.458895 -0.089454
C102  C     C_3   0.611400 0.309831 0.029988 -0.137427
C103  C     C_3   0.618968 0.688251 0.537225 -0.108663
C104  C     C_3   0.511797 0.709166 0.981349 -0.113716
C105  C     C_3   0.185738 0.807970 0.492721 -0.161799
C106  C     C_3   0.201876 0.753853 0.983372 -0.144761
C107  C     C_3   0.185562 0.187544 0.505303 -0.164698
C108  C     C_3   0.187923 0.229168 0.990776 -0.165982
C109  C     C_3   0.728717 0.286142 0.493116 -0.164016
C110  C     C_3   0.693724 0.265819 0.982029 -0.125099
C111  C     C_3   0.713199 0.728043 0.492278 -0.136102
C112  C     C_3   0.639487 0.719700 0.009965 -0.111930
C113  C     C_3   0.153558 0.763093 0.558636 -0.002123
C114  C     C_3   0.097587 0.756725 0.931899 0.017615
C115  C     C_3   0.161168 0.235297 0.441072 0.003566
C116  C     C_3   0.125738 0.243597 0.063364 0.007591
C117  C     C_3   0.651727 0.263470 0.558473 -0.009822
C118  C     C_3   0.591878 0.254192 0.930320 0.021333
C119  C     C_3   0.616782 0.742530 0.436066 -0.007782
C120  C     C_3   0.584353 0.756616 0.074551 0.012970
C121  C     C_3   0.022303 0.762499 0.538272 -0.140570
C122  C     C_3   0.033830 0.807533 0.981134 -0.150676
C123  C     C_3   0.030130 0.242074 0.463492 -0.140166
C124  C     C_3   0.008236 0.216159 0.036694 -0.154893
C125  C     C_3   0.538900 0.292939 0.525165 -0.102172
C126  C     C_3   0.509692 0.299265 0.976525 -0.134172
C127  C     C_3   0.524345 0.702448 0.479529 -0.118516
C128  C     C_3   0.458470 0.747752 0.047797 -0.168369
C129  C     C_3   0.044430 0.698436 0.494096 -0.139467
C130  C     C_3   0.972191 0.747494 0.018777 -0.125298
C131  C     C_3   0.060445 0.303328 0.509063 -0.137821
C132  C     C_3   0.972155 0.287947 0.011219 -0.166834
C133  C     C_3   0.514975 0.224072 0.489431 -0.128031
C134  C     C_3   0.469593 0.234386 0.016800 -0.123308
C135  C     C_3   0.488101 0.768941 0.517011 -0.112923
C136  C     C_3   0.469018 0.815343 0.006266 -0.184308
C137  C     C_3   0.176600 0.698356 0.514392 0.085348
C138  C     C_3   0.036415 0.697181 0.967689 0.072456
C139  C     C_3   0.192452 0.297624 0.486767 0.090593
C140  C     C_3   0.090362 0.314556 0.039069 0.097105
C141  C     C_3   0.628537 0.194877 0.522632 0.076430
C142  C     C_3   0.553686 0.190179 0.969439 0.060391
C143  C     C_3   0.581513 0.808645 0.472915 0.053192
C144  C     C_3   0.594628 0.824583 0.036266 0.076577
Cr1   Cr    Cr6+3 0.488160 0.884660 0.750000 0.977092
Cr2   Cr    Cr6+3 0.488160 0.115340 0.250000 1.004166
Cr3   Cr    Cr6+3 0.988160 0.384660 0.750000 0.975874
Cr4   Cr    Cr6+3 0.988160 0.615340 0.250000 0.988544
Cr5   Cr    Cr6+3 0.173480 0.883120 0.750000 0.997422
Cr6   Cr    Cr6+3 0.173480 0.116880 0.250000 0.996572
Cr7   Cr    Cr6+3 0.673480 0.383120 0.750000 0.988482
Cr8   Cr    Cr6+3 0.673480 0.616880 0.250000 0.991190
Cr9   Cr    Cr6+3 0.333410 0.727260 0.750000 1.055932
Cr10  Cr    Cr6+3 0.333410 0.272740 0.250000 1.063325
Cr11  Cr    Cr6+3 0.833410 0.227260 0.750000 1.074007
Cr12  Cr    Cr6+3 0.833410 0.772740 0.250000 1.076735
H1    H     H_    0.247362 0.851277 0.490338 0.157452
H2    H     H_    0.291080 0.754419 0.958438 0.126311
H3    H     H_    0.245172 0.143466 0.508254 0.123041
H4    H     H_    0.262755 0.197932 0.970871 0.170978
H5    H     H_    0.813831 0.313843 0.496306 0.100817
H6    H     H_    0.778366 0.277139 0.953989 0.109411
H7    H     H_    0.804319 0.710865 0.477226 0.104713
H8    H     H_    0.709405 0.681000 0.016532 0.156222
H9    H     H_    0.910556 0.957488 0.560968 0.111415
H10   H     H_    0.908160 0.963393 0.970833 0.118147
H11   H     H_    0.902691 0.048310 0.470440 0.122130
H12   H     H_    0.920797 0.056956 0.058949 0.093715
H13   H     H_    0.418324 0.451852 0.552255 0.130421
H14   H     H_    0.413820 0.459843 0.967264 0.098711
H15   H     H_    0.414228 0.545598 0.462228 0.133182
H16   H     H_    0.414927 0.554339 0.053902 0.096903
H17   H     H_    0.000339 0.851424 0.451722 0.148679
H18   H     H_    0.180334 0.847573 0.061473 0.136520
H19   H     H_    0.991690 0.152885 0.547162 0.169466
H20   H     H_    0.057292 0.154899 0.931459 0.165981
H21   H     H_    0.607815 0.364854 0.429795 0.171176
H22   H     H_    0.637651 0.357536 0.056746 0.144938
H23   H     H_    0.634661 0.640244 0.566554 0.154557
H24   H     H_    0.476724 0.661833 0.957824 0.145438
H25   H     H_    0.956193 0.761379 0.581766 0.143387
H26   H     H_    0.985107 0.851291 0.963110 0.111602
H27   H     H_    0.962658 0.250367 0.422661 0.146559
H28   H     H_    0.971295 0.177775 0.072725 0.124155
H29   H     H_    0.474566 0.323731 0.556582 0.156120
H30   H     H_    0.463038 0.340626 0.950397 0.105798
H31   H     H_    0.463300 0.666419 0.454194 0.149331
H32   H     H_    0.387736 0.746194 0.089667 0.133453
H33   H     H_    0.980509 0.656001 0.496804 0.112631
H34   H     H_    0.878128 0.745320 0.038245 0.141087
H35   H     H_    0.001327 0.347707 0.507479 0.109957
H36   H     H_    0.893110 0.318809 0.026974 0.133505
H37   H     H_    0.429097 0.197087 0.483672 0.100003
H38   H     H_    0.387049 0.221009 0.046160 0.097212
H39   H     H_    0.398518 0.786414 0.533809 0.110569
H40   H     H_    0.395590 0.852968 0.006015 0.104383
H41   H     H_    0.721927 0.034269 0.432294 0.106891
H42   H     H_    0.738934 0.034363 0.037664 0.097830
H43   H     H_    0.731122 0.960194 0.530835 0.109140
H44   H     H_    0.729723 0.963844 0.933132 0.103636
H45   H     H_    0.232953 0.539212 0.440696 0.090962
H46   H     H_    0.239457 0.499748 0.041446 0.141745
H47   H     H_    0.235751 0.463328 0.547275 0.104260
H48   H     H_    0.232099 0.513642 0.912026 0.110216
H49   H     H_    0.535528 0.093626 0.411458 0.159992
H50   H     H_    0.556661 0.078698 0.093975 0.166311
H51   H     H_    0.548280 0.917164 0.588489 0.160380
H52   H     H_    0.546910 0.915215 0.904797 0.163971
H53   H     H_    0.053393 0.581905 0.401997 0.171560
H54   H     H_    0.066496 0.516390 0.114694 0.175135
H55   H     H_    0.059611 0.423148 0.597144 0.167922
H56   H     H_    0.044286 0.520861 0.855114 0.178199
H57   H     H_    0.084166 0.090153 0.415525 0.158298
H58   H     H_    0.111160 0.104244 0.084490 0.153102
H59   H     H_    0.093871 0.904415 0.587573 0.161475
H60   H     H_    0.086391 0.921988 0.912993 0.153177
H61   H     H_    0.596856 0.591754 0.417043 0.152788
H62   H     H_    0.599100 0.603145 0.087897 0.164216
H63   H     H_    0.602319 0.404402 0.585783 0.153804
H64   H     H_    0.600445 0.416723 0.919358 0.161298
O1    O     O_R   0.575450 0.828820 0.667950 -0.559215
O2    O     O_R   0.575450 0.828820 0.832050 -0.545635
O3    O     O_R   0.575450 0.171180 0.332050 -0.569170
O4    O     O_R   0.575450 0.171180 0.167950 -0.559001
O5    O     O_R   0.075450 0.328820 0.667950 -0.557342
O6    O     O_R   0.075450 0.328820 0.832050 -0.523719
O7    O     O_R   0.075450 0.671180 0.332050 -0.568541
O8    O     O_R   0.075450 0.671180 0.167950 -0.548471
O9    O     O_R   0.416860 0.942890 0.674680 -0.501235
O10   O     O_R   0.416860 0.942890 0.825320 -0.510718
O11   O     O_R   0.416860 0.057110 0.325320 -0.490276
O12   O     O_R   0.416860 0.057110 0.174680 -0.474237
O13   O     O_R   0.916860 0.442890 0.674680 -0.504555
O14   O     O_R   0.916860 0.442890 0.825320 -0.536288
O15   O     O_R   0.916860 0.557110 0.325320 -0.496067
O16   O     O_R   0.916860 0.557110 0.174680 -0.496968
O17   O     O_R   0.213790 0.953680 0.668330 -0.499640
O18   O     O_R   0.213790 0.953680 0.831670 -0.497550
O19   O     O_R   0.213790 0.046320 0.331670 -0.503763
O20   O     O_R   0.213790 0.046320 0.168330 -0.502667
O21   O     O_R   0.713790 0.453680 0.668330 -0.509344
O22   O     O_R   0.713790 0.453680 0.831670 -0.521654
O23   O     O_R   0.713790 0.546320 0.331670 -0.502270
O24   O     O_R   0.713790 0.546320 0.168330 -0.505634
O25   O     O_R   0.121360 0.817890 0.672660 -0.538150
O26   O     O_R   0.121360 0.817890 0.827340 -0.544033
O27   O     O_R   0.121360 0.182110 0.327340 -0.532047
O28   O     O_R   0.121360 0.182110 0.172660 -0.540340
O29   O     O_R   0.621360 0.317890 0.672660 -0.545291
O30   O     O_R   0.621360 0.317890 0.827340 -0.536770
O31   O     O_R   0.621360 0.682110 0.327340 -0.554296
O32   O     O_R   0.621360 0.682110 0.172660 -0.555504
O33   O     O_R   0.206850 0.711370 0.665820 -0.443227
O34   O     O_R   0.206850 0.711370 0.834180 -0.478164
O35   O     O_R   0.206850 0.288630 0.334180 -0.444301
O36   O     O_R   0.206850 0.288630 0.165820 -0.445179
O37   O     O_R   0.706850 0.211370 0.665820 -0.452452
O38   O     O_R   0.706850 0.211370 0.834180 -0.463744
O39   O     O_R   0.706850 0.788630 0.334180 -0.452876
O40   O     O_R   0.706850 0.788630 0.165820 -0.466514
O41   O     O_R   0.457710 0.733190 0.672630 -0.488295
O42   O     O_R   0.457710 0.733190 0.827370 -0.494039
O43   O     O_R   0.457710 0.266810 0.327370 -0.495866
O44   O     O_R   0.457710 0.266810 0.172630 -0.501860
O45   O     O_R   0.957710 0.233190 0.672630 -0.500391
O46   O     O_R   0.957710 0.233190 0.827370 -0.494367
O47   O     O_R   0.957710 0.766810 0.327370 -0.501043
O48   O     O_R   0.957710 0.766810 0.172630 -0.490316
O49   O     O_3   0.331690 0.831680 0.750000 -0.352365
O50   O     O_3   0.331690 0.168320 0.250000 -0.353467
O51   O     O_3   0.831690 0.331680 0.750000 -0.334909
O52   O     O_3   0.831690 0.668320 0.250000 -0.324599
C145  C     C_2   0.230643 0.638472 0.551153 0.576573
O53   O     O_2   0.338186 0.628754 0.549217 -0.572777
O54   O     O_R   0.158305 0.601258 0.598697 -0.662647
H65   H     H_    0.206354 0.569222 0.629615 0.333390
C146  C     C_2   0.959620 0.656921 0.917910 0.539647
O55   O     O_2   0.856340 0.644331 0.935078 -0.582992
O56   O     O_R   0.999619 0.642010 0.848344 -0.686022
H66   H     H_    0.935110 0.620727 0.818167 0.342131
C147  C     C_2   0.255014 0.356646 0.452253 0.576933
O57   O     O_2   0.360986 0.366119 0.460686 -0.587464
O58   O     O_R   0.192894 0.396615 0.403353 -0.658636
H67   H     H_    0.247693 0.428458 0.375595 0.328774
C148  C     C_2   0.091954 0.373264 0.089654 0.598645
O59   O     O_2   0.999570 0.389904 0.121297 -0.520436
O60   O     O_R   0.202012 0.400862 0.109310 -0.702895
H68   H     H_    0.195004 0.431618 0.152635 0.323960
C149  C     C_2   0.636373 0.131426 0.565717 0.592268
O61   O     O_2   0.734019 0.104547 0.574238 -0.541112
O62   O     O_R   0.535309 0.109026 0.603964 -0.699285
H69   H     H_    0.554392 0.070739 0.638124 0.354330
C150  C     C_2   0.514906 0.134360 0.920500 0.568232
O63   O     O_2   0.408354 0.123347 0.912668 -0.549262
O64   O     O_R   0.599949 0.099999 0.878443 -0.664690
H70   H     H_    0.562148 0.068092 0.842898 0.352349
C151  C     C_2   0.550356 0.866496 0.424083 0.566590
O65   O     O_2   0.629736 0.897097 0.392099 -0.485252
O66   O     O_R   0.430465 0.881043 0.410318 -0.747526
H71   H     H_    0.420958 0.916312 0.371373 0.365957
C152  C     C_2   0.632276 0.883965 0.080499 0.595758
O67   O     O_2   0.558873 0.910953 0.120685 -0.498205
O68   O     O_R   0.753340 0.901744 0.083431 -0.717646
H72   H     H_    0.769042 0.937963 0.120506 0.332966
C153  C     C_3   0.296088 0.734420 0.385178 -0.352870
H73   H     H_    0.310647 0.679917 0.373475 0.124716
H74   H     H_    0.260970 0.759390 0.336554 0.163589
H75   H     H_    0.380794 0.760054 0.394747 0.169453
C154  C     C_3   0.228561 0.639985 0.044840 -0.383333
H76   H     H_    0.270216 0.615346 0.997399 0.135345
H77   H     H_    0.299858 0.659366 0.077476 0.113172
H78   H     H_    0.186086 0.607345 0.084453 0.159274
C155  C     C_3   0.301278 0.249904 0.614609 -0.360951
H79   H     H_    0.319557 0.302513 0.631896 0.138490
H80   H     H_    0.260144 0.222465 0.660711 0.166226
H81   H     H_    0.384426 0.221927 0.602506 0.173161
C156  C     C_3   0.238487 0.351649 0.934513 -0.373948
H82   H     H_    0.289723 0.373673 0.978652 0.146022
H83   H     H_    0.295295 0.326687 0.892890 0.152333
H84   H     H_    0.189081 0.393053 0.909301 0.165872
C157  C     C_3   0.788849 0.173810 0.412232 -0.380693
H85   H     H_    0.861193 0.154383 0.445689 0.127744
H86   H     H_    0.743796 0.130213 0.389150 0.147901
H87   H     H_    0.822791 0.203294 0.365610 0.150263
C158  C     C_3   0.754890 0.163673 0.056628 -0.398938
H88   H     H_    0.813833 0.143141 0.013487 0.143584
H89   H     H_    0.796625 0.201459 0.091983 0.150669
H90   H     H_    0.728031 0.124722 0.095136 0.135777
C159  C     C_3   0.768032 0.836204 0.569979 -0.389527
H91   H     H_    0.839302 0.853161 0.532638 0.123897
H92   H     H_    0.729552 0.879184 0.599109 0.140202
H93   H     H_    0.801301 0.805570 0.614924 0.143342
C160  C     C_3   0.759289 0.814935 0.932715 -0.378509
H94   H     H_    0.808111 0.839937 0.974935 0.151788
H95   H     H_    0.810559 0.773790 0.905986 0.182596
H96   H     H_    0.741545 0.855506 0.893950 0.149966

loop_
_geom_bond_atom_site_label_1
_geom_bond_atom_site_label_2
_ccdc_geom_bond_type
C6    C32   S    
Cr1   O10   S    
C7    C29   S    
C119  C143  S    
Cr4   O52   S    
O62   H69   S    
C34   C42   A    
C110  C118  S    
C36   C50   A    
Cr10  O44   S    
C152  O67   D    
C16   C112  S    
C4    O12   A    
C92   O4    A    
C121  H25   S    
C16   C144  S    
Cr8   O24   S    
C57   C59   A    
Cr1   O1    S    
C8    O24   A    
C58   C60   A    
C62   C70   A    
C61   C63   A    
C62   C64   A    
Cr10  O43   S    
C23   C103  S    
C49   C51   A    
C120  C144  S    
C84   O36   A    
C50   C52   A    
C23   C89   S    
C140  C148  S    
C88   O32   A    
C97   C105  S    
C128  H32   S    
C73   C75   A    
C42   C44   A    
C20   C132  S    
C21   C133  S    
C116  C140  S    
Cr3   O6    S    
Cr10  O35   S    
C45   C47   A    
C112  H8    S    
C46   C48   A    
C115  C123  S    
C139  C147  S    
C42   H42   S    
C27   C57   A    
C87   O39   A    
C112  C120  S    
Cr11  O38   S    
C19   C99   S    
C29   C55   A    
C160  H94   S    
C30   C56   A    
C100  C124  S    
C156  H84   S    
C15   C111  S    
Cr11  O51   S    
O68   H72   S    
C104  C128  S    
C12   C20   S    
C13   C21   S    
C85   C117  S    
Cr11  O45   S    
C41   H41   S    
C63   C71   A    
C113  C137  S    
C18   C130  S    
C33   C51   A    
C80   H16   S    
C37   C45   A    
C130  C138  S    
C91   O43   A    
C39   C47   A    
C160  H96   S    
C40   C48   A    
C20   C94   S    
C34   C52   A    
C24   C90   S    
C28   C58   A    
C72   H62   S    
C98   C106  S    
C61   C69   A    
C33   C41   A    
C148  O60   S    
C10   C18   S    
C76   H12   S    
C95   O7    A    
C2    C28   S    
C32   C62   A    
C93   O5    A    
C134  H38   S    
C129  C137  S    
C126  C134  S    
C157  H85   S    
C83   O27   A    
C10   C138  S    
C85   O37   A    
Cr10  O50   S    
C130  H34   S    
C144  C152  S    
C96   O48   A    
C14   C142  S    
C85   O29   A    
Cr5   O26   S    
C69   C77   A    
Cr4   O8    S    
Cr6   O50   S    
C71   C79   A    
C110  H6    S    
Cr6   O28   S    
C33   H49   S    
C74   C76   A    
C96   O8    A    
C105  C113  S    
C65   H59   S    
C89   O1    A    
C78   C80   A    
C155  H80   S    
C9    C105  S    
C66   C74   A    
Cr4   O16   S    
C78   H14   S    
C124  C132  S    
C125  H29   S    
C36   H52   S    
C158  H89   S    
C97   C121  S    
C59   C67   A    
C95   O47   A    
C153  H74   S    
C129  H33   S    
C35   C49   A    
C123  H27   S    
C35   C43   A    
C132  H36   S    
C24   C136  S    
C135  C143  S    
C6    O14   A    
C84   C116  S    
C146  O55   D    
C12   C156  S    
C151  O66   S    
Cr7   O30   S    
Cr2   O11   S    
C154  H77   S    
C100  C108  S    
C82   O26   A    
C39   H55   S    
C83   C115  S    
C73   H9    S    
C3    O11   A    
C104  C112  S    
C88   O40   A    
C1    O17   A    
C87   C119  S    
C150  O63   D    
Cr7   O21   S    
Cr2   O4    S    
C127  H31   S    
Cr12  O48   S    
C157  H87   S    
C107  C115  S    
C149  O61   D    
C13   C157  S    
C38   H54   S    
C15   C143  S    
C44   H44   S    
C40   C54   A    
C102  H22   S    
C10   C106  S    
C67   C75   A    
Cr8   O32   S    
C14   C110  S    
Cr1   O9    S    
C121  C129  S    
C102  C126  S    
C147  O58   S    
C48   H48   S    
C84   O28   A    
Cr4   O15   S    
C81   O33   A    
C14   C22   S    
Cr9   O33   S    
C72   C80   A    
C145  O54   S    
C114  C138  S    
C66   H60   S    
C90   O42   A    
C38   C46   A    
C99   H19   S    
C131  C139  S    
C2    O10   A    
C37   C55   A    
Cr3   O14   S    
C38   C56   A    
C133  H37   S    
O58   H67   S    
C22   C92   S    
C6    O22   A    
C25   C59   A    
C17   C97   S    
C27   C49   A    
C119  C127  S    
C29   C63   A    
C30   C64   A    
C41   C43   A    
C31   C61   A    
O54   H65   S    
Cr3   O5    S    
C109  C117  S    
Cr10  O36   S    
C11   C19   S    
C127  C135  S    
C136  H40   S    
C128  C136  S    
Cr11  O37   S    
C93   O45   A    
C101  C109  S    
C103  C111  S    
C151  O65   D    
C79   H15   S    
C156  H83   S    
C11   C139  S    
C86   O38   A    
Cr3   O51   S    
C9    C137  S    
C105  H1    S    
C100  H20   S    
O56   H66   S    
C12   C140  S    
C17   C95   S    
C13   C141  S    
C88   C120  S    
C68   H58   S    
C19   C93   S    
Cr12  O39   S    
C160  H95   S    
C45   H45   S    
C32   C54   A    
C152  O68   S    
C7    O15   A    
C126  H30   S    
C97   H17   S    
Cr8   O23   S    
O64   H70   S    
Cr1   O2    S    
C83   O35   A    
C117  C141  S    
O66   H71   S    
C148  O59   D    
C134  C142  S    
C107  H3    S    
O60   H68   S    
C20   C100  S    
Cr2   O50   S    
Cr5   O18   S    
C4    O20   A    
C77   C79   A    
C47   H47   S    
C86   C118  S    
C8    O16   A    
C35   H51   S    
C22   C134  S    
Cr6   O20   S    
C102  C110  S    
C68   C76   A    
C91   O3    A    
C74   H10   S    
C143  C151  S    
C12   C108  S    
C21   C91   S    
Cr5   O25   S    
C116  C124  S    
C123  C131  S    
C69   H63   S    
C57   C65   A    
C4    C26   S    
C120  C128  S    
C124  H28   S    
Cr12  O52   S    
C132  C140  S    
C99   C107  S    
C40   H56   S    
C133  C141  S    
C71   H61   S    
C23   C135  S    
C8    C30   S    
Cr9   O41   S    
C108  C116  S    
Cr5   O49   S    
C136  C144  S    
C11   C155  S    
C155  H79   S    
C39   C53   A    
C103  H23   S    
C158  H88   S    
Cr11  O46   S    
C101  H21   S    
C94   O6    A    
C135  H39   S    
C46   H46   S    
C9    C153  S    
C60   C68   A    
C153  H73   S    
C81   C113  S    
Cr5   O17   S    
C82   O34   A    
C3    O19   A    
C86   O30   A    
Cr9   O34   S    
C70   C78   A    
C18   C96   S    
C159  H91   S    
Cr7   O29   S    
Cr2   O12   S    
C154  H76   S    
C34   H50   S    
C142  C150  S    
C106  C114  S    
C111  C119  S    
C15   C159  S    
C90   O2    A    
C98   H18   S    
C14   C158  S    
C65   C73   A    
Cr1   O49   S    
C28   C50   A    
C58   C66   A    
C157  H86   S    
C13   C109  S    
C21   C101  S    
C15   C23   S    
C16   C24   S    
C5    O13   A    
Cr4   O7    S    
C53   C55   A    
C19   C131  S    
Cr6   O27   S    
C94   O46   A    
C54   C56   A    
C17   C129  S    
C81   O25   A    
C111  H7    S    
C82   C114  S    
C2    O18   A    
C155  H81   S    
C147  O57   D    
C106  H2    S    
C70   H64   S    
C24   C104  S    
C158  H90   S    
C25   C51   A    
C26   C52   A    
C101  C125  S    
C153  H75   S    
C145  O53   D    
C159  H92   S    
C113  C121  S    
C92   O44   A    
C31   C53   A    
Cr9   O42   S    
C37   H53   S    
C98   C122  S    
Cr3   O13   S    
C9    C17   S    
C146  O56   S    
C138  C146  S    
C11   C107  S    
C159  H93   S    
C67   H57   S    
Cr6   O19   S    
C103  C127  S    
C99   C123  S    
C16   C160  S    
C154  H78   S    
C125  C133  S    
C10   C154  S    
Cr9   O49   S    
C115  C139  S    
C118  C142  S    
C75   H11   S    
C141  C149  S    
C108  H4    S    
C131  H35   S    
C118  C126  S    
C22   C102  S    
C5    O21   A    
C87   O31   A    
C150  O64   S    
C109  H5    S    
Cr7   O22   S    
Cr2   O3    S    
Cr7   O51   S    
C104  H24   S    
Cr12  O47   S    
C26   C60   A    
Cr8   O52   S    
C137  C145  S    
C149  O62   S    
C64   C72   A    
C156  H82   S    
C36   C44   A    
C114  C122  S    
C1    O9    A    
C122  H26   S    
C3    C25   S    
C89   O41   A    
C77   H13   S    
C7    O23   A    
C1    C27   S    
C43   H43   S    
C18   C98   S    
C5    C31   S    
C117  C125  S    
C122  C130  S    
Cr8   O31   S    
Cr12  O40   S    
