data_str_m2_o4_o17_f0_pcu.sym.68
_audit_creation_date              2012-10-26T19:52:49-0400
_audit_creation_method            fapswitch 2.2
_symmetry_space_group_name_H-M    P1
_symmetry_Int_Tables_number       1
_space_group_crystal_system       triclinic
_cell_length_a                    14.992734
_cell_length_b                    10.834618
_cell_length_c                    9.587024
_cell_angle_alpha                 91.028081
_cell_angle_beta                  88.589261
_cell_angle_gamma                 91.022049
_cell_volume                      1556.36300446

loop_
_atom_site_label
_atom_site_type_symbol
_atom_type_description
_atom_site_fract_x
_atom_site_fract_y
_atom_site_fract_z
_atom_type_partial_charge
C1    C     C_R   0.497661 0.262596 0.498972 0.548914
C2    C     C_R   0.186902 0.419955 0.410926 -0.114051
C3    C     C_R   0.232186 0.501477 0.500438 -0.033633
C4    C     C_R   0.328881 0.500567 0.500924 0.545110
C5    C     C_R   0.185689 0.587013 0.583386 -0.160362
C6    C     C_R   0.475806 0.066690 0.621846 0.039176
C7    C     C_R   0.487570 0.129668 0.497131 0.007349
C8    C     C_R   0.486691 0.062131 0.370865 -0.164354
C9    C     C_R   0.487154 0.933518 0.372430 -0.169931
C10   C     C_R   0.489327 0.871212 0.500154 0.001281
C11   C     C_R   0.476743 0.939643 0.623745 0.023098
C12   C     C_R   0.906205 0.588788 0.581412 0.022135
C13   C     C_3   0.526815 0.941175 0.756575 -0.288849
C14   C     C_3   0.524982 0.080744 0.754466 -0.259572
C15   C     C_R   0.571097 0.546903 0.071299 0.174101
C16   C     C_R   0.498376 0.737803 0.500773 0.528138
C17   C     C_R   0.441360 0.428542 0.077315 0.200864
C18   C     C_R   0.433273 0.442055 0.930193 0.363015
C19   C     C_R   0.572668 0.543066 0.924487 0.077274
C20   C     C_3   0.613707 0.669064 0.919561 -0.235942
C21   C     C_3   0.611085 0.673027 0.078479 0.144159
C22   C     C_R   0.671015 0.501512 0.498497 0.534739
C23   C     C_R   0.953321 0.339669 0.318020 -0.128757
C24   C     C_R   0.813236 0.586158 0.583415 -0.141915
C25   C     C_R   0.767512 0.504453 0.494934 0.000789
C26   C     C_R   0.813773 0.424790 0.403981 -0.118964
C27   C     C_R   0.906773 0.423847 0.403353 -0.030530
C28   C     C_R   0.953286 0.506464 0.491709 0.042199
C29   C     C_3   0.288822 0.481345 0.872768 0.015242
C30   C     C_3   0.231945 0.483162 0.007958 -0.314530
C31   C     C_3   0.149505 0.562299 0.993954 -0.479932
C32   C     C_3   0.713387 0.772097 0.224215 0.022946
C33   C     C_3   0.733333 0.890502 0.142707 -0.284072
C34   C     C_R   0.047531 0.337447 0.316327 0.263908
C35   C     C_3   0.756117 0.998430 0.240753 -0.487393
C36   C     C_3   0.059990 0.213657 0.111482 0.003394
C37   C     C_3   0.017734 0.084057 0.120545 -0.256939
C38   C     C_3   0.973710 0.045737 0.984280 -0.489754
C39   C     C_R   0.093756 0.420480 0.405601 0.025423
C40   C     C_R   0.046650 0.505458 0.492349 0.013387
C41   C     C_R   0.092899 0.588745 0.581390 0.016500
C42   C     C_R   0.045655 0.671769 0.667788 -0.135073
C43   C     C_R   0.952740 0.671311 0.668411 -0.132687
Cu1   Cu    Cu3+1 0.500000 0.499980 0.640670 0.972248
Cu2   Cu    Cu3+1 0.500000 0.500020 0.359330 0.973627
H1    H     H_    0.776316 0.648353 0.652311 0.099754
H2    H     H_    0.563880 0.742119 0.123681 0.086424
H3    H     H_    0.915284 0.274481 0.255648 0.099758
H4    H     H_    0.224920 0.355526 0.346677 0.164970
H5    H     H_    0.221918 0.651790 0.649486 0.100483
H6    H     H_    0.080567 0.735962 0.736135 0.106421
H7    H     H_    0.917275 0.735073 0.737236 0.105514
H8    H     H_    0.490668 0.107898 0.271391 0.139699
H9    H     H_    0.327975 0.337850 0.146810 0.222380
H10   H     H_    0.413184 0.246853 0.097875 0.206017
H11   H     H_    0.242903 0.453824 0.788688 0.179487
H12   H     H_    0.490350 0.883992 0.273587 0.122156
H13   H     H_    0.314293 0.576715 0.850982 0.135498
H14   H     H_    0.208993 0.388007 0.032192 0.176930
H15   H     H_    0.271450 0.522641 0.094993 0.167371
H16   H     H_    0.169352 0.658417 0.967116 0.142285
H17   H     H_    0.111066 0.564024 0.094495 0.164253
H18   H     H_    0.105795 0.523082 0.911792 0.156195
H19   H     H_    0.772674 0.750986 0.286288 0.157430
H20   H     H_    0.657297 0.785366 0.300947 0.136999
H21   H     H_    0.790416 0.874768 0.068810 0.168416
H22   H     H_    0.674414 0.915043 0.081502 0.146136
H23   H     H_    0.485907 0.903035 0.844489 0.126318
H24   H     H_    0.698922 0.017488 0.313394 0.154350
H25   H     H_    0.770939 0.082354 0.178904 0.145422
H26   H     H_    0.815723 0.977327 0.302019 0.144203
H27   H     H_    0.115858 0.209007 0.033482 0.147357
H28   H     H_    0.013108 0.281913 0.069930 0.120750
H29   H     H_    0.070341 0.016823 0.143490 0.173776
H30   H     H_    0.967055 0.080401 0.206757 0.161632
H31   H     H_    0.918177 0.108575 0.962504 0.147697
H32   H     H_    0.946346 0.950202 0.992796 0.141735
H33   H     H_    0.023287 0.048168 0.896285 0.150870
H34   H     H_    0.595407 0.904794 0.742400 0.125838
H35   H     H_    0.482986 0.121699 0.839957 0.152102
H36   H     H_    0.592201 0.124362 0.739723 0.137999
H37   H     H_    0.682140 0.668910 0.872277 0.148169
H38   H     H_    0.567824 0.734248 0.874035 0.097643
H39   H     H_    0.777111 0.361447 0.336674 0.118270
N1    N     N_R   0.500570 0.500930 0.147930 -0.261394
N2    N     N_R   0.500570 0.500890 0.852020 -0.255478
N3    N     N_3   0.396613 0.329576 0.149147 -0.552697
O1    O     O_R   0.500000 0.319640 0.618810 -0.476357
O2    O     O_3   0.697954 0.670291 0.133074 -0.556205
O3    O     O_3   0.096641 0.248847 0.241417 -0.589302
O4    O     O_R   0.500010 0.319680 0.381230 -0.480750
O5    O     O_R   0.370250 0.499950 0.618800 -0.480694
O6    O     O_R   0.370260 0.499990 0.381220 -0.488109
O7    O     O_R   0.499990 0.680320 0.618770 -0.510384
O8    O     O_R   0.500000 0.680360 0.381190 -0.521706
O9    O     O_R   0.629740 0.500010 0.618780 -0.507353
O10   O     O_R   0.629750 0.500050 0.381200 -0.475732
O11   O     O_3   0.357920 0.392507 0.868775 -0.554320

loop_
_geom_bond_atom_site_label_1
_geom_bond_atom_site_label_2
_ccdc_geom_bond_type
C37   H29   S    
C13   H34   S    
C20   H37   S    
C41   C42   A    
C31   H16   S    
C19   C20   S    
C19   N2    A    
Cu2   O6    S    
C7    C8    A    
C21   O2    S    
C15   C19   A    
C26   C27   A    
C29   C30   S    
C29   O11   S    
C12   C28   A    
C17   N1    A    
C36   C37   S    
C12   C43   A    
H9    N3    S    
C43   H7    S    
C28   C40   A    
C2    C39   A    
C35   H25   S    
C8    C9    A    
C22   C25   S    
C30   H15   S    
C23   C27   A    
C9    C10   A    
Cu1   O5    S    
C42   H6    S    
C15   N1    A    
C1    O1    A    
C37   H30   S    
C35   H26   S    
C1    O4    A    
C22   O10   A    
C1    C7    S    
C13   C14   S    
C31   H17   S    
Cu1   N2    S    
C33   H21   S    
C34   C39   A    
C31   H18   S    
C24   C25   A    
C32   H19   S    
C36   H28   S    
C6    C11   A    
C38   H31   S    
C38   H33   S    
C25   C26   A    
Cu2   N1    S    
C34   O3    S    
C37   C38   S    
Cu1   O9    S    
C2    H4    S    
C6    C14   S    
C32   O2    S    
C23   C34   A    
C30   H14   S    
C17   C18   A    
C18   N2    A    
C29   H13   S    
C40   C41   A    
C38   H32   S    
C14   H35   S    
C5    H5    S    
C42   C43   A    
C3    C4    S    
Cu2   O8    S    
C39   C40   A    
Cu1   Cu2   S    
C33   H22   S    
C36   O3    S    
C5    C41   A    
C16   O8    A    
C26   H39   S    
C23   H3    S    
C17   N3    S    
C22   O9    A    
C3    C5    A    
C8    H8    S    
C6    C7    A    
C29   H11   S    
C12   C24   A    
C16   O7    A    
C24   H1    S    
C32   C33   S    
C2    C3    A    
C10   C16   S    
C11   C13   S    
C30   C31   S    
C33   C35   S    
C9    H12   S    
H10   N3    S    
Cu2   O4    S    
Cu1   O7    S    
C10   C11   A    
C4    O6    A    
C15   C21   S    
C20   C21   S    
C35   H24   S    
C20   H38   S    
C27   C28   A    
Cu2   O10   S    
C18   O11   S    
C14   H36   S    
C21   H2    S    
Cu1   O1    S    
C36   H27   S    
C32   H20   S    
C4    O5    A    
C13   H23   S    
