data_str_m4_o22_o24_f0_acs.sym.15
_audit_creation_date              2012-12-11T15:08:43-0500
_audit_creation_method            fapswitch 2.2
_symmetry_space_group_name_H-M    P1
_symmetry_Int_Tables_number       1
_space_group_crystal_system       triclinic
_cell_length_a                    19.474285
_cell_length_b                    11.403047
_cell_length_c                    18.668509
_cell_angle_alpha                 89.649053
_cell_angle_beta                  90.779716
_cell_angle_gamma                 90.095346
_cell_volume                      4145.17780393

loop_
_atom_site_label
_atom_site_type_symbol
_atom_type_description
_atom_site_fract_x
_atom_site_fract_y
_atom_site_fract_z
_atom_type_partial_charge
C1    C     C_R   0.274616 0.037956 0.855534 0.555447
C2    C     C_3   0.690456 0.522254 0.956661 -0.233292
C3    C     C_R   0.226539 0.541793 0.354673 0.532258
C4    C     C_R   0.469229 0.822948 0.646025 0.532491
C5    C     C_R   0.532431 0.822625 0.354926 0.533615
C6    C     C_R   0.969229 0.322948 0.646025 0.532491
C7    C     C_R   0.032431 0.322625 0.354926 0.533615
C8    C     C_R   0.259987 0.638815 0.644562 0.534534
C9    C     C_R   0.739230 0.640677 0.356470 0.541213
C10   C     C_R   0.759988 0.138815 0.644562 0.534534
C11   C     C_R   0.239230 0.140677 0.356470 0.541213
C12   C     C_3   0.456548 0.910928 0.031834 -0.139494
C13   C     C_3   0.816918 0.043764 0.048220 -0.237322
C14   C     C_3   0.513474 0.932484 0.976790 -0.113013
C15   C     C_3   0.956548 0.410927 0.031834 -0.139494
C16   C     C_3   0.013474 0.432484 0.976790 -0.113012
C17   C     C_3   0.429945 0.806183 0.986413 -0.131470
C18   C     C_3   0.559735 0.845647 0.018225 -0.116880
C19   C     C_3   0.929945 0.306183 0.986413 -0.131470
C20   C     C_3   0.059735 0.345647 0.018225 -0.116880
C21   C     C_3   0.487515 0.827707 0.932470 0.062205
C22   C     C_3   0.502666 0.824789 0.072007 0.050534
C23   C     C_3   0.987515 0.327707 0.932470 0.062205
C24   C     C_3   0.190456 0.022254 0.956661 -0.233292
C25   C     C_3   0.002666 0.324789 0.072007 0.050534
C26   C     C_3   0.273602 0.806211 0.171934 -0.303349
C27   C     C_3   0.731453 0.798861 0.810824 -0.302333
C28   C     C_3   0.773602 0.306208 0.171934 -0.303353
C29   C     C_3   0.231453 0.298864 0.810824 -0.302334
C30   C     C_3   0.322478 0.555558 0.966100 -0.242904
C31   C     C_3   0.682863 0.544547 0.037475 -0.244013
C32   C     C_3   0.822478 0.055558 0.966100 -0.242904
C33   C     C_3   0.182863 0.044547 0.037475 -0.244012
C34   C     C_3   0.188667 0.521267 0.027568 -0.250530
C35   C     C_3   0.819837 0.540523 0.977358 -0.258466
C36   C     C_3   0.688667 0.021266 0.027568 -0.250530
C37   C     C_R   0.728718 0.046611 0.147697 0.532335
C38   C     C_3   0.319837 0.040524 0.977358 -0.258467
C39   C     C_3   0.234898 0.714733 0.057668 0.017878
C40   C     C_3   0.754842 0.709659 0.931785 0.022468
C41   C     C_3   0.734897 0.214732 0.057668 0.017877
C42   C     C_3   0.254842 0.209659 0.931785 0.022467
C43   C     C_3   0.244504 0.583184 0.073054 0.085205
C44   C     C_3   0.758429 0.576314 0.928093 0.087332
C45   C     C_3   0.744504 0.083183 0.073054 0.085205
C46   C     C_3   0.258429 0.076314 0.928093 0.087331
C47   C     C_3   0.257079 0.615595 0.933917 0.034512
C48   C     C_R   0.774616 0.537956 0.855534 0.555448
C49   C     C_3   0.738352 0.633414 0.062368 0.031055
C50   C     C_3   0.757079 0.115595 0.933916 0.034513
C51   C     C_3   0.238352 0.133415 0.062368 0.031056
C52   C     C_3   0.197049 0.533803 0.946631 -0.280444
C53   C     C_3   0.809567 0.578420 0.054507 -0.242608
C54   C     C_3   0.697049 0.033802 0.946631 -0.280445
C55   C     C_3   0.309567 0.078420 0.054507 -0.242608
C56   C     C_3   0.238864 0.730120 0.975013 -0.187555
C57   C     C_3   0.735443 0.738963 0.009496 -0.236080
C58   C     C_3   0.738864 0.230120 0.975013 -0.187554
C59   C     C_R   0.228718 0.546611 0.147698 0.532335
C60   C     C_3   0.235442 0.238963 0.009496 -0.236080
C61   C     C_3   0.507572 0.701266 0.462282 -0.227605
C62   C     C_3   0.505481 0.701783 0.542426 -0.233411
C63   C     C_3   0.007572 0.201266 0.462282 -0.227605
C64   C     C_3   0.005481 0.201783 0.542426 -0.233411
C65   C     C_R   0.468242 0.821061 0.855634 0.532555
C66   C     C_R   0.527525 0.821019 0.147309 0.523352
C67   C     C_R   0.968242 0.321061 0.855634 0.532555
C68   C     C_R   0.027525 0.321019 0.147309 0.523353
C69   C     C_3   0.563056 0.908526 0.473983 -0.212686
C70   C     C_3   0.533585 0.741637 0.973597 -0.121054
C71   C     C_3   0.431544 0.882741 0.525039 -0.224475
C72   C     C_3   0.063056 0.408526 0.473983 -0.212686
C73   C     C_3   0.931544 0.382741 0.525039 -0.224475
C74   C     C_3   0.441799 0.881765 0.442993 -0.262222
C75   C     C_3   0.554181 0.901096 0.556054 -0.256353
C76   C     C_3   0.941799 0.381765 0.442993 -0.262222
C77   C     C_3   0.054181 0.401096 0.556054 -0.256354
C78   C     C_3   0.511950 0.828180 0.431265 0.066353
C79   C     C_3   0.490822 0.827764 0.569759 0.061318
C80   C     C_3   0.011950 0.328180 0.431265 0.066353
C81   C     C_3   0.476816 0.720361 0.028044 -0.120557
C82   C     C_3   0.990822 0.327764 0.569759 0.061317
C83   C     C_3   0.177377 0.640533 0.460292 -0.225923
C84   C     C_3   0.815834 0.661688 0.543649 -0.233250
C85   C     C_3   0.677377 0.140533 0.460292 -0.225923
C86   C     C_3   0.315834 0.161688 0.543649 -0.233250
C87   C     C_3   0.179089 0.644906 0.540448 -0.236579
C88   C     C_3   0.814080 0.666421 0.463550 -0.227851
C89   C     C_3   0.679089 0.144906 0.540448 -0.236579
C90   C     C_3   0.314080 0.166421 0.463550 -0.227851
C91   C     C_3   0.255417 0.454933 0.473976 -0.211767
C92   C     C_3   0.033585 0.241637 0.973597 -0.121054
C93   C     C_3   0.759992 0.461558 0.528277 -0.219171
C94   C     C_3   0.755417 0.954933 0.473976 -0.211767
C95   C     C_3   0.259992 0.961558 0.528277 -0.219171
C96   C     C_3   0.301826 0.647700 0.443046 -0.265454
C97   C     C_3   0.690308 0.634642 0.556334 -0.260699
C98   C     C_3   0.801826 0.147700 0.443046 -0.265454
C99   C     C_3   0.190308 0.134642 0.556334 -0.260699
C100  C     C_3   0.239687 0.570154 0.430775 0.070206
C101  C     C_3   0.758993 0.577150 0.571100 0.066238
C102  C     C_3   0.739687 0.070154 0.430775 0.070206
C103  C     C_3   0.976816 0.220360 0.028044 -0.120557
C104  C     C_3   0.258993 0.077150 0.571100 0.066238
C105  C     C_3   0.250421 0.603896 0.568764 0.063255
C106  C     C_3   0.747617 0.607953 0.432819 0.066263
C107  C     C_3   0.750421 0.103896 0.568764 0.063255
C108  C     C_3   0.247617 0.107953 0.432819 0.066263
C109  C     C_3   0.256106 0.473097 0.555782 -0.257230
C110  C     C_3   0.756117 0.477297 0.446124 -0.266743
C111  C     C_3   0.756106 0.973097 0.555782 -0.257230
C112  C     C_3   0.256117 0.977297 0.446124 -0.266743
C113  C     C_R   0.263254 0.645065 0.856033 0.535785
C114  C     C_3   0.316918 0.543764 0.048220 -0.237321
C115  C     C_R   0.728928 0.673292 0.138631 0.542862
C116  C     C_R   0.763254 0.145064 0.856033 0.535784
C117  C     C_R   0.228928 0.173293 0.138631 0.542862
C118  C     C_3   0.307233 0.664886 0.524867 -0.224177
C119  C     C_3   0.681534 0.643359 0.474213 -0.212564
C120  C     C_3   0.807233 0.164886 0.524867 -0.224177
C121  C     C_3   0.181534 0.143359 0.474213 -0.212564
C122  C     C_R   0.272174 0.046014 0.647020 0.523403
C123  C     C_R   0.726539 0.041793 0.354673 0.532258
C124  C     C_R   0.772174 0.546014 0.647020 0.523403
Cr1   Cr    Cr6+3 0.229620 0.836040 0.749110 0.989470
Cr2   Cr    Cr6+3 0.613980 0.676590 0.250790 0.989653
Cr3   Cr    Cr6+3 0.886020 0.176590 0.749210 0.989459
Cr4   Cr    Cr6+3 0.113980 0.176590 0.250790 0.989652
Cr5   Cr    Cr6+3 0.770380 0.836040 0.250890 0.986797
Cr6   Cr    Cr6+3 0.729620 0.336040 0.749110 0.989470
Cr7   Cr    Cr6+3 0.270380 0.336040 0.250890 0.986797
Cr8   Cr    Cr6+3 0.387630 0.990680 0.750730 0.988852
Cr9   Cr    Cr6+3 0.612370 0.990680 0.249270 0.987721
Cr10  Cr    Cr6+3 0.887630 0.490680 0.750730 0.988852
Cr11  Cr    Cr6+3 0.112370 0.490680 0.249270 0.987721
Cr12  Cr    Cr6+3 0.386020 0.676590 0.749210 0.989459
H1    H     H_    0.378409 0.785893 0.967198 0.095669
H2    H     H_    0.682305 0.764753 0.006090 0.127885
H3    H     H_    0.218195 0.902691 0.545730 0.130280
H4    H     H_    0.305095 0.440791 0.579843 0.114581
H5    H     H_    0.712034 0.427354 0.423240 0.108735
H6    H     H_    0.805095 0.940791 0.579843 0.114581
H7    H     H_    0.212034 0.927354 0.423240 0.108735
H8    H     H_    0.329089 0.452684 0.064343 0.127514
H9    H     H_    0.687515 0.429638 0.946187 0.124328
H10   H     H_    0.829089 0.952685 0.064343 0.127514
H11   H     H_    0.187515 0.929638 0.946187 0.124328
H12   H     H_    0.356755 0.596289 0.075652 0.115976
H13   H     H_    0.771797 0.300983 0.958110 0.112940
H14   H     H_    0.645846 0.556112 0.926341 0.109249
H15   H     H_    0.856755 0.096290 0.075651 0.115976
H16   H     H_    0.145846 0.056112 0.926342 0.109248
H17   H     H_    0.370194 0.601361 0.951556 0.143274
H18   H     H_    0.630568 0.579077 0.047753 0.131724
H19   H     H_    0.870194 0.101360 0.951556 0.143275
H20   H     H_    0.130568 0.079077 0.047753 0.131724
H21   H     H_    0.327739 0.466571 0.942691 0.113701
H22   H     H_    0.688367 0.461081 0.067875 0.157499
H23   H     H_    0.827739 0.966570 0.942691 0.113701
H24   H     H_    0.182305 0.264753 0.006090 0.127886
H25   H     H_    0.188367 0.961081 0.067875 0.157497
H26   H     H_    0.695274 0.932371 0.042880 0.109372
H27   H     H_    0.326655 0.947144 0.976782 0.121592
H28   H     H_    0.195274 0.432372 0.042880 0.109372
H29   H     H_    0.826655 0.447144 0.976781 0.121591
H30   H     H_    0.707217 0.948972 0.922627 0.179584
H31   H     H_    0.315611 0.003596 0.091763 0.158444
H32   H     H_    0.207217 0.448973 0.922627 0.179584
H33   H     H_    0.815611 0.503595 0.091763 0.158444
H34   H     H_    0.334462 0.782544 0.082184 0.258000
H35   H     H_    0.185954 0.752924 0.957081 0.107056
H36   H     H_    0.303133 0.883889 0.190351 0.141657
H37   H     H_    0.292854 0.729402 0.202867 0.149974
H38   H     H_    0.218540 0.821487 0.183468 0.165932
H39   H     H_    0.656313 0.728331 0.878513 0.254700
H40   H     H_    0.694130 0.861605 0.786648 0.138126
H41   H     H_    0.736980 0.724135 0.773632 0.172105
H42   H     H_    0.781360 0.845155 0.817311 0.153611
H43   H     H_    0.834461 0.282545 0.082184 0.258000
H44   H     H_    0.803129 0.383890 0.190351 0.141659
H45   H     H_    0.792858 0.229402 0.202866 0.149972
H46   H     H_    0.770916 0.806831 0.029079 0.100864
H47   H     H_    0.718540 0.321476 0.183469 0.165935
H48   H     H_    0.156313 0.228329 0.878512 0.254700
H49   H     H_    0.194130 0.361604 0.786648 0.138127
H50   H     H_    0.236983 0.224137 0.773632 0.172107
H51   H     H_    0.281360 0.345161 0.817312 0.153611
H52   H     H_    0.685954 0.252924 0.957080 0.107056
H53   H     H_    0.270915 0.306831 0.029079 0.100863
H54   H     H_    0.636200 0.051374 0.041692 0.138543
H55   H     H_    0.368940 0.078945 0.958093 0.133566
H56   H     H_    0.136200 0.551374 0.041692 0.138543
H57   H     H_    0.605895 0.855628 0.048707 0.100117
H58   H     H_    0.868940 0.578945 0.958094 0.133566
H59   H     H_    0.148804 0.567762 0.921554 0.127728
H60   H     H_    0.850476 0.643184 0.068319 0.133589
H61   H     H_    0.648804 0.067762 0.921554 0.127727
H62   H     H_    0.350475 0.143185 0.068319 0.133589
H63   H     H_    0.548633 0.643894 0.445754 0.136903
H64   H     H_    0.467257 0.634950 0.558197 0.136408
H65   H     H_    0.048633 0.143894 0.445754 0.136903
H66   H     H_    0.967257 0.134951 0.558197 0.136408
H67   H     H_    0.460785 0.657177 0.440818 0.113362
H68   H     H_    0.878409 0.285892 0.967198 0.095669
H69   H     H_    0.554459 0.670961 0.565664 0.117195
H70   H     H_    0.960785 0.157177 0.440818 0.113362
H71   H     H_    0.054459 0.170961 0.565664 0.117195
H72   H     H_    0.616174 0.895921 0.458624 0.111851
H73   H     H_    0.390567 0.825052 0.536515 0.111457
H74   H     H_    0.116174 0.395921 0.458624 0.111851
H75   H     H_    0.890567 0.325052 0.536515 0.111457
H76   H     H_    0.599984 0.861754 0.582514 0.100352
H77   H     H_    0.401370 0.829528 0.415461 0.102924
H78   H     H_    0.099984 0.361754 0.582514 0.100352
H79   H     H_    0.105895 0.355629 0.048707 0.100117
H80   H     H_    0.901370 0.329528 0.415461 0.102924
H81   H     H_    0.429541 0.979044 0.061918 0.104167
H82   H     H_    0.529756 0.018381 0.954533 0.103472
H83   H     H_    0.929540 0.479044 0.061918 0.104167
H84   H     H_    0.029755 0.518381 0.954533 0.103472
H85   H     H_    0.438984 0.972148 0.420552 0.111573
H86   H     H_    0.545992 0.989642 0.578851 0.115592
H87   H     H_    0.938984 0.472148 0.420552 0.111573
H88   H     H_    0.045992 0.489642 0.578851 0.115592
H89   H     H_    0.421318 0.972950 0.543054 0.128625
H90   H     H_    0.182235 0.741465 0.073728 0.142453
H91   H     H_    0.548831 0.998925 0.458765 0.120959
H92   H     H_    0.921318 0.472950 0.543054 0.128625
H93   H     H_    0.048831 0.498925 0.458765 0.120959
H94   H     H_    0.127501 0.608361 0.442831 0.138218
H95   H     H_    0.868787 0.636638 0.559648 0.138381
H96   H     H_    0.627501 0.108361 0.442831 0.138218
H97   H     H_    0.368787 0.136638 0.559648 0.138381
H98   H     H_    0.178480 0.731554 0.438473 0.112752
H99   H     H_    0.807942 0.749770 0.566296 0.113522
H100  H     H_    0.678480 0.231554 0.438473 0.112752
H101  H     H_    0.806665 0.748128 0.922155 0.143891
H102  H     H_    0.307942 0.249770 0.566296 0.113522
H103  H     H_    0.165508 0.735657 0.555474 0.135207
H104  H     H_    0.821051 0.756896 0.446675 0.137053
H105  H     H_    0.665508 0.235657 0.555474 0.135207
H106  H     H_    0.321051 0.256896 0.446675 0.137053
H107  H     H_    0.138825 0.588765 0.563301 0.116748
H108  H     H_    0.860016 0.621031 0.442392 0.113378
H109  H     H_    0.638825 0.088765 0.563301 0.116748
H110  H     H_    0.360016 0.121031 0.442392 0.113378
H111  H     H_    0.722810 0.881587 0.458046 0.110969
H112  H     H_    0.682235 0.241464 0.073728 0.142454
H113  H     H_    0.308758 0.927129 0.542932 0.112572
H114  H     H_    0.222810 0.381587 0.458046 0.110969
H115  H     H_    0.808758 0.427128 0.542932 0.112572
H116  H     H_    0.713240 0.925139 0.581220 0.098968
H117  H     H_    0.303101 0.944118 0.420329 0.104784
H118  H     H_    0.213240 0.425139 0.581220 0.098968
H119  H     H_    0.803101 0.444118 0.420329 0.104784
H120  H     H_    0.348987 0.606034 0.422257 0.110404
H121  H     H_    0.649537 0.578546 0.579671 0.114795
H122  H     H_    0.848987 0.106034 0.422257 0.110404
H123  H     H_    0.306665 0.248129 0.922156 0.143891
H124  H     H_    0.149537 0.078546 0.579671 0.114795
H125  H     H_    0.295517 0.732859 0.414517 0.100913
H126  H     H_    0.687979 0.722430 0.581352 0.098822
H127  H     H_    0.795517 0.232859 0.414517 0.100913
H128  H     H_    0.187979 0.222430 0.581352 0.098823
H129  H     H_    0.563357 0.672850 0.947494 0.095635
H130  H     H_    0.464493 0.632767 0.050251 0.109803
H131  H     H_    0.063357 0.172851 0.947494 0.095636
H132  H     H_    0.964493 0.132767 0.050251 0.109803
H133  H     H_    0.297063 0.754699 0.534609 0.111999
H134  H     H_    0.271797 0.800983 0.958110 0.112940
H135  H     H_    0.661448 0.728519 0.457391 0.112857
H136  H     H_    0.797064 0.254699 0.534609 0.111999
H137  H     H_    0.161448 0.228519 0.457391 0.112857
H138  H     H_    0.358384 0.637336 0.544431 0.131704
H139  H     H_    0.642818 0.576582 0.459488 0.121542
H140  H     H_    0.858384 0.137336 0.544431 0.131704
H141  H     H_    0.142818 0.076582 0.459488 0.121542
H142  H     H_    0.308466 0.430686 0.460066 0.119685
H143  H     H_    0.718195 0.402691 0.545730 0.130280
H144  H     H_    0.808465 0.930686 0.460066 0.119685
N1    N     N_2   0.283858 0.789135 0.095911 -0.564265
N2    N     N_2   0.706018 0.758686 0.879359 -0.563505
N3    N     N_2   0.783858 0.289136 0.095911 -0.564266
N4    N     N_2   0.206018 0.258686 0.879359 -0.563505
O1    O     O_R   0.214130 0.708570 0.829890 -0.531047
O2    O     O_R   0.542830 0.717300 0.331620 -0.535785
O3    O     O_R   0.957170 0.217300 0.668380 -0.534685
O4    O     O_R   0.042830 0.217300 0.331620 -0.535785
O5    O     O_R   0.320870 0.624890 0.673130 -0.513679
O6    O     O_R   0.679130 0.624890 0.326870 -0.510900
O7    O     O_R   0.820870 0.124890 0.673130 -0.513679
O8    O     O_R   0.179130 0.124890 0.326870 -0.510901
O9    O     O_3   0.334430 0.834430 0.749680 -0.271984
O10   O     O_3   0.665570 0.834430 0.250320 -0.280037
O11   O     O_3   0.834430 0.334430 0.749680 -0.271983
O12   O     O_R   0.785870 0.708570 0.170110 -0.529532
O13   O     O_3   0.165570 0.334430 0.250320 -0.280037
O14   O     O_R   0.236050 0.959150 0.825270 -0.519894
O15   O     O_R   0.763950 0.959150 0.174730 -0.524708
O16   O     O_R   0.736050 0.459150 0.825270 -0.519893
O17   O     O_R   0.263950 0.459150 0.174730 -0.524708
O18   O     O_R   0.332100 0.076650 0.832310 -0.539002
O19   O     O_R   0.667900 0.076650 0.167690 -0.536716
O20   O     O_R   0.832100 0.576650 0.832310 -0.539002
O21   O     O_R   0.167900 0.576650 0.167690 -0.536716
O22   O     O_R   0.446500 0.918620 0.826240 -0.507506
O23   O     O_R   0.714130 0.208570 0.829890 -0.531047
O24   O     O_R   0.553500 0.918620 0.173760 -0.506394
O25   O     O_R   0.946500 0.418620 0.826240 -0.507506
O26   O     O_R   0.053500 0.418620 0.173760 -0.506394
O27   O     O_R   0.457310 0.715830 0.831280 -0.525411
O28   O     O_R   0.542690 0.715830 0.168720 -0.528639
O29   O     O_R   0.957310 0.215830 0.831280 -0.525411
O30   O     O_R   0.042690 0.215830 0.168720 -0.528639
O31   O     O_R   0.321000 0.623520 0.824130 -0.512417
O32   O     O_R   0.679000 0.623520 0.175870 -0.506317
O33   O     O_R   0.821000 0.123520 0.824130 -0.512416
O34   O     O_R   0.285870 0.208570 0.170110 -0.529532
O35   O     O_R   0.179000 0.123520 0.175870 -0.506317
O36   O     O_R   0.213990 0.710040 0.667000 -0.533841
O37   O     O_R   0.786010 0.710040 0.333000 -0.532453
O38   O     O_R   0.713990 0.210040 0.667000 -0.533841
O39   O     O_R   0.286010 0.210040 0.333000 -0.532453
O40   O     O_R   0.235920 0.960520 0.674260 -0.513199
O41   O     O_R   0.764080 0.960520 0.325740 -0.514885
O42   O     O_R   0.735920 0.460520 0.674260 -0.513199
O43   O     O_R   0.264080 0.460520 0.325740 -0.514885
O44   O     O_R   0.331960 0.078120 0.669410 -0.539553
O45   O     O_R   0.446360 0.919990 0.675230 -0.510879
O46   O     O_R   0.668040 0.078120 0.330590 -0.537656
O47   O     O_R   0.831960 0.578120 0.669410 -0.539552
O48   O     O_R   0.168040 0.578120 0.330590 -0.537656
O49   O     O_R   0.553640 0.919990 0.324770 -0.512018
O50   O     O_R   0.946360 0.419990 0.675230 -0.510879
O51   O     O_R   0.053640 0.419990 0.324770 -0.512018
O52   O     O_R   0.457170 0.717300 0.668380 -0.534685

loop_
_geom_bond_atom_site_label_1
_geom_bond_atom_site_label_2
_ccdc_geom_bond_type
C3    O43   A    
C35   C53   S    
C73   C82   S    
C56   H134  S    
Cr2   O32   S    
C10   C107  S    
C33   H20   S    
C20   C92   S    
C4    O45   A    
C14   C21   S    
C28   H47   S    
C121  H141  S    
Cr12  O5    S    
C1    C46   S    
C94   C111  S    
C29   H50   S    
C5    O2    A    
Cr12  O52   S    
C26   N1    S    
C7    O4    A    
C111  H6    S    
C122  O44   A    
C66   O24   A    
C3    C100  S    
C38   C55   S    
C91   C100  S    
C94   H111  S    
C93   C110  S    
C8    O5    A    
C118  H133  S    
C98   H122  S    
C26   H36   S    
Cr10  O47   S    
C71   H89   S    
C77   H78   S    
Cr1   O1    S    
C75   H76   S    
C86   H97   S    
C20   H79   S    
Cr3   O3    S    
C1    O14   A    
C84   H99   S    
C13   H15   S    
C86   C90   S    
C93   C101  S    
C117  O35   A    
C26   H37   S    
C98   C102  S    
C17   C21   S    
Cr6   O16   S    
C91   H142  S    
C33   H25   S    
C71   C74   S    
C30   C47   S    
C39   C56   S    
C16   C20   S    
Cr4   O35   S    
C28   H44   S    
C11   O8    A    
C49   C115  S    
C83   C100  S    
C56   H35   S    
C105  C118  S    
C59   O21   A    
C37   C45   S    
C102  C123  S    
C107  C120  S    
Cr3   O11   S    
C116  O23   A    
C69   H72   S    
C84   C88   S    
C27   H40   S    
C39   C43   S    
C98   C120  S    
C47   C52   S    
C83   H94   S    
C119  H135  S    
C95   H3    S    
C120  H136  S    
C24   C46   S    
C34   H56   S    
C6    O3    A    
C13   C45   S    
Cr1   O14   S    
Cr8   O45   S    
C77   C82   S    
C49   C53   S    
C86   H102  S    
C89   H109  S    
C51   C55   S    
C93   H143  S    
C94   H144  S    
C94   C102  S    
Cr11  O51   S    
C20   C25   S    
Cr7   O34   S    
C53   H60   S    
C41   C45   S    
C14   H82   S    
C17   H1    S    
C48   O16   A    
C75   C79   S    
C44   C48   S    
Cr6   O38   S    
C91   H114  S    
C37   O15   A    
Cr6   O23   S    
C13   C32   S    
C27   H42   S    
C86   C104  S    
C8    C105  S    
C61   H63   S    
C71   C79   S    
C3    O48   A    
C74   H85   S    
C40   N2    S    
C72   C77   S    
C36   H54   S    
C41   C58   S    
Cr1   O36   S    
C34   H28   S    
C15   C25   S    
C104  C122  S    
C12   C22   S    
C109  H118  S    
C49   C57   S    
C23   C67   S    
C39   H90   S    
C35   H58   S    
C2    C44   S    
C71   H73   S    
C63   H70   S    
Cr2   O28   S    
C43   C59   S    
C113  O1    A    
Cr6   O42   S    
C57   H46   S    
C120  H140  S    
C63   C80   S    
Cr12  O31   S    
C64   H71   S    
Cr10  O50   S    
C101  C124  S    
C87   H103  S    
C113  O31   A    
C96   H120  S    
C65   O27   A    
C66   O28   A    
C123  O46   A    
C111  H116  S    
Cr5   O15   S    
C97   C119  S    
C110  H5    S    
Cr5   O37   S    
C87   C105  S    
C64   C82   S    
Cr9   O10   S    
C115  O32   A    
C38   H27   S    
Cr3   O29   S    
C16   C23   S    
Cr2   O2    S    
C41   H112  S    
C1    O18   A    
C15   H83   S    
C118  H138  S    
C31   H18   S    
C105  C109  S    
C63   H65   S    
Cr1   O40   S    
C18   C22   S    
C107  C111  S    
Cr7   O17   S    
C34   C43   S    
C76   C80   S    
Cr8   O22   S    
C24   H11   S    
Cr7   O43   S    
C99   C121  S    
C90   H106  S    
C90   C108  S    
C72   C80   S    
C29   N4    S    
C96   C100  S    
C51   C117  S    
C29   H49   S    
C16   H84   S    
C61   C62   S    
C38   C46   S    
C36   C54   S    
C65   O22   A    
C63   C64   S    
C40   C44   S    
C38   H55   S    
C11   C108  S    
C23   C92   S    
C51   C60   S    
Cr2   O10   S    
C85   C102  S    
C47   C56   S    
C59   O17   A    
C30   H21   S    
C83   C87   S    
C2    H14   S    
Cr11  O48   S    
C106  C119  S    
C55   H31   S    
C108  C121  S    
C27   N2    S    
Cr4   O13   S    
C2    H9    S    
C15   C19   S    
C52   H59   S    
H43   N3    S    
C50   C54   S    
C54   H61   S    
C109  H4    S    
C112  H7    S    
C54   H30   S    
C95   C112  S    
Cr11  O13   S    
C43   C114  S    
C9    O6    A    
C117  O34   A    
C26   H38   S    
C88   H104  S    
Cr8   O9    S    
C42   C46   S    
C24   H16   S    
Cr2   O6    S    
C75   H86   S    
C12   C17   S    
H39   N2    S    
C53   H33   S    
C32   H23   S    
C99   C104  S    
Cr8   O18   S    
C36   H26   S    
Cr9   O19   S    
C68   O26   A    
C25   C68   S    
C31   C49   S    
C73   H75   S    
C76   H87   S    
C9    O37   A    
C50   C58   S    
C22   C81   S    
C85   C89   S    
C41   N3    S    
Cr6   O11   S    
C108  C112  S    
C114  H8    S    
Cr9   O24   S    
C76   H80   S    
C77   H88   S    
C110  H119  S    
H34   N1    S    
C103  H132  S    
Cr4   O4    S    
C97   H126  S    
Cr12  O27   S    
C99   H128  S    
C74   H77   S    
C73   C76   S    
C12   H81   S    
C30   C114  S    
C47   C113  S    
C40   C57   S    
C21   C65   S    
Cr5   O41   S    
C27   H41   S    
C88   H108  S    
C73   H92   S    
C42   N4    S    
C10   O7    A    
C33   C51   S    
C67   O25   A    
C34   C52   S    
C24   C33   S    
C114  H12   S    
Cr3   O33   S    
Cr5   O10   S    
Cr4   O30   S    
C90   H110  S    
C19   H68   S    
C69   C75   S    
C17   C81   S    
C10   O38   A    
C121  H137  S    
C31   H22   S    
Cr12  O9    S    
Cr10  O25   S    
C119  H139  S    
C29   H51   S    
C74   C78   S    
Cr7   O13   S    
C5    C78   S    
Cr7   O39   S    
C122  O40   A    
C7    C80   S    
C18   C70   S    
C28   N3    S    
C96   H125  S    
C6    C82   S    
C85   H100  S    
C14   C18   S    
C19   C23   S    
C95   H113  S    
C97   H121  S    
C8    O36   A    
C96   C118  S    
C55   H62   S    
C124  O47   A    
C5    O49   A    
C15   C16   S    
C7    O51   A    
C70   C81   S    
C84   H95   S    
Cr10  O11   S    
C22   C66   S    
Cr11  O26   S    
C92   H131  S    
C19   C103  S    
C98   H127  S    
C30   H17   S    
C72   H74   S    
C67   O29   A    
C60   H53   S    
C62   H69   S    
C92   C103  S    
C58   H13   S    
H48   N4    S    
C18   H57   S    
C84   C101  S    
C89   C107  S    
C69   C78   S    
C85   H96   S    
Cr10  O20   S    
C13   H10   S    
C69   H91   S    
C72   H93   S    
C58   H52   S    
C62   C79   S    
C4    C79   S    
C42   C60   S    
Cr9   O46   S    
C25   C103  S    
Cr3   O7    S    
Cr5   O12   S    
C9    C106  S    
C123  O41   A    
C2    C31   S    
C28   H45   S    
C42   H123  S    
C62   H64   S    
C32   H19   S    
C88   C106  S    
C61   H67   S    
C87   H107  S    
C83   H98   S    
Cr4   O8    S    
C61   C78   S    
C68   O30   A    
C36   C45   S    
C35   C44   S    
C32   C50   S    
C12   C14   S    
C4    O52   A    
C81   H130  S    
C89   H105  S    
C6    O50   A    
C95   C104  S    
Cr11  O21   S    
C70   H129  S    
C106  C110  S    
C64   H66   S    
C115  O12   A    
C11   O39   A    
C60   H24   S    
C48   O20   A    
Cr1   O9    S    
C116  O33   A    
C37   O19   A    
Cr8   O44   S    
C21   C70   S    
C91   C109  S    
C52   H32   S    
C40   H101  S    
C112  H117  S    
C99   H124  S    
C39   N1    S    
C35   H29   S    
C57   H2    S    
C50   C116  S    
Cr9   O49   S    
C124  O42   A    
C97   C101  S    
C93   H115  S    
