data_str_m9_o1_o16_f0_sra.sym.46
_audit_creation_date              2012-12-11T15:47:05-0500
_audit_creation_method            fapswitch 2.2
_symmetry_space_group_name_H-M    P1
_symmetry_Int_Tables_number       1
_space_group_crystal_system       triclinic
_cell_length_a                    20.105171
_cell_length_b                    7.25626
_cell_length_c                    13.631062
_cell_angle_alpha                 89.999982
_cell_angle_beta                  102.965755
_cell_angle_gamma                 90.000045
_cell_volume                      1937.91211693

loop_
_atom_site_label
_atom_site_type_symbol
_atom_type_description
_atom_site_fract_x
_atom_site_fract_y
_atom_site_fract_z
_atom_type_partial_charge
O1    O     O_R   0.449560 0.506810 0.599700 -0.534995
O2    O     O_R   0.550440 0.006810 0.400300 -0.534995
O3    O     O_R   0.587960 0.180060 0.595760 -0.546018
O4    O     O_R   0.412040 0.680060 0.404240 -0.546018
C1    C     C_R   0.614998 0.344194 0.617318 0.681326
C2    C     C_R   0.385002 0.844194 0.382682 0.681327
O5    O     O_R   0.452380 0.177430 0.611700 -0.539086
O6    O     O_R   0.547620 0.677430 0.388300 -0.539087
O7    O     O_R   0.413900 0.001890 0.416350 -0.541024
O8    O     O_R   0.586100 0.501890 0.583650 -0.541023
C3    C     C_R   0.436247 0.345819 0.637309 0.685685
C4    C     C_R   0.563753 0.845819 0.362691 0.685685
O9    O     O_3   0.487530 0.337490 0.435890 -0.379162
O10   O     O_3   0.512470 0.837490 0.564110 -0.379162
V1    V     V_3+5 0.502310 0.064660 0.511890 1.407251
V2    V     V_3+5 0.497690 0.564660 0.488110 1.407251
C5    C     C_R   0.609233 0.870982 0.111000 -0.161297
C6    C     C_R   0.390766 0.370953 0.889000 -0.161298
H1    H     H_    0.515637 0.859510 0.161425 0.105930
H2    H     H_    0.484362 0.359479 0.838574 0.105930
H3    H     H_    0.692141 0.880320 0.985097 0.124144
H4    H     H_    0.307858 0.380285 0.014902 0.124145
H5    H     H_    0.582905 0.874548 0.032371 0.115422
H6    H     H_    0.417094 0.374505 0.967628 0.115423
C7    C     C_R   0.603591 0.855166 0.285637 -0.023824
C8    C     C_R   0.396409 0.355164 0.714363 -0.023824
C9    C     C_R   0.932153 0.855984 0.315346 -0.204013
C10   C     C_R   0.067847 0.355987 0.684653 -0.204011
C11   C     C_R   0.897889 0.866723 0.394137 0.066857
C12   C     C_R   0.102111 0.366723 0.605862 0.066856
C13   C     C_R   0.826160 0.879011 0.369679 -0.210443
C14   C     C_R   0.173839 0.379008 0.630320 -0.210442
C15   C     C_R   0.788198 0.872476 0.268541 0.057652
C16   C     C_R   0.211802 0.372472 0.731459 0.057652
C17   C     C_R   0.824655 0.869348 0.190422 0.062354
C18   C     C_R   0.175344 0.369343 0.809578 0.062354
C19   C     C_R   0.715197 0.870088 0.242294 0.080641
C20   C     C_R   0.284803 0.370083 0.757706 0.080641
C21   C     C_R   0.680826 0.873623 0.138923 0.140235
C22   C     C_R   0.319173 0.373604 0.861076 0.140235
C23   C     C_R   0.717984 0.877429 0.063972 -0.204518
C24   C     C_R   0.282016 0.377404 0.936028 -0.204520
C25   C     C_R   0.788711 0.873710 0.089080 -0.187729
C26   C     C_R   0.211289 0.373695 0.910919 -0.187729
C27   C     C_R   0.674843 0.859226 0.314771 -0.214571
C28   C     C_R   0.325157 0.359234 0.685229 -0.214570
C29   C     C_R   0.570848 0.861940 0.184046 -0.174202
C30   C     C_R   0.429151 0.361918 0.815953 -0.174203
C31   C     C_R   0.896610 0.862150 0.215123 -0.097706
C32   C     C_R   0.103389 0.362150 0.784876 -0.097706
H7    H     H_    0.696898 0.850017 0.394343 0.093044
H8    H     H_    0.303103 0.350044 0.605657 0.093045
H9    H     H_    0.987074 0.841309 0.330732 0.110307
H10   H     H_    0.012925 0.341316 0.669267 0.110308
H11   H     H_    0.801058 0.898619 0.430641 0.110477
H12   H     H_    0.198941 0.398609 0.569358 0.110476
H13   H     H_    0.815004 0.873537 0.027909 0.118192
H14   H     H_    0.184996 0.373518 0.972090 0.118193
C33   C     C_R   0.217117 0.023144 0.224038 -0.162640
C34   C     C_R   0.782883 0.523145 0.775961 -0.162637
H15   H     H_    0.193290 0.156099 0.204835 0.115152
H16   H     H_    0.806710 0.656100 0.795163 0.115150
C35   C     C_R   0.282338 0.018715 0.287404 -0.160527
C36   C     C_R   0.717663 0.518716 0.712595 -0.160526
H17   H     H_    0.306399 0.147849 0.315136 0.118016
H18   H     H_    0.693602 0.647850 0.684861 0.118014
C37   C     C_R   0.315859 0.850110 0.314467 -0.038514
C38   C     C_R   0.684141 0.350110 0.685533 -0.038513
C39   C     C_R   0.282171 0.685973 0.276564 -0.158805
C40   C     C_R   0.717828 0.185972 0.723437 -0.158805
H19   H     H_    0.306104 0.553135 0.295776 0.118051
H20   H     H_    0.693895 0.053134 0.704226 0.118051
C41   C     C_R   0.216936 0.690347 0.213235 -0.151610
C42   C     C_R   0.783063 0.190346 0.786766 -0.151611
H21   H     H_    0.192931 0.561095 0.185575 0.118436
H22   H     H_    0.807068 0.061094 0.814427 0.118435
C43   C     C_R   0.183457 0.859006 0.185945 -0.034585
C44   C     C_R   0.816543 0.359006 0.814055 -0.034583
O11   O     O_R   0.913920 0.203370 0.916260 -0.536105
O12   O     O_R   0.086080 0.703370 0.083740 -0.536104
O13   O     O_R   0.047620 0.535540 0.888290 -0.547511
O14   O     O_R   0.952380 0.035540 0.111710 -0.547513
C45   C     C_R   0.063738 0.368405 0.862562 0.697422
C46   C     C_R   0.936262 0.868405 0.137438 0.697421
O15   O     O_R   0.912040 0.532780 0.904220 -0.550585
O16   O     O_R   0.087960 0.032780 0.095780 -0.550585
O17   O     O_R   0.949550 0.708160 0.099720 -0.536235
O18   O     O_R   0.050450 0.208160 0.900280 -0.536238
C47   C     C_R   0.885540 0.364881 0.882755 0.676197
C48   C     C_R   0.114460 0.864881 0.117245 0.676195
O19   O     O_3   0.012480 0.375300 0.064060 -0.387806
O20   O     O_3   0.987520 0.875300 0.935940 -0.387809
V3    V     V_3+5 0.997690 0.648180 0.988110 1.364535
V4    V     V_3+5 0.002310 0.148180 0.011890 1.364531
C49   C     C_R   0.937075 0.862641 0.501595 0.107141
C50   C     C_R   0.005601 0.922338 0.528014 -0.118538
C51   C     C_R   0.043264 0.910708 0.627145 -0.140133
C52   C     C_R   0.013098 0.842785 0.702205 -0.060577
C53   C     C_R   0.945350 0.783606 0.678132 -0.124946
C54   C     C_R   0.907574 0.792333 0.578696 -0.187896
H23   H     H_    0.030629 0.978769 0.472637 0.121983
H24   H     H_    0.095945 0.955598 0.645882 0.129467
H25   H     H_    0.042578 0.835682 0.778825 0.148600
H26   H     H_    0.922225 0.728757 0.736321 0.131420
H27   H     H_    0.856154 0.738240 0.562483 0.109668
C55   C     C_R   0.062925 0.362640 0.498405 0.107143
C56   C     C_R   0.994399 0.422343 0.471986 -0.118540
C57   C     C_R   0.956735 0.410706 0.372857 -0.140132
C58   C     C_R   0.986898 0.342772 0.297797 -0.060575
C59   C     C_R   0.054645 0.283589 0.321869 -0.124948
C60   C     C_R   0.092423 0.292323 0.421304 -0.187898
H28   H     H_    0.969374 0.478782 0.527363 0.121984
H29   H     H_    0.904055 0.455599 0.354120 0.129467
H30   H     H_    0.957417 0.335662 0.221178 0.148597
H31   H     H_    0.077767 0.228728 0.263680 0.131422
H32   H     H_    0.143842 0.238227 0.437517 0.109669

loop_
_geom_bond_atom_site_label_1
_geom_bond_atom_site_label_2
_ccdc_geom_bond_type
C12   C14   A    
C35   H17   S    
O14   V4    S    
C9    C11   A    
C41   H21   S    
C56   H28   S    
O15   V3    S    
C49   C50   A    
O1    C3    A    
C46   O17   A    
O2    C4    A    
C33   C43   A    
C2    O7    A    
C51   C52   A    
O3    V1    S    
C21   C23   A    
O5    C3    A    
C34   C44   A    
C54   H27   S    
C5    H5    S    
C42   H22   S    
C6    H6    S    
C36   C38   A    
C31   C46   S    
H1    C29   S    
C55   C56   A    
C27   H7    S    
C52   H25   S    
C28   H8    S    
C57   C58   A    
C34   H16   S    
C5    C21   A    
C39   H19   S    
C6    C22   A    
C59   C60   A    
O16   V4    S    
C10   C32   A    
C26   H14   S    
C40   C42   A    
C56   C57   A    
C13   C15   A    
C39   C41   A    
C60   H32   S    
C17   C25   A    
C7    C29   A    
C51   H24   S    
C8    C30   A    
C22   C24   A    
C45   O18   A    
O6    V2    S    
C50   H23   S    
C12   C55   S    
C23   C25   A    
C24   C26   A    
C1    C38   S    
O13   C45   A    
C32   C45   S    
O18   V4    S    
C55   C60   A    
C44   C47   S    
C19   C21   A    
C35   C37   A    
C43   C48   S    
C33   H15   S    
O11   C47   A    
O11   V4    S    
O4    C2    A    
O16   C48   A    
C11   C49   S    
O15   C47   A    
C49   C54   A    
C3    C8    S    
C15   C19   A    
C37   C39   A    
C36   H18   S    
C57   H29   S    
O4    V2    S    
C17   C31   A    
O13   V3    S    
C53   C54   A    
O6    C4    A    
C50   C51   A    
O1    V2    S    
O2    V1    S    
H2    C30   S    
C58   H30   S    
H3    C23   S    
C2    C37   S    
O14   C46   A    
C18   C26   A    
C19   C27   A    
C7    C27   A    
C18   C32   A    
C10   H10   S    
C16   C20   A    
C5    C29   A    
O3    C1    A    
C6    C30   A    
C9    H9    S    
C33   C35   A    
C4    C7    S    
C34   C36   A    
C10   C12   A    
O7    V1    S    
C1    O8    A    
C11   C13   A    
O8    V2    S    
C58   C59   A    
O19   V4    S    
C20   C22   A    
H4    C24   S    
O17   V3    S    
O5    V1    S    
O20   V3    S    
C15   C17   A    
C53   H26   S    
C16   C18   A    
O12   C48   A    
C20   C28   A    
C25   H13   S    
C38   C40   A    
C52   C53   A    
C42   C44   A    
O9    V2    S    
C41   C43   A    
O10   V1    S    
C40   H20   S    
C13   H11   S    
O12   V3    S    
C8    C28   A    
C59   H31   S    
C14   H12   S    
C9    C31   A    
C14   C16   A    
