data_str_m3_o5_o29_f0_pcu.sym.33
_audit_creation_date              2013-03-05T16:48:42-0500
_audit_creation_method            fapswitch 2.2
_symmetry_space_group_name_H-M    P1
_symmetry_Int_Tables_number       1
_space_group_crystal_system       triclinic
_cell_length_a                    27.734398
_cell_length_b                    8.954426
_cell_length_c                    8.08512
_cell_angle_alpha                 89.79581
_cell_angle_beta                  90.458277
_cell_angle_gamma                 90.184943
_cell_volume                      2007.81684041

loop_
_atom_site_label
_atom_site_type_symbol
_atom_site_description
_atom_site_fract_x
_atom_site_fract_y
_atom_site_fract_z
_atom_type_partial_charge
O1    O     O_R   0.500000 0.285350 0.636850 -0.622970
O2    O     O_R   0.500000 0.714650 0.363150 -0.614427
O3    O     O_R   0.500000 0.714650 0.636850 -0.613324
O4    O     O_R   0.500000 0.285350 0.363150 -0.613151
C1    C     C_R   0.500187 0.217858 0.500194 0.935209
C2    C     C_R   0.501203 0.782088 0.499874 0.932358
O5    O     O_R   0.428760 0.500000 0.636860 -0.627569
O6    O     O_R   0.571240 0.500000 0.363140 -0.623335
O7    O     O_R   0.571240 0.500000 0.636860 -0.621485
O8    O     O_R   0.428760 0.500000 0.363140 -0.618058
C3    C     C_R   0.405686 0.500761 0.499045 0.872107
C4    C     C_R   0.593902 0.499752 0.500671 0.884266
Zn1   Zn    Zn3+2 0.500000 0.500000 0.682780 0.976501
Zn2   Zn    Zn3+2 0.500000 0.500000 0.317220 0.978624
C5    C     C_R   0.177065 0.515394 0.366441 0.516003
C6    C     C_R   0.821723 0.563963 0.651891 0.512980
C7    C     C_R   0.177609 0.603032 0.644788 0.513391
C8    C     C_R   0.821533 0.483926 0.370737 0.514572
O9    O     O_2   0.201659 0.468872 0.232734 -0.549315
O10   O     O_2   0.796864 0.596910 0.789871 -0.536190
O11   O     O_2   0.202820 0.646011 0.780088 -0.550231
O12   O     O_2   0.796452 0.442119 0.234659 -0.535321
N1    N     N_R   0.201349 0.556810 0.506817 -0.346540
N2    N     N_R   0.797733 0.519325 0.512365 -0.349216
C9    C     C_R   0.279645 0.634153 0.401746 -0.124811
C10   C     C_R   0.722741 0.375984 0.505396 -0.122992
C11   C     C_R   0.275219 0.442813 0.612364 -0.102316
C12   C     C_R   0.720301 0.646410 0.515204 -0.126853
C13   C     C_R   0.329569 0.618816 0.393469 0.101476
C14   C     C_R   0.672465 0.369475 0.500473 0.100164
C15   C     C_R   0.324962 0.419350 0.604260 0.086329
C16   C     C_R   0.670061 0.643596 0.509885 0.102774
C17   C     C_R   0.252725 0.547033 0.509837 0.222873
C18   C     C_R   0.746387 0.513630 0.512666 0.246964
C19   C     C_R   0.101266 0.562089 0.503434 -0.049922
C20   C     C_R   0.897563 0.538610 0.507840 -0.048490
C21   C     C_R   0.126707 0.518562 0.361694 -0.024202
C22   C     C_R   0.872062 0.575067 0.652031 -0.027143
C23   C     C_R   0.127137 0.605781 0.645964 -0.024310
C24   C     C_R   0.871846 0.492344 0.366013 -0.026134
C25   C     C_R   0.101582 0.477171 0.219094 -0.144798
C26   C     C_R   0.897120 0.621846 0.792738 -0.147808
C27   C     C_R   0.102279 0.650255 0.786475 -0.146160
C28   C     C_R   0.896642 0.456061 0.222616 -0.144950
C29   C     C_R   0.352881 0.511338 0.497208 -0.115431
C30   C     C_R   0.646115 0.504232 0.502707 -0.076402
H1    H     H_    0.253208 0.375938 0.694403 0.167160
H2    H     H_    0.739455 0.752038 0.519960 0.145713
H3    H     H_    0.261144 0.714981 0.324107 0.157308
H4    H     H_    0.743774 0.274241 0.502585 0.146115
H5    H     H_    0.120422 0.444384 0.108116 0.195247
H6    H     H_    0.878249 0.651121 0.904835 0.194874
H7    H     H_    0.121385 0.685556 0.897128 0.194138
H8    H     H_    0.877603 0.420297 0.112011 0.197135
C31   C     C_R   0.973664 0.509443 0.359097 0.045749
C32   C     C_R   0.025056 0.602263 0.648379 0.044788
C33   C     C_R   0.973941 0.595117 0.649955 0.045389
C34   C     C_R   0.024754 0.515290 0.358003 0.045547
C35   C     C_R   0.948621 0.548018 0.505550 0.074850
C36   C     C_R   0.050119 0.560339 0.503125 0.074534
C37   C     C_R   0.946467 0.464240 0.218816 -0.231841
C38   C     C_R   0.052316 0.648897 0.787983 -0.230022
C39   C     C_R   0.946980 0.631920 0.792100 -0.230342
C40   C     C_R   0.051687 0.475911 0.216690 -0.231006
H9    H     H_    0.962235 0.433362 0.102939 0.147182
H10   H     H_    0.036464 0.685169 0.901848 0.147086
H11   H     H_    0.963014 0.668384 0.906563 0.146031
H12   H     H_    0.035674 0.441839 0.101292 0.146655
C41   C     C_1   0.500872 0.065118 0.500318 -0.197520
C42   C     C_1   0.501275 0.934881 0.499837 -0.205425
N3    N     N_1   0.500000 0.500000 0.073640 -0.039261
N4    N     N_1   0.500000 0.500000 0.926360 -0.037918
C43   C     C_3   0.346208 0.292675 0.707506 -0.390329
C44   C     C_3   0.320917 0.143700 0.673364 -0.866332
H13   H     H_    0.285211 0.139409 0.734238 0.266718
H14   H     H_    0.315820 0.128036 0.538257 0.263467
H15   H     H_    0.343012 0.050373 0.723355 0.257264
H16   H     H_    0.384886 0.274529 0.682213 0.222363
H17   H     H_    0.342852 0.320126 0.840838 0.224359
C45   C     C_3   0.643197 0.790338 0.510308 -0.437409
C46   C     C_3   0.631222 0.838134 0.686178 -0.820935
H18   H     H_    0.609164 0.751705 0.749065 0.280478
H19   H     H_    0.664911 0.856955 0.758473 0.266745
H20   H     H_    0.610336 0.943642 0.682541 0.241893
H21   H     H_    0.665690 0.878176 0.451583 0.213719
H22   H     H_    0.609591 0.783157 0.435190 0.204306
C47   C     C_3   0.356108 0.722935 0.276376 -0.383243
C48   C     C_3   0.380579 0.849903 0.370206 -0.828987
H23   H     H_    0.403159 0.806705 0.473119 0.249898
H24   H     H_    0.403503 0.915963 0.284776 0.254874
H25   H     H_    0.352799 0.924142 0.422449 0.252343
H26   H     H_    0.382260 0.661955 0.199323 0.235631
H27   H     H_    0.330619 0.774014 0.185724 0.207822
C49   C     C_3   0.647986 0.218412 0.492337 -0.437477
C50   C     C_3   0.636289 0.175620 0.313825 -0.818666
H28   H     H_    0.613593 0.261865 0.253025 0.279830
H29   H     H_    0.670105 0.162480 0.242680 0.268409
H30   H     H_    0.616127 0.068372 0.311643 0.240870
H31   H     H_    0.671857 0.131832 0.547436 0.213725
H32   H     H_    0.614475 0.217676 0.566638 0.203760

loop_
_geom_bond_atom_site_label_1
_geom_bond_atom_site_label_2
_geom_bond_distance
_ccdc_geom_bond_type
C47   C48   1.523702 S    
C31   C35   1.421771 A    
C43   C44   1.530097 S    
C50   H28   1.108940 S    
C20   C35   1.418543 A    
C46   H18   1.109437 S    
C50   H30   1.109849 S    
C11   C17   1.391853 A    
O5    C3    1.280506 A    
C7    N1    1.366015 A    
C44   H14   1.109684 S    
O1    C1    1.261311 A    
C40   H12   1.074869 S    
C19   C21   1.407468 A    
C22   C26   1.393395 A    
C41   C42   1.166315 T    
C10   H4    1.083790 S    
C7    C23   1.400224 A    
C15   C43   1.523267 S    
C34   C36   1.422205 A    
C47   H27   1.112442 S    
C32   C33   1.419052 A    
Zn2   N3    1.969374 S    
O7    Zn1   2.013292 S    
C5    C21   1.397240 A    
C20   C24   1.408412 A    
C45   H22   1.110198 S    
C5    O9    1.350666 S    
C27   H7    1.083721 S    
N1    C17   1.427849 S    
C44   H15   1.110939 S    
C1    C41   1.367882 S    
C43   H16   1.106254 S    
C8    N2    1.365072 A    
C24   C28   1.392660 A    
O3    Zn1   1.956311 S    
C6    O10   1.350137 S    
O3    C2    1.260143 A    
C5    N1    1.366898 A    
C12   C18   1.394071 A    
C6    N2    1.365461 A    
C47   H26   1.106597 S    
C34   C40   1.416309 A    
O2    C2    1.261657 A    
C46   H19   1.110849 S    
C10   C18   1.395482 A    
C33   C39   1.416536 A    
C9    H3    1.084055 S    
C9    C13   1.394019 A    
C39   H11   1.074913 S    
C44   H13   1.109864 S    
C38   H10   1.075104 S    
C11   C15   1.398255 A    
C12   C16   1.393848 A    
C4    C30   1.448502 S    
O8    Zn2   2.013295 S    
C45   C46   1.525835 S    
C23   C27   1.393554 A    
N2    C18   1.424836 S    
C32   C36   1.421691 A    
C13   C29   1.427347 A    
C19   C36   1.418533 A    
C19   C23   1.408550 A    
C45   H21   1.110019 S    
C37   H9    1.074538 S    
C16   C45   1.512641 S    
C48   H25   1.106563 S    
C49   H32   1.110668 S    
O6    C4    1.272905 A    
C9    C17   1.389813 A    
C43   H17   1.111225 S    
C48   H24   1.110362 S    
C10   C14   1.395660 A    
C32   C38   1.416909 A    
C3    C29   1.467838 S    
O1    Zn1   1.958911 S    
C46   H20   1.109979 S    
C11   H1    1.082816 S    
C2    C42   1.368162 S    
C12   H2    1.083957 S    
O6    Zn2   2.007455 S    
C8    O12   1.350367 S    
C16   C30   1.412895 A    
C14   C30   1.412978 A    
O4    C1    1.260209 A    
C50   H29   1.110923 S    
Zn1   N4    1.969374 S    
C28   C37   1.384161 A    
C20   C22   1.408293 A    
N3    N4    1.190776 T    
C14   C49   1.512942 S    
O4    Zn2   1.956312 S    
C49   H31   1.110827 S    
C31   C37   1.416609 A    
C21   C25   1.393097 A    
C49   C50   1.526698 S    
O2    Zn2   1.958910 S    
O7    C4    1.272225 A    
C7    O11   1.350076 S    
C13   C47   1.519092 S    
C33   C35   1.422187 A    
O8    C3    1.276041 A    
C28   H8    1.083725 S    
O5    Zn1   2.007458 S    
C8    C24   1.398026 A    
C48   H23   1.106825 S    
C15   C29   1.424327 A    
C31   C34   1.417837 A    
C6    C22   1.399324 A    
C25   C40   1.383807 A    
C26   C39   1.385527 A    
C25   H5    1.083821 S    
C27   C38   1.385856 A    
C26   H6    1.083616 S    
