data_str_m3_o22_o22_f0_pcu.sym.76
_audit_creation_date              2012-12-10T19:09:33-0500
_audit_creation_method            fapswitch 2.2
_symmetry_space_group_name_H-M    P1
_symmetry_Int_Tables_number       1
_space_group_crystal_system       triclinic
_cell_length_a                    14.752662
_cell_length_b                    15.772837
_cell_length_c                    9.661928
_cell_angle_alpha                 89.817145
_cell_angle_beta                  89.707648
_cell_angle_gamma                 90.04659
_cell_volume                      2248.20541636

loop_
_atom_site_label
_atom_site_type_symbol
_atom_type_description
_atom_site_fract_x
_atom_site_fract_y
_atom_site_fract_z
_atom_type_partial_charge
C1    C     C_R   0.125007 0.382860 0.499586 0.921465
C2    C     C_R   0.125281 0.617098 0.499605 0.852134
C3    C     C_R   0.625722 0.883482 0.500072 0.908195
C4    C     C_R   0.624940 0.117562 0.499530 0.858956
C5    C     C_3   0.908334 0.522557 0.082124 -0.234815
C6    C     C_3   0.908297 0.522391 0.919163 -0.230519
C7    C     C_3   0.408690 0.976085 0.082258 -0.230703
C8    C     C_3   0.408655 0.976215 0.919277 -0.238076
C9    C     C_R   0.880308 0.377059 0.500477 0.875212
C10   C     C_R   0.877560 0.620973 0.500137 0.833516
C11   C     C_R   0.380821 0.876546 0.500473 0.871428
C12   C     C_R   0.377695 0.121196 0.499859 0.833489
C13   C     C_3   0.836969 0.241080 0.608308 -0.461979
C14   C     C_3   0.810797 0.265830 0.357600 -0.419007
C15   C     C_3   0.830874 0.752672 0.384073 -0.441217
C16   C     C_3   0.809583 0.736164 0.641823 -0.489961
C17   C     C_3   0.332983 0.743850 0.616658 -0.472045
C18   C     C_3   0.315583 0.760557 0.360771 -0.432199
C19   C     C_3   0.322835 0.246610 0.371055 -0.449758
C20   C     C_3   0.318040 0.244155 0.631122 -0.492897
C21   C     C_3   0.255576 0.678746 0.630266 -0.090922
C22   C     C_3   0.252408 0.683080 0.363819 -0.078867
C23   C     C_3   0.246200 0.311735 0.357705 -0.069900
C24   C     C_3   0.258504 0.324050 0.621901 -0.088934
C25   C     C_3   0.761120 0.174698 0.620855 -0.100550
C26   C     C_3   0.740155 0.195238 0.353782 -0.070167
C27   C     C_3   0.756603 0.820153 0.370851 -0.077888
C28   C     C_3   0.750418 0.816370 0.635982 -0.076986
C29   C     C_3   0.712442 0.347245 0.534984 0.240215
C30   C     C_3   0.707622 0.652035 0.477427 0.180610
C31   C     C_3   0.212353 0.846998 0.525219 0.237968
C32   C     C_3   0.206689 0.151181 0.493500 0.185032
C33   C     C_3   0.810363 0.309918 0.501194 -0.001131
C34   C     C_3   0.806999 0.688409 0.500603 0.071588
C35   C     C_3   0.310939 0.809171 0.501151 0.008609
C36   C     C_3   0.306893 0.188562 0.499280 0.072690
C37   C     C_3   0.192409 0.685950 0.499402 0.076093
C38   C     C_3   0.190610 0.313484 0.498409 0.076571
C39   C     C_3   0.690929 0.187398 0.499628 0.073847
C40   C     C_3   0.691508 0.813949 0.500515 0.075018
C41   C     C_3   0.139556 0.773940 0.502467 0.144522
C42   C     C_3   0.136553 0.226574 0.515353 0.167629
C43   C     C_3   0.638369 0.273757 0.526142 0.138722
C44   C     C_3   0.636620 0.727182 0.495499 0.169513
C45   C     C_3   0.022799 0.415421 0.081648 -0.228660
C46   C     C_3   0.022926 0.415456 0.918809 -0.238420
C47   C     C_3   0.064836 0.561937 0.917934 -0.228595
C48   C     C_3   0.064881 0.561900 0.080672 -0.236523
C49   C     C_3   0.565912 0.939179 0.081146 -0.232681
C50   C     C_3   0.565804 0.939069 0.918392 -0.234757
C51   C     C_3   0.521632 0.084900 0.917974 -0.228308
C52   C     C_3   0.521410 0.084945 0.080821 -0.233863
H1    H     H_    0.850971 0.268379 0.711987 0.158185
H2    H     H_    0.797846 0.311240 0.271762 0.154168
H3    H     H_    0.839175 0.720889 0.282130 0.173241
H4    H     H_    0.784564 0.693939 0.726184 0.177641
H5    H     H_    0.344235 0.774430 0.718680 0.160842
H6    H     H_    0.297288 0.801845 0.272107 0.156661
H7    H     H_    0.327125 0.209920 0.273065 0.174663
H8    H     H_    0.299194 0.206890 0.724894 0.180684
H9    H     H_    0.901239 0.210431 0.575130 0.205993
H10   H     H_    0.879607 0.239854 0.336026 0.204287
H11   H     H_    0.896978 0.782772 0.408393 0.168841
H12   H     H_    0.879832 0.752895 0.671181 0.173097
H13   H     H_    0.397325 0.711140 0.589735 0.204771
H14   H     H_    0.386514 0.740878 0.338905 0.192669
H15   H     H_    0.388516 0.279543 0.382362 0.171500
H16   H     H_    0.389619 0.262780 0.645180 0.162815
H17   H     H_    0.090916 0.396155 0.118886 0.137086
H18   H     H_    0.091183 0.396395 0.880905 0.140014
H19   H     H_    0.134048 0.546780 0.879332 0.133745
H20   H     H_    0.134086 0.546784 0.118752 0.141203
H21   H     H_    0.634863 0.955473 0.118805 0.128194
H22   H     H_    0.634766 0.955104 0.879069 0.140561
H23   H     H_    0.589625 0.104967 0.879960 0.150593
H24   H     H_    0.589141 0.105316 0.118013 0.143221
H25   H     H_    0.856378 0.477372 0.121975 0.136684
H26   H     H_    0.856575 0.476847 0.881346 0.135648
H27   H     H_    0.887530 0.586014 0.881026 0.147786
H28   H     H_    0.887936 0.586396 0.119411 0.145312
H29   H     H_    0.389268 0.911958 0.120179 0.145286
H30   H     H_    0.389061 0.912201 0.881944 0.140610
H31   H     H_    0.356133 0.020829 0.880527 0.143062
H32   H     H_    0.356044 0.020484 0.121551 0.136566
N1    N     N_3   0.998760 0.500000 0.138610 -0.032860
N2    N     N_3   0.998760 0.500000 0.861390 -0.032058
N3    N     N_3   0.498760 0.000000 0.138610 -0.031770
N4    N     N_3   0.498760 0.000000 0.861390 -0.032098
O1    O     O_R   0.092530 0.407440 0.616040 -0.653090
O2    O     O_R   0.092530 0.407440 0.383960 -0.638024
O3    O     O_R   0.092530 0.592560 0.383960 -0.648470
O4    O     O_R   0.092530 0.592560 0.616040 -0.633580
O5    O     O_R   0.592530 0.907440 0.616040 -0.649000
O6    O     O_R   0.592530 0.907440 0.383960 -0.636305
O7    O     O_R   0.592530 0.092560 0.383960 -0.646628
O8    O     O_R   0.592530 0.092560 0.616040 -0.639998
O9    O     O_R   0.907330 0.407420 0.616040 -0.645111
O10   O     O_R   0.907330 0.407420 0.383960 -0.631318
O11   O     O_R   0.907330 0.592580 0.383960 -0.640830
O12   O     O_R   0.907330 0.592580 0.616040 -0.632054
O13   O     O_R   0.407330 0.907420 0.616040 -0.646782
O14   O     O_R   0.407330 0.907420 0.383960 -0.628074
O15   O     O_R   0.407330 0.092580 0.383960 -0.639356
O16   O     O_R   0.407330 0.092580 0.616040 -0.632425
Zn1   Zn    Zn3+2 0.999890 0.500000 0.654960 0.893266
Zn2   Zn    Zn3+2 0.999890 0.500000 0.345040 0.893371
Zn3   Zn    Zn3+2 0.499890 0.000000 0.654960 0.891641
Zn4   Zn    Zn3+2 0.499890 0.000000 0.345040 0.893890
N5    N     N_3   0.293683 0.593460 0.649501 -0.471490
H33   H     H_    0.243235 0.552633 0.685947 0.205775
H34   H     H_    0.341212 0.595647 0.729437 0.180750
N6    N     N_3   0.305058 0.604511 0.348234 -0.473897
H35   H     H_    0.361758 0.604463 0.412553 0.227719
H36   H     H_    0.265213 0.552698 0.376201 0.216541
N7    N     N_3   0.283113 0.395004 0.317715 -0.464609
H37   H     H_    0.233427 0.428502 0.263825 0.185357
H38   H     H_    0.334693 0.386851 0.244226 0.176090
N8    N     N_3   0.313470 0.401523 0.609027 -0.446514
H39   H     H_    0.368704 0.392064 0.542802 0.221598
H40   H     H_    0.341166 0.414992 0.705993 0.165008
N9    N     N_3   0.799646 0.089031 0.626233 -0.472849
H41   H     H_    0.749981 0.047615 0.663588 0.211011
H42   H     H_    0.850552 0.087723 0.701235 0.186169
N10   N     N_3   0.782863 0.117403 0.302347 -0.483785
H43   H     H_    0.814878 0.083586 0.380564 0.240104
H44   H     H_    0.734589 0.079333 0.254307 0.180819
N11   N     N_3   0.797898 0.904259 0.354675 -0.462720
H45   H     H_    0.748003 0.945981 0.321221 0.182419
H46   H     H_    0.844889 0.902057 0.273263 0.173882
N12   N     N_3   0.805582 0.893735 0.645405 -0.450157
H47   H     H_    0.866129 0.887437 0.589780 0.225086
H48   H     H_    0.824319 0.902136 0.748769 0.158150
H49   H     H_    0.215097 0.693827 0.724573 0.153761
H50   H     H_    0.208061 0.687447 0.271262 0.177012
H51   H     H_    0.202446 0.290650 0.271397 0.139196
H52   H     H_    0.220645 0.329970 0.721163 0.140776
H53   H     H_    0.725875 0.185647 0.721535 0.161460
H54   H     H_    0.689331 0.214194 0.274655 0.168444
H55   H     H_    0.718646 0.807169 0.274306 0.137765
H56   H     H_    0.705741 0.816242 0.728973 0.140557
N13   N     N_3   0.710043 0.384305 0.675694 -0.464184
H57   H     H_    0.721070 0.338328 0.751713 0.181632
H58   H     H_    0.760132 0.429330 0.690230 0.183958
N14   N     N_3   0.690162 0.415172 0.435495 -0.477533
H59   H     H_    0.743623 0.457640 0.429405 0.158737
H60   H     H_    0.684206 0.392037 0.334879 0.185805
N15   N     N_3   0.700535 0.615352 0.336992 -0.507012
H61   H     H_    0.754575 0.575553 0.313799 0.187187
H62   H     H_    0.641974 0.578404 0.328578 0.179366
N16   N     N_3   0.687342 0.586838 0.582462 -0.480612
H63   H     H_    0.741909 0.546803 0.595921 0.179448
H64   H     H_    0.629717 0.551943 0.556068 0.220733
N17   N     N_3   0.202953 0.881546 0.667171 -0.467446
H65   H     H_    0.202549 0.834148 0.742604 0.181105
H66   H     H_    0.256556 0.921121 0.692489 0.179560
N18   N     N_3   0.195363 0.917430 0.428501 -0.477245
H67   H     H_    0.245749 0.962407 0.440984 0.164826
H68   H     H_    0.200935 0.898744 0.325389 0.182849
N19   N     N_3   0.191401 0.111676 0.356735 -0.509715
H69   H     H_    0.247255 0.077447 0.321824 0.184002
H70   H     H_    0.135561 0.070879 0.359154 0.188307
N20   N     N_3   0.192675 0.088381 0.605070 -0.476453
H71   H     H_    0.247082 0.047454 0.613926 0.181512
H72   H     H_    0.133698 0.053106 0.588417 0.215982
N21   N     N_3   0.071798 0.774727 0.615772 -0.487195
H73   H     H_    0.041238 0.834532 0.619884 0.190413
H74   H     H_    0.019166 0.733285 0.592242 0.180302
N22   N     N_3   0.091156 0.786820 0.369953 -0.505915
H75   H     H_    0.051102 0.841406 0.376296 0.188622
H76   H     H_    0.045304 0.737728 0.352473 0.182723
N23   N     N_3   0.060989 0.222664 0.415336 -0.481177
H77   H     H_    0.081791 0.223983 0.312183 0.181101
H78   H     H_    0.024583 0.166441 0.430632 0.188850
N24   N     N_3   0.093564 0.219344 0.654012 -0.473897
H79   H     H_    0.045297 0.266529 0.670833 0.198076
H80   H     H_    0.139445 0.218164 0.735666 0.180521
N25   N     N_3   0.585171 0.269431 0.656517 -0.493513
H81   H     H_    0.553466 0.327836 0.673590 0.190700
H82   H     H_    0.531559 0.227169 0.646322 0.191475
N26   N     N_3   0.574533 0.290119 0.411563 -0.508598
H83   H     H_    0.534614 0.343009 0.435118 0.187540
H84   H     H_    0.529869 0.239414 0.401137 0.177083
N27   N     N_3   0.569867 0.729008 0.381794 -0.469881
H85   H     H_    0.599404 0.731974 0.283689 0.180609
H86   H     H_    0.530022 0.674162 0.386148 0.182140
N28   N     N_3   0.582751 0.714605 0.624087 -0.478914
H87   H     H_    0.537916 0.764578 0.640961 0.192533
H88   H     H_    0.622102 0.706469 0.712478 0.182770
H89   H     H_    0.974334 0.366851 0.121090 0.148124
H90   H     H_    0.974634 0.366810 0.880394 0.140114
H91   H     H_    0.048631 0.626689 0.879327 0.154132
H92   H     H_    0.048644 0.626625 0.118928 0.146575
H93   H     H_    0.550823 0.874202 0.120108 0.149204
H94   H     H_    0.550421 0.874077 0.880657 0.139588
H95   H     H_    0.472640 0.132834 0.879003 0.146281
H96   H     H_    0.472112 0.132716 0.119680 0.144716

loop_
_geom_bond_atom_site_label_1
_geom_bond_atom_site_label_2
_ccdc_geom_bond_type
C16   C28   S    
C28   N12   S    
N23   H77   S    
O13   Zn3   S    
C9    O10   A    
C8    H31   S    
C49   N3    S    
C25   H53   S    
N15   H61   S    
C28   H56   S    
C13   C25   S    
C14   C33   S    
N6    H36   S    
C31   N18   S    
C7    C8    S    
C45   C46   S    
N23   H78   S    
O6    Zn4   S    
O12   Zn1   S    
N21   H73   S    
C22   H50   S    
C37   C41   S    
C8    H30   S    
C32   C36   S    
N18   H67   S    
N15   H62   S    
C51   H23   S    
C12   O16   A    
C19   C36   S    
N5    H34   S    
N19   H69   S    
C5    C6    S    
C26   C39   S    
C30   N16   S    
C28   C40   S    
N7    H37   S    
C14   H10   S    
C41   N22   S    
C29   C33   S    
N24   H79   S    
C29   N14   S    
C16   C34   S    
C4    O8    A    
C27   N11   S    
N18   H68   S    
C18   H6    S    
C7    N3    S    
N3    Zn4   S    
C20   C24   S    
C9    O9    A    
N7    H38   S    
C52   H96   S    
C24   C38   S    
N19   H70   S    
C19   H15   S    
O15   Zn4   S    
C20   H8    S    
C18   C35   S    
C15   C34   S    
C13   H1    S    
C50   N4    S    
C32   N19   S    
O9    Zn1   S    
C11   O13   A    
C24   H52   S    
N22   H76   S    
C7    H32   S    
N21   H74   S    
C29   C43   S    
C9    C33   S    
O3    Zn2   S    
C30   C44   S    
C10   O11   A    
C26   N10   S    
N11   H46   S    
C46   H90   S    
C21   H49   S    
N6    H35   S    
C31   N17   S    
N26   H84   S    
N20   H72   S    
C32   C42   S    
C2    O4    A    
C43   N26   S    
C48   H92   S    
C30   C34   S    
C45   H17   S    
C51   C52   S    
C47   N2    S    
C30   N15   S    
O2    Zn2   S    
C12   O15   A    
N14   H60   S    
C42   N24   S    
N4    Zn3   S    
C10   O12   A    
C39   C43   S    
C19   H7    S    
C22   C37   S    
C3    O5    A    
C27   H55   S    
C32   N20   S    
C8    N4    S    
C15   H3    S    
C19   C23   S    
N27   H85   S    
C16   H4    S    
C13   C33   S    
C17   H13   S    
C4    O7    A    
C15   C27   S    
C47   C48   S    
C4    C39   S    
C27   C40   S    
C29   N13   S    
C42   N23   S    
N8    H39   S    
C21   C37   S    
C10   C34   S    
C14   C26   S    
C5    H28   S    
O14   Zn4   S    
C17   H5    S    
C44   N27   S    
C47   H19   S    
N9    H41   S    
C1    C38   S    
C45   H89   S    
N22   H75   S    
C14   H2    S    
O8    Zn3   S    
C3    C40   S    
C49   C50   S    
C22   N6    S    
C25   N9    S    
C52   H24   S    
C49   H21   S    
N2    Zn1   S    
C12   C36   S    
C48   H20   S    
N28   H88   S    
N11   H45   S    
C1    O2    A    
C46   H18   S    
N26   H83   S    
N10   H44   S    
N20   H71   S    
O11   Zn2   S    
C43   N25   S    
C1    O1    A    
C31   C41   S    
C7    H29   S    
C18   C22   S    
C24   N8    S    
C11   O14   A    
C20   H16   S    
C52   N3    S    
N14   H59   S    
C26   H54   S    
O10   Zn2   S    
C51   N4    S    
C21   N5    S    
C38   C42   S    
C18   H14   S    
C23   C38   S    
C17   C35   S    
N17   H66   S    
C6    N2    S    
C23   H51   S    
C45   N1    S    
N12   H48   S    
N13   H58   S    
N12   H47   S    
N17   H65   S    
C5    N1    S    
C51   H95   S    
N5    H33   S    
O5    Zn3   S    
C50   H94   S    
C2    C37   S    
C50   H22   S    
C6    H27   S    
C49   H93   S    
C31   C35   S    
C11   C35   S    
N24   H80   S    
N25   H82   S    
C3    O6    A    
N16   H64   S    
C47   H91   S    
C2    O3    A    
N8    H40   S    
N9    H42   S    
C6    H26   S    
O7    Zn4   S    
C23   N7    S    
C20   C36   S    
O4    Zn1   S    
C40   C44   S    
C41   N21   S    
N27   H86   S    
N25   H81   S    
O1    Zn1   S    
C13   H9    S    
C15   H11   S    
C48   N1    S    
N10   H43   S    
C16   H12   S    
N28   H87   S    
N13   H57   S    
C5    H25   S    
O16   Zn3   S    
C25   C39   S    
N1    Zn2   S    
C44   N28   S    
N16   H63   S    
C46   N2    S    
C17   C21   S    
