data_str_m2_o10_o29_f0_pcu.sym.79
_audit_creation_date              2012-10-26T20:17:42-0400
_audit_creation_method            fapswitch 2.2
_symmetry_space_group_name_H-M    P1
_symmetry_Int_Tables_number       1
_space_group_crystal_system       triclinic
_cell_length_a                    27.831495
_cell_length_b                    8.675003
_cell_length_c                    7.5001
_cell_angle_alpha                 103.293081
_cell_angle_beta                  94.007221
_cell_angle_gamma                 92.441129
_cell_volume                      1754.77317567

loop_
_atom_site_label
_atom_site_type_symbol
_atom_type_description
_atom_site_fract_x
_atom_site_fract_y
_atom_site_fract_z
_atom_type_partial_charge
C1    C     C_R   0.498547 0.199825 0.453100 0.552101
C2    C     C_R   0.867914 0.369088 0.375764 -0.011821
C3    C     C_R   0.354902 0.499125 0.507496 -0.006250
C4    C     C_R   0.644911 0.501145 0.490118 -0.002122
C5    C     C_R   0.970505 0.365528 0.394064 0.031591
C6    C     C_R   0.027992 0.653168 0.555299 0.031254
C7    C     C_R   0.976600 0.648669 0.565607 0.031828
C8    C     C_R   0.021974 0.369467 0.386187 0.032092
C9    C     C_R   0.948238 0.506988 0.474545 -0.082785
C10   C     C_R   0.050267 0.511044 0.477680 -0.083670
C11   C     C_R   0.940824 0.221459 0.336911 0.279410
C12   C     C_R   0.501455 0.800175 0.546900 0.552285
C13   C     C_R   0.057640 0.797537 0.610543 0.279768
C14   C     C_R   0.890533 0.231043 0.294461 -0.038152
C15   C     C_R   0.108070 0.788822 0.650935 -0.034174
C16   C     C_R   0.407665 0.499591 0.502576 0.553898
C17   C     C_R   0.592287 0.500317 0.497233 0.552957
C18   C     C_R   0.046460 0.239812 0.282199 0.281325
C19   C     C_R   0.952399 0.777348 0.672799 0.276715
C20   C     C_2   0.497860 0.031508 0.427176 -0.145858
C21   C     C_2   0.502146 0.968492 0.572823 -0.145970
C22   C     C_R   0.174544 0.371169 0.424839 0.407445
C23   C     C_R   0.101559 0.512216 0.485080 -0.071818
C24   C     C_R   0.823963 0.637244 0.559446 0.415320
C25   C     C_R   0.181508 0.644616 0.573832 0.426810
C26   C     C_R   0.816862 0.373568 0.376268 0.427407
C27   C     C_R   0.283523 0.540646 0.678465 0.033644
C28   C     C_R   0.724428 0.473185 0.630578 0.035590
C29   C     C_R   0.333732 0.538481 0.675534 -0.149166
C30   C     C_R   0.674409 0.473087 0.637794 -0.141768
C31   C     C_R   0.325248 0.459833 0.342508 -0.133539
C32   C     C_R   0.666040 0.530098 0.335365 -0.140676
C33   C     C_R   0.275414 0.460582 0.344999 -0.043703
C34   C     C_R   0.896939 0.504401 0.471801 -0.070743
C35   C     C_R   0.715931 0.532491 0.328999 -0.056798
C36   C     C_R   0.254016 0.501905 0.511671 0.221220
C37   C     C_R   0.745257 0.504115 0.475803 0.230181
C38   C     C_1   0.754064 0.439198 0.780976 0.237431
C39   C     C_1   0.262896 0.584650 0.852855 0.246636
C40   C     C_1   0.863138 0.107446 0.157110 0.227259
C41   C     C_1   0.135540 0.912099 0.788768 0.227347
C42   C     C_3   0.934117 0.939747 0.302402 -0.081817
C43   C     C_3   0.063435 0.079382 0.649678 -0.080116
C44   C     C_3   0.041495 0.967944 0.138804 -0.037565
C45   C     C_R   0.124259 0.375324 0.403651 -0.015450
C46   C     C_3   0.956797 0.049959 0.811232 -0.037840
C47   C     C_R   0.874369 0.637620 0.565205 -0.014528
C48   C     C_R   0.097026 0.246627 0.294919 -0.134082
C49   C     C_R   0.902008 0.766878 0.670565 -0.134152
C50   C     C_R   0.130524 0.649345 0.574390 -0.014290
Cu1   Cu    Cu3+1 0.505380 0.517380 0.684380 0.968635
Cu2   Cu    Cu3+1 0.494620 0.482620 0.315620 0.969135
H1    H     H_    0.340475 0.427916 0.210910 0.141567
H2    H     H_    0.356208 0.569228 0.804119 0.134708
H3    H     H_    0.493826 0.959183 0.287213 0.137183
H4    H     H_    0.506180 0.040817 0.712786 0.137290
H5    H     H_    0.928316 0.911021 0.150329 0.139695
H6    H     H_    0.900101 0.937255 0.371125 0.122590
H7    H     H_    0.955502 0.843703 0.334310 0.159704
H8    H     H_    0.097607 0.085268 0.582846 0.128361
H9    H     H_    0.068943 0.104740 0.801694 0.142979
H10   H     H_    0.041719 0.175598 0.620211 0.157208
H11   H     H_    0.060421 0.954082 0.268647 0.146831
H12   H     H_    0.644074 0.552777 0.220183 0.132422
H13   H     H_    0.066366 0.948226 0.028348 0.121633
H14   H     H_    0.012759 0.871511 0.100365 0.176987
H15   H     H_    0.932690 0.069288 0.924062 0.122662
H16   H     H_    0.985012 0.148097 0.847300 0.174575
H17   H     H_    0.936878 0.061360 0.682071 0.143754
H18   H     H_    0.462139 0.377970 0.949246 0.240061
H19   H     H_    0.537865 0.622019 0.050756 0.238708
H20   H     H_    0.253154 0.428795 0.216404 0.171653
H21   H     H_    0.731899 0.556921 0.210175 0.153599
H22   H     H_    0.115713 0.151299 0.214887 0.170603
H23   H     H_    0.883904 0.860567 0.755692 0.172004
H24   H     H_    0.658526 0.449145 0.757355 0.132676
N1    N     N_R   0.202234 0.505044 0.508261 -0.392776
N2    N     N_R   0.796545 0.506275 0.466825 -0.394266
N3    N     N_2   0.486510 0.456430 0.038510 -0.259084
N4    N     N_2   0.513490 0.543570 0.961490 -0.259135
N5    N     N_1   0.777999 0.411679 0.900978 -0.264039
N6    N     N_1   0.246130 0.621510 0.992116 -0.275963
N7    N     N_1   0.840877 0.009557 0.047876 -0.231433
N8    N     N_1   0.157744 0.009674 0.898645 -0.245042
O1    O     O_R   0.503500 0.286120 0.619780 -0.505345
O2    O     O_2   0.802313 0.766509 0.646791 -0.464278
O3    O     O_2   0.787530 0.245332 0.294382 -0.447175
O4    O     O_2   0.210175 0.778986 0.629981 -0.446338
O5    O     O_3   0.961439 0.084684 0.369552 -0.532977
O6    O     O_3   0.036833 0.933783 0.577405 -0.533650
O7    O     O_3   0.020856 0.117012 0.153332 -0.543525
O8    O     O_3   0.978400 0.902470 0.796669 -0.544007
O9    O     O_R   0.496500 0.713880 0.380220 -0.505223
O10   O     O_R   0.494410 0.256780 0.308360 -0.494283
O11   O     O_R   0.505590 0.743220 0.691640 -0.494315
O12   O     O_R   0.434810 0.514700 0.655690 -0.507343
O13   O     O_R   0.565190 0.485300 0.344310 -0.506176
O14   O     O_R   0.425720 0.485350 0.344280 -0.501603
O15   O     O_R   0.574280 0.514650 0.655720 -0.501224
O16   O     O_2   0.195693 0.234032 0.361920 -0.470681

loop_
_geom_bond_atom_site_label_1
_geom_bond_atom_site_label_2
_ccdc_geom_bond_type
C23   C45   A    
C13   O6    S    
C27   C29   A    
C44   H14   S    
C42   H6    S    
C47   C49   A    
C46   H16   S    
C26   N2    A    
C25   N1    A    
C18   O7    S    
C35   C37   A    
C5    C11   A    
C36   N1    S    
C11   C14   A    
C46   O8    S    
C29   H2    S    
C22   N1    A    
Cu2   O13   S    
C33   C36   A    
C15   C50   A    
C3    C29   A    
C11   O5    S    
C25   C50   A    
C46   H17   S    
C19   O8    S    
C33   H20   S    
Cu1   N4    S    
C27   C39   S    
C1    O10   A    
C49   H23   S    
C12   O11   A    
Cu2   O10   S    
Cu2   N3    S    
Cu1   O12   S    
C2    C34   A    
C1    O1    A    
C40   N7    T    
Cu1   O1    S    
C44   H13   S    
C20   H3    S    
C42   H5    S    
H19   N4    S    
C44   H11   S    
Cu1   O15   S    
C16   O12   A    
C43   O6    S    
C22   O16   S    
Cu1   Cu2   S    
C32   C35   A    
C48   H22   S    
C15   C41   S    
C26   O3    S    
C23   C50   A    
C41   N8    T    
C12   C21   S    
C25   O4    S    
C8    C18   A    
C5    C9    A    
C5    C8    A    
C30   H24   S    
C19   C49   A    
C28   C38   S    
C31   C33   A    
Cu2   O9    S    
C2    C26   A    
C31   H1    S    
C3    C31   A    
C17   O15   A    
C32   H12   S    
C4    C32   A    
C44   O7    S    
C43   H8    S    
C4    C17   S    
C24   N2    A    
C7    C19   A    
C13   C15   A    
C38   N5    T    
C9    C34   A    
C10   C23   A    
C12   O9    A    
C43   H9    S    
C45   C48   A    
C7    C9    A    
C35   H21   S    
C1    C20   S    
H18   N3    S    
C24   C47   A    
C39   N6    T    
C18   C48   A    
C42   H7    S    
C6    C10   A    
C21   H4    S    
C6    C7    A    
C27   C36   A    
C37   N2    S    
C42   O5    S    
C28   C30   A    
C46   H15   S    
C6    C13   A    
C16   O14   A    
C24   O2    S    
C28   C37   A    
Cu2   O14   S    
C2    C14   A    
C14   C40   S    
N3    N4    D    
C22   C45   A    
C20   C21   D    
C8    C10   A    
C34   C47   A    
C17   O13   A    
C4    C30   A    
C3    C16   S    
C43   H10   S    
Cu1   O11   S    
