data_str_m9_o2_o19_f0_sra.sym.145
_audit_creation_date              2013-03-05T16:02:29-0500
_audit_creation_method            fapswitch 2.2
_symmetry_space_group_name_H-M    P1
_symmetry_Int_Tables_number       1
_space_group_crystal_system       triclinic
_cell_length_a                    16.532712
_cell_length_b                    7.258887
_cell_length_c                    15.261175
_cell_angle_alpha                 90.002109
_cell_angle_beta                  94.613135
_cell_angle_gamma                 90.006674
_cell_volume                      1825.54654305

loop_
_atom_site_label
_atom_site_type_symbol
_atom_site_description
_atom_site_fract_x
_atom_site_fract_y
_atom_site_fract_z
_atom_type_partial_charge
O1    O     O_R   0.663460 0.361760 0.165970 -0.585894
O2    O     O_R   0.336540 0.638240 0.834030 -0.585850
O3    O     O_R   0.836540 0.861760 0.334030 -0.585865
O4    O     O_R   0.163460 0.138240 0.665970 -0.585969
O5    O     O_R   0.827100 0.689870 0.163730 -0.558705
O6    O     O_R   0.172900 0.310130 0.836270 -0.558792
O7    O     O_R   0.672900 0.189870 0.336270 -0.558694
O8    O     O_R   0.327100 0.810130 0.663730 -0.558646
H1    H     H_    0.206654 0.880117 0.504117 0.154267
H2    H     H_    0.793411 0.120333 0.495885 0.154376
H3    H     H_    0.293231 0.381090 0.995818 0.154063
H4    H     H_    0.706796 0.618678 0.004180 0.154002
C1    C     C_R   0.853109 0.522936 0.143424 0.958381
C2    C     C_R   0.146889 0.477063 0.856574 0.958363
C3    C     C_R   0.646894 0.022929 0.356579 0.958492
C4    C     C_R   0.353106 0.977071 0.643421 0.958476
O9    O     O_R   0.663490 0.691370 0.155500 -0.573136
O10   O     O_R   0.336510 0.308630 0.844500 -0.573171
O11   O     O_R   0.836510 0.191370 0.344500 -0.573165
O12   O     O_R   0.163490 0.808630 0.655500 -0.573063
O13   O     O_R   0.671770 0.863320 0.325740 -0.544108
O14   O     O_R   0.328230 0.136680 0.674260 -0.544118
O15   O     O_R   0.828230 0.363320 0.174260 -0.544114
O16   O     O_R   0.171770 0.636680 0.825740 -0.544148
C5    C     C_R   0.634889 0.523636 0.135157 0.937491
C6    C     C_R   0.365110 0.476363 0.864846 0.937516
C7    C     C_R   0.865083 0.023656 0.364885 0.937268
C8    C     C_R   0.134922 0.976346 0.635113 0.937214
O17   O     O_3   0.752910 0.528800 0.305860 -0.270802
O18   O     O_3   0.247090 0.471200 0.694140 -0.270782
O19   O     O_3   0.747090 0.028800 0.194140 -0.270795
O20   O     O_3   0.252910 0.971200 0.805860 -0.270829
V1    V     V_3+5 0.749460 0.803010 0.239640 1.299070
V2    V     V_3+5 0.250540 0.196990 0.760360 1.298991
V3    V     V_3+5 0.750540 0.303010 0.260360 1.299051
V4    V     V_3+5 0.249460 0.696990 0.739640 1.299111
C9    C     C_1   0.468748 0.994745 0.530025 0.206529
C10   C     C_1   0.531250 0.005255 0.469972 0.206484
C11   C     C_1   0.031246 0.494735 0.969968 0.207438
C12   C     C_1   0.968747 0.505263 0.030025 0.207253
C13   C     C_R   0.036171 0.969066 0.320079 0.151344
C14   C     C_R   0.963888 0.031204 0.679902 0.151372
C15   C     C_R   0.463740 0.469415 0.179910 0.151396
C16   C     C_R   0.536259 0.530623 0.820086 0.151575
C17   C     C_R   0.113652 0.908612 0.299867 0.120592
C18   C     C_R   0.886483 0.092114 0.700108 0.121006
C19   C     C_R   0.386184 0.409342 0.200095 0.120118
C20   C     C_R   0.613823 0.590655 0.799903 0.119672
C21   C     C_R   0.174324 0.875346 0.368041 0.469531
C22   C     C_R   0.825817 0.125527 0.631949 0.469324
C23   C     C_R   0.325495 0.376416 0.131896 0.469395
C24   C     C_R   0.674528 0.623425 0.868104 0.469104
C25   C     C_R   0.156967 0.901636 0.454696 -0.260723
C26   C     C_R   0.843100 0.098776 0.545299 -0.260519
C27   C     C_R   0.342925 0.402437 0.045252 -0.260784
C28   C     C_R   0.657093 0.597413 0.954746 -0.260749
C29   C     C_R   0.078984 0.953642 0.477547 0.006016
C30   C     C_R   0.921050 0.046500 0.522440 0.005947
C31   C     C_R   0.420975 0.454020 0.022427 0.006235
C32   C     C_R   0.579032 0.545929 0.977571 0.006255
C33   C     C_R   0.015833 0.979825 0.409466 -0.065000
C34   C     C_R   0.984200 0.020284 0.590516 -0.064988
C35   C     C_R   0.484120 0.480068 0.090530 -0.065149
C36   C     C_R   0.515883 0.519927 0.909467 -0.065159
C37   C     C_R   0.064549 0.981492 0.567249 -0.145137
C38   C     C_R   0.935469 0.018523 0.432740 -0.145256
C39   C     C_R   0.435474 0.481572 0.932721 -0.145502
C40   C     C_R   0.564527 0.518419 0.067278 -0.145467
C41   C     C_1   0.415816 0.986161 0.581280 -0.117190
C42   C     C_1   0.584182 0.013839 0.418718 -0.117267
C43   C     C_1   0.084177 0.486142 0.918712 -0.117298
C44   C     C_1   0.915818 0.513857 0.081282 -0.117356
N1    N     N_R   0.130795 0.884981 0.209804 0.254461
O21   O     O_R   0.124762 0.023284 0.155462 -0.283397
O22   O     O_R   0.150632 0.723426 0.181430 -0.377430
N2    N     N_R   0.869394 0.115856 0.790161 0.254365
O23   O     O_R   0.874642 0.977152 0.844300 -0.283540
O24   O     O_R   0.850553 0.277921 0.818769 -0.377580
N3    N     N_R   0.369012 0.385518 0.290147 0.254482
O25   O     O_R   0.375579 0.523388 0.344720 -0.283450
O26   O     O_R   0.348450 0.224251 0.318243 -0.376734
N4    N     N_R   0.630978 0.614685 0.709855 0.254354
O27   O     O_R   0.624241 0.477040 0.655164 -0.283726
O28   O     O_R   0.651662 0.775960 0.681875 -0.376076
O29   O     O_3   0.747382 0.175472 0.646603 -0.661839
H5    H     H_    0.739159 0.165744 0.709888 0.371360
O30   O     O_3   0.252834 0.826003 0.353406 -0.661619
H6    H     H_    0.261247 0.837441 0.290230 0.371724
O31   O     O_3   0.753131 0.672062 0.853499 -0.661019
H7    H     H_    0.761672 0.659359 0.790405 0.372149
O32   O     O_3   0.246909 0.327616 0.146500 -0.661321
H8    H     H_    0.238374 0.340186 0.209601 0.372051
N5    N     N_R   0.982921 0.040617 0.249714 0.244772
O33   O     O_R   0.957599 0.934692 0.184475 -0.347386
O34   O     O_R   0.976836 0.218250 0.240641 -0.383797
N6    N     N_R   0.017048 0.959325 0.750270 0.244719
O35   O     O_R   0.042337 0.064961 0.815633 -0.347199
O36   O     O_R   0.023106 0.781651 0.759175 -0.383782
N7    N     N_R   0.517074 0.540545 0.250307 0.244748
O37   O     O_R   0.542390 0.434259 0.315400 -0.347489
O38   O     O_R   0.523215 0.718124 0.259600 -0.383818
N8    N     N_R   0.482909 0.459577 0.749683 0.244761
O39   O     O_R   0.457579 0.565941 0.684625 -0.347471
O40   O     O_R   0.476768 0.282009 0.740340 -0.383799

loop_
_geom_bond_atom_site_label_1
_geom_bond_atom_site_label_2
_geom_bond_distance
_ccdc_geom_bond_type
C30   C34   1.425201 A    
C16   C20   1.411592 A    
O30   H6    0.988631 S    
C10   C42   1.221327 T    
N5    O33   1.300211 A    
C9    C41   1.221326 T    
C2    C43   1.461765 S    
C21   O30   1.381909 S    
O10   C6    1.333660 A    
C13   C33   1.433129 A    
C18   N2    1.435529 S    
C15   C35   1.433196 A    
O29   H5    0.988627 S    
C16   C36   1.433212 A    
C22   C26   1.388833 A    
C14   N6    1.430478 S    
C6    C39   1.494620 S    
N2    O24   1.301348 A    
C27   C31   1.413783 A    
O8    V4    1.975649 S    
O13   V1    1.959474 S    
O3    V1    1.998946 S    
C1    O15   1.328212 A    
C17   N1    1.435813 S    
N1    O21   1.300912 A    
C2    O16   1.328212 A    
C22   O29   1.381931 S    
C23   O32   1.381890 S    
C33   C38   1.430494 A    
C30   C38   1.422860 A    
C13   N5    1.430393 S    
N6    O36   1.299896 A    
C4    O14   1.328216 A    
O19   V1    1.779239 S    
C19   N3    1.435955 S    
O11   C7    1.333630 A    
C14   C34   1.433043 A    
O5    C1    1.330714 A    
C31   C39   1.422838 A    
O7    C3    1.330691 A    
N5    O34   1.299884 A    
C11   C43   1.221331 T    
O1    C5    1.337690 A    
N1    O22   1.301234 A    
C24   O31   1.381871 S    
C5    C40   1.494618 S    
O9    V1    2.007933 S    
O4    C8    1.337714 A    
O14   V2    1.959474 S    
O4    V2    1.998945 S    
C36   C39   1.430549 A    
N2    O23   1.300942 A    
C11   C12   1.437320 S    
N3    O26   1.301212 A    
C16   N8    1.430301 S    
C19   C23   1.406788 A    
O12   C8    1.333620 A    
O6    V2    1.975740 S    
O5    V1    1.975740 S    
O20   V2    1.779240 S    
C9    C10   1.437309 S    
O6    C2    1.330714 A    
N7    O37   1.300196 A    
C17   C21   1.406816 A    
N6    O35   1.300228 A    
O2    C6    1.337700 A    
O16   V4    1.959428 S    
N8    O40   1.299863 A    
O10   V2    2.007934 S    
H4    C28   1.080940 S    
N7    O38   1.299865 A    
N4    O28   1.301229 A    
C14   C18   1.411325 A    
H1    C25   1.080941 S    
O32   H8    0.988656 S    
H3    C27   1.080937 S    
O1    V3    1.999040 S    
C26   C30   1.413822 A    
O2    V4    1.999040 S    
C3    C42   1.461758 S    
O17   V3    1.779185 S    
C35   C40   1.430528 A    
C25   C29   1.413768 A    
C12   C44   1.221332 T    
C34   C37   1.430363 A    
O7    V3    1.975652 S    
C4    C41   1.461758 S    
C29   C37   1.422820 A    
C29   C33   1.425221 A    
C1    C44   1.461766 S    
C18   C22   1.406773 A    
C31   C35   1.425206 A    
O18   V4    1.779183 S    
C32   C36   1.425217 A    
O9    C5    1.333666 A    
O3    C7    1.337745 A    
C8    C37   1.494609 S    
C7    C38   1.494671 S    
O11   V3    2.008105 S    
C15   N7    1.430312 S    
C3    O13   1.328217 A    
C21   C25   1.388769 A    
C20   N4    1.435994 S    
C23   C27   1.388700 A    
N8    O39   1.300188 A    
H2    C26   1.080934 S    
O15   V3    1.959429 S    
N3    O25   1.300898 A    
O12   V4    2.008105 S    
C28   C32   1.413772 A    
C20   C24   1.406787 A    
C32   C40   1.422831 A    
O8    C4    1.330693 A    
N4    O27   1.300894 A    
C13   C17   1.411490 A    
O31   H7    0.988657 S    
C15   C19   1.411572 A    
C24   C28   1.388686 A    
