data_str_m2_o18_o24_f0_pcu.sym.5
_audit_creation_date              2012-10-26T20:58:21-0400
_audit_creation_method            fapswitch 2.2
_symmetry_space_group_name_H-M    P1
_symmetry_Int_Tables_number       1
_space_group_crystal_system       triclinic
_cell_length_a                    10.632677
_cell_length_b                    14.746685
_cell_length_c                    14.868271
_cell_angle_alpha                 64.571157
_cell_angle_beta                  106.243416
_cell_angle_gamma                 102.151489
_cell_volume                      2010.38019363

loop_
_atom_site_label
_atom_site_type_symbol
_atom_type_description
_atom_site_fract_x
_atom_site_fract_y
_atom_site_fract_z
_atom_type_partial_charge
C1    C     C_R   0.477097 0.119781 0.312110 0.535388
C2    C     C_R   0.458205 0.537397 0.948655 0.027698
C3    C     C_R   0.394232 0.496945 0.874463 -0.161822
C4    C     C_R   0.567079 0.508382 0.125564 -0.155383
C5    C     C_R   0.373946 0.393604 0.899523 -0.155180
C6    C     C_R   0.599380 0.611097 0.099651 -0.140770
C7    C     C_R   0.695240 0.256451 0.695759 -0.167230
C8    C     C_R   0.330288 0.731532 0.309777 -0.163047
C9    C     C_R   0.668472 0.186592 0.652496 0.036130
C10   C     C_R   0.354415 0.810331 0.341527 0.041533
C11   C     C_R   0.524552 0.290716 0.509312 0.025177
C12   C     C_R   0.517927 0.880860 0.687471 0.539685
C13   C     C_R   0.457435 0.704671 0.506626 0.021837
C14   C     C_R   0.540664 0.362351 0.553514 -0.014891
C15   C     C_R   0.448948 0.623738 0.476976 -0.020730
C16   C     C_R   0.258993 0.003411 0.494554 0.539101
C17   C     C_R   0.741692 0.995744 0.507018 0.543348
C18   C     C_R   0.634406 0.346881 0.645603 0.018644
C19   C     C_R   0.368659 0.635483 0.378955 0.018573
C20   C     C_R   0.469429 0.449030 0.507246 -0.006339
C21   C     C_R   0.513219 0.531923 0.539103 -0.010079
C22   C     C_R   0.619821 0.518075 0.628384 -0.015877
C23   C     C_R   0.484608 0.292721 0.179387 -0.151041
C24   C     C_R   0.353873 0.454942 0.429573 -0.005674
C25   C     C_R   0.670052 0.422136 0.684970 -0.002298
C26   C     C_R   0.320803 0.550052 0.355001 0.004307
C27   C     C_3   0.999412 0.991265 0.414648 0.000056
C28   C     C_3   0.003628 0.007078 0.589377 -0.005055
C29   C     C_3   0.944303 0.075713 0.422147 -0.018992
C30   C     C_3   0.059013 0.922234 0.581632 -0.010490
C31   C     C_3   0.880012 0.995945 0.508719 0.012006
C32   C     C_3   0.122179 0.002294 0.494962 0.017496
C33   C     C_3   0.934186 0.910432 0.501257 -0.126481
C34   C     C_R   0.466833 0.715048 0.821339 -0.153037
C35   C     C_3   0.068375 0.087228 0.502089 -0.137240
C36   C     C_R   0.459256 0.188697 0.203914 -0.011922
C37   C     C_R   0.524406 0.814810 0.795369 -0.008194
C38   C     C_R   0.385601 0.221845 0.024419 -0.149237
C39   C     C_R   0.610858 0.781367 0.973747 -0.139766
C40   C     C_R   0.412867 0.153373 0.125721 -0.150878
C41   C     C_R   0.592777 0.848685 0.872204 -0.138976
C42   C     C_3   0.868635 0.163319 0.339162 -0.242244
C43   C     C_3   0.949075 0.238450 0.262025 -0.318235
C44   C     C_3   0.888585 0.338429 0.203846 -0.451380
C45   C     C_R   0.464202 0.363199 0.077915 0.024661
C46   C     C_3   0.136238 0.834192 0.662390 -0.249874
C47   C     C_3   0.048019 0.747882 0.724027 -0.320090
C48   C     C_3   0.126907 0.661362 0.803065 -0.459383
C49   C     C_3   0.696314 0.603092 0.660624 -0.257027
C50   C     C_3   0.660549 0.599271 0.756057 -0.280454
C51   C     C_3   0.755483 0.669939 0.800133 -0.446929
C52   C     C_3   0.250562 0.363882 0.438930 -0.249855
C53   C     C_3   0.124651 0.376979 0.462221 -0.286604
C54   C     C_3   0.150078 0.382081 0.566439 -0.431098
C55   C     C_R   0.001642 0.982705 0.317638 0.046421
C56   C     C_R   0.492981 0.643323 0.922529 0.022799
C57   C     C_R   0.921813 0.905630 0.290213 -0.089361
C58   C     C_R   0.923257 0.898841 0.199555 -0.115386
C59   C     C_R   0.003266 0.969317 0.135141 -0.116037
C60   C     C_R   0.082762 0.046210 0.161700 -0.126975
C61   C     C_R   0.083447 0.052216 0.253175 -0.086258
C62   C     C_R   0.011669 0.033379 0.678967 0.037851
C63   C     C_R   0.070845 0.973536 0.779350 -0.096283
C64   C     C_R   0.087880 0.005106 0.858670 -0.119240
C65   C     C_R   0.049409 0.097944 0.838504 -0.117144
C66   C     C_R   0.993025 0.158957 0.739058 -0.138277
C67   C     C_R   0.408466 0.326222 0.000223 0.046317
C68   C     C_R   0.972590 0.126469 0.659984 -0.091302
C69   C     C_R   0.769306 0.400706 0.783250 0.025045
C70   C     C_R   0.904698 0.423476 0.783862 -0.115389
C71   C     C_R   0.997443 0.392383 0.876003 -0.131592
C72   C     C_R   0.956065 0.336716 0.967775 -0.112155
C73   C     C_R   0.821660 0.311675 0.967514 -0.116681
C74   C     C_R   0.728571 0.343124 0.875737 -0.108831
C75   C     C_R   0.229529 0.557055 0.256057 0.028460
C76   C     C_R   0.265861 0.524299 0.191873 -0.094054
C77   C     C_R   0.183504 0.533071 0.097549 -0.116065
C78   C     C_R   0.565736 0.678735 0.999138 0.047632
C79   C     C_R   0.063887 0.574042 0.066927 -0.115489
C80   C     C_R   0.025428 0.604883 0.130992 -0.122917
C81   C     C_R   0.107444 0.596158 0.225329 -0.119689
C82   C     C_R   0.495415 0.469068 0.051992 0.025439
Cu1   Cu    Cu3+1 0.465750 0.918270 0.475680 0.914551
Cu2   Cu    Cu3+1 0.534250 0.081730 0.524320 0.906879
H1    H     H_    0.494427 0.696724 0.583035 0.134483
H2    H     H_    0.656110 0.637473 0.158397 0.100887
H3    H     H_    0.407355 0.694827 0.759922 0.109163
H4    H     H_    0.515427 0.317292 0.241302 0.119594
H5    H     H_    0.635755 0.926261 0.853763 0.126859
H6    H     H_    0.393007 0.073215 0.142918 0.120943
H7    H     H_    0.344856 0.193218 0.965019 0.106409
H8    H     H_    0.666404 0.808560 0.032105 0.100721
H9    H     H_    0.361397 0.542734 0.795083 0.089942
H10   H     H_    0.604840 0.461777 0.203948 0.097470
H11   H     H_    0.782162 0.325783 0.170944 0.160375
H12   H     H_    0.461240 0.301593 0.435382 0.108412
H13   H     H_    0.900465 0.377802 0.255273 0.154939
H14   H     H_    0.938973 0.387059 0.140728 0.165837
H15   H     H_    0.052119 0.252598 0.300849 0.158221
H16   H     H_    0.949910 0.207001 0.206632 0.162453
H17   H     H_    0.777388 0.132494 0.298505 0.150783
H18   H     H_    0.839417 0.203157 0.377723 0.162049
H19   H     H_    0.174915 0.632359 0.764835 0.146182
H20   H     H_    0.202378 0.686931 0.858414 0.170058
H21   H     H_    0.060449 0.598522 0.845185 0.145498
H22   H     H_    0.999053 0.775285 0.762712 0.159800
H23   H     H_    0.323819 0.883442 0.287979 0.132525
H24   H     H_    0.971502 0.719356 0.671747 0.156890
H25   H     H_    0.181040 0.803969 0.623200 0.173724
H26   H     H_    0.217817 0.862077 0.712729 0.143010
H27   H     H_    0.853627 0.642266 0.829682 0.144782
H28   H     H_    0.759597 0.748371 0.741469 0.160147
H29   H     H_    0.724864 0.668961 0.865812 0.163094
H30   H     H_    0.559790 0.618287 0.738587 0.151253
H31   H     H_    0.661880 0.522705 0.816958 0.184280
H32   H     H_    0.802602 0.595438 0.678268 0.140615
H33   H     H_    0.691997 0.678587 0.597610 0.129712
H34   H     H_    0.712324 0.116228 0.693344 0.142330
H35   H     H_    0.194276 0.313819 0.627406 0.160789
H36   H     H_    0.217318 0.450307 0.568066 0.164233
H37   H     H_    0.055563 0.386281 0.581797 0.126816
H38   H     H_    0.080243 0.445447 0.403101 0.166427
H39   H     H_    0.050255 0.312111 0.460864 0.136382
H40   H     H_    0.225524 0.350686 0.367652 0.116774
H41   H     H_    0.286793 0.294024 0.501999 0.146021
H42   H     H_    0.857589 0.851060 0.338071 0.099775
H43   H     H_    0.861588 0.839299 0.178900 0.094609
H44   H     H_    0.003286 0.964479 0.064566 0.103677
H45   H     H_    0.763877 0.238047 0.768611 0.116083
H46   H     H_    0.143188 0.101462 0.111034 0.110310
H47   H     H_    0.146604 0.111721 0.273117 0.094191
H48   H     H_    0.107731 0.904023 0.797512 0.107488
H49   H     H_    0.133620 0.958402 0.935578 0.100736
H50   H     H_    0.064842 0.123200 0.899599 0.105994
H51   H     H_    0.966281 0.232018 0.723011 0.106549
H52   H     H_    0.929861 0.175557 0.583260 0.122030
H53   H     H_    0.938133 0.463772 0.712977 0.096622
H54   H     H_    0.101419 0.410604 0.876141 0.118122
H55   H     H_    0.028256 0.312005 0.038828 0.108541
H56   H     H_    0.280414 0.746686 0.231477 0.109856
H57   H     H_    0.789273 0.266523 0.038090 0.118764
H58   H     H_    0.624813 0.321435 0.876268 0.115027
H59   H     H_    0.358241 0.492447 0.214930 0.108303
H60   H     H_    0.212192 0.507892 0.048336 0.118615
H61   H     H_    0.999437 0.579833 0.994650 0.108448
H62   H     H_    0.931855 0.635282 0.107654 0.110806
H63   H     H_    0.076375 0.620510 0.274157 0.100981
H64   H     H_    0.876019 0.837892 0.503374 0.101637
H65   H     H_    0.127576 0.158539 0.501628 0.112508
H66   H     H_    0.328618 0.366238 0.839578 0.105502
N1    N     N_R   0.585750 0.204560 0.560800 -0.235055
N2    N     N_R   0.414250 0.795440 0.439200 -0.234361
O1    O     O_R   0.454850 0.022100 0.338110 -0.506779
O2    O     O_R   0.545150 0.977900 0.661890 -0.506860
O3    O     O_R   0.512700 0.160150 0.379180 -0.514097
O4    O     O_R   0.487300 0.839850 0.620820 -0.521174
O5    O     O_R   0.287930 0.931000 0.479440 -0.499116
O6    O     O_R   0.712070 0.069000 0.520560 -0.512118
O7    O     O_R   0.345780 0.069050 0.520520 -0.502938
O8    O     O_R   0.654220 0.930950 0.479480 -0.497664

loop_
_geom_bond_atom_site_label_1
_geom_bond_atom_site_label_2
_ccdc_geom_bond_type
C11   H12   S    
C24   C52   S    
C66   C68   A    
C75   C76   A    
C34   C56   A    
C51   H28   S    
C23   C45   A    
C54   H36   S    
C29   C42   S    
C27   C29   S    
C34   C37   A    
C73   C74   A    
C14   C18   A    
C41   H5    S    
C45   C82   A    
C5    C67   A    
C39   C41   A    
C73   H57   S    
C53   C54   S    
C27   C33   S    
C15   C19   A    
C51   H29   S    
C58   H43   S    
Cu1   Cu2   S    
C12   O2    A    
C38   C40   A    
C43   H15   S    
C53   H38   S    
Cu2   O3    S    
C27   C55   S    
C6    C78   A    
C48   H20   S    
C56   C78   A    
C19   C26   A    
C50   H31   S    
C12   C37   S    
C1    O3    A    
C17   O8    A    
C10   N2    A    
C46   C47   S    
C44   H14   S    
C72   H55   S    
C49   H33   S    
Cu1   O8    S    
C20   C24   A    
C28   C35   S    
C81   H63   S    
C22   C25   A    
C45   C67   A    
C31   C33   S    
C70   C71   A    
C65   H50   S    
C72   C73   A    
C47   H22   S    
C80   H62   S    
C74   H58   S    
C59   C60   A    
C48   H21   S    
C54   H35   S    
C16   O7    A    
C9    H34   S    
C10   H23   S    
C18   C25   A    
Cu2   O2    S    
C12   O4    A    
C42   H18   S    
Cu2   O7    S    
C50   C51   S    
C71   H54   S    
C77   C79   A    
C8    C19   A    
C32   C35   S    
C14   C20   A    
C36   C40   A    
C27   C32   S    
C76   C77   A    
C4    C6    A    
C53   H39   S    
C60   H46   S    
C57   H42   S    
Cu2   O6    S    
C75   C81   A    
Cu1   O4    S    
C59   H44   S    
C48   H19   S    
C38   H7    S    
C5    H66   S    
C63   C64   A    
C60   C61   A    
C50   H30   S    
C43   C44   S    
C76   H59   S    
C62   C63   A    
C33   H64   S    
C44   H13   S    
C47   H24   S    
C47   C48   S    
Cu1   O5    S    
C68   H52   S    
C7    C18   A    
C26   C75   S    
C69   C74   A    
C3    H9    S    
C63   H48   S    
C43   H16   S    
C1    O1    A    
C17   O6    A    
C22   C49   S    
C4    H10   S    
C11   N1    A    
C54   H37   S    
C49   C50   S    
C23   H4    S    
C13   C15   A    
C17   C31   S    
C79   C80   A    
C2    C82   A    
C25   C69   S    
C42   C43   S    
C38   C67   A    
C42   H17   S    
C39   H8    S    
C52   C53   S    
Cu1   N2    S    
C7    C9    A    
C64   H49   S    
C9    N1    A    
C51   H27   S    
C30   C33   S    
C16   O5    A    
C79   H61   S    
C30   C46   S    
C28   C31   S    
C13   N2    A    
C24   C26   A    
C80   C81   A    
C3    C5    A    
C52   H41   S    
Cu1   O1    S    
C16   C32   S    
C29   C35   S    
C6    H2    S    
C62   C68   A    
C8    H56   S    
C64   C65   A    
C55   C57   A    
C2    C3    A    
C58   C59   A    
C77   H60   S    
C71   C72   A    
C29   C31   S    
C44   H11   S    
C2    C56   A    
C30   C32   S    
C52   H40   S    
C57   C58   A    
C55   C61   A    
C28   C30   S    
C11   C14   A    
C34   H3    S    
C65   C66   A    
C37   C41   A    
C69   C70   A    
C7    H45   S    
C61   H47   S    
C66   H51   S    
Cu2   N1    S    
C15   C21   A    
C49   H32   S    
C4    C82   A    
C20   C21   A    
C70   H53   S    
C8    C10   A    
C23   C36   A    
C46   H25   S    
C13   H1    S    
C46   H26   S    
C35   H65   S    
C40   H6    S    
C39   C78   A    
C21   C22   A    
C1    C36   S    
C28   C62   S    
