data_str_m3_o40_o40_f0_fof.sym.73
_audit_creation_date              2013-03-05T15:40:52-0500
_audit_creation_method            fapswitch 2.2
_symmetry_space_group_name_H-M    P1
_symmetry_Int_Tables_number       1
_space_group_crystal_system       triclinic
_cell_length_a                    16.757123
_cell_length_b                    16.896776
_cell_length_c                    16.896903
_cell_angle_alpha                 66.474453
_cell_angle_beta                  66.037941
_cell_angle_gamma                 66.038467
_cell_volume                      3834.74152742

loop_
_atom_site_label
_atom_site_type_symbol
_atom_site_description
_atom_site_fract_x
_atom_site_fract_y
_atom_site_fract_z
_atom_type_partial_charge
O1    O     O_R   0.982940 0.138950 0.510160 -0.644065
O2    O     O_R   0.017060 0.861050 0.489840 -0.638283
O3    O     O_R   0.138950 0.510160 0.982940 -0.645562
O4    O     O_R   0.861050 0.489840 0.017060 -0.634508
O5    O     O_R   0.510160 0.982940 0.138950 -0.660397
O6    O     O_R   0.489840 0.017060 0.861050 -0.657152
O7    O     O_R   0.489840 0.861050 0.017060 -0.660511
O8    O     O_R   0.510160 0.138950 0.982940 -0.657011
O9    O     O_R   0.017060 0.489840 0.861050 -0.644053
O10   O     O_R   0.982940 0.510160 0.138950 -0.638346
O11   O     O_R   0.861050 0.017060 0.489840 -0.645574
O12   O     O_R   0.138950 0.982940 0.510160 -0.634280
O13   O     O_R   0.867700 0.025880 0.612340 -0.565409
O14   O     O_R   0.132300 0.974120 0.387660 -0.568878
O15   O     O_R   0.025880 0.612340 0.867700 -0.572497
O16   O     O_R   0.974120 0.387660 0.132300 -0.570581
O17   O     O_R   0.612340 0.867700 0.025880 -0.568161
O18   O     O_R   0.387660 0.132300 0.974120 -0.581178
O19   O     O_R   0.387660 0.974120 0.132300 -0.568114
O20   O     O_R   0.612340 0.025880 0.867700 -0.581236
O21   O     O_R   0.132300 0.387660 0.974120 -0.565413
O22   O     O_R   0.867700 0.612340 0.025880 -0.568883
O23   O     O_R   0.974120 0.132300 0.387660 -0.572481
O24   O     O_R   0.025880 0.867700 0.612340 -0.570461
C1    C     C_R   0.470148 0.920422 0.693917 -0.303345
C2    C     C_R   0.589749 0.977473 0.326469 -0.335646
C3    C     C_R   0.042972 0.663767 0.405302 -0.204385
C4    C     C_R   0.958243 0.335109 0.594165 -0.310273
C5    C     C_R   0.650834 0.397238 0.073192 -0.207875
C6    C     C_R   0.349001 0.595643 0.937240 -0.306343
C7    C     C_R   0.349143 0.926825 0.602760 -0.208167
C8    C     C_R   0.651018 0.062718 0.404365 -0.306295
C9    C     C_R   0.529809 0.306090 0.079600 -0.303488
C10   C     C_R   0.410271 0.673542 0.022481 -0.335627
C11   C     C_R   0.957038 0.594697 0.336234 -0.204312
C12   C     C_R   0.041758 0.405834 0.664892 -0.310300
C13   C     C_R   0.963681 0.179485 0.437190 0.954871
C14   C     C_R   0.036885 0.820568 0.562404 0.845147
C15   C     C_R   0.179623 0.438435 0.960727 0.980178
C16   C     C_R   0.820271 0.561642 0.038806 0.855416
C17   C     C_R   0.437306 0.963217 0.179471 1.002359
C18   C     C_R   0.569303 0.021846 0.823245 0.943165
C19   C     C_R   0.562697 0.820529 0.036775 1.002147
C20   C     C_R   0.430705 0.176762 0.978130 0.943505
C21   C     C_R   0.036321 0.562809 0.820515 0.954936
C22   C     C_R   0.963120 0.437593 0.179432 0.845181
C23   C     C_R   0.820378 0.039267 0.561567 0.980116
C24   C     C_R   0.179728 0.961189 0.438360 0.855380
Zn1   Zn    Zn3+2 0.004880 0.004880 0.583590 1.084750
Zn2   Zn    Zn3+2 0.995120 0.995120 0.416410 1.088841
Zn3   Zn    Zn3+2 0.004880 0.583590 0.004880 1.088712
Zn4   Zn    Zn3+2 0.995120 0.416410 0.995120 1.084395
Zn5   Zn    Zn3+2 0.583590 0.004880 0.004880 1.048801
Zn6   Zn    Zn3+2 0.416410 0.995120 0.995120 1.048747
H1    H     H_    0.427695 0.875821 0.733438 0.133830
H2    H     H_    0.660119 0.978361 0.294389 0.148617
H3    H     H_    0.052782 0.689639 0.333320 0.186496
H4    H     H_    0.948255 0.308487 0.666217 0.142058
H5    H     H_    0.677739 0.324986 0.085061 0.183747
H6    H     H_    0.332662 0.668500 0.912878 0.143022
H7    H     H_    0.322229 0.914953 0.675012 0.183637
H8    H     H_    0.667366 0.087071 0.331508 0.143070
H9    H     H_    0.572255 0.266567 0.124206 0.133892
H10   H     H_    0.339905 0.705629 0.021580 0.148570
H11   H     H_    0.947228 0.666680 0.310363 0.186535
H12   H     H_    0.051737 0.333784 0.691517 0.142061
C25   C     C_R   0.523013 0.927480 0.735723 0.008616
C26   C     C_R   0.553257 0.942738 0.291003 -0.026279
C27   C     C_R   0.071648 0.702058 0.445180 -0.000484
C28   C     C_R   0.929195 0.297776 0.553829 -0.004091
C29   C     C_R   0.697083 0.441299 0.087324 0.000265
C30   C     C_R   0.308954 0.552641 0.914084 0.023540
C31   C     C_R   0.302896 0.912704 0.558694 0.000345
C32   C     C_R   0.691057 0.085883 0.447367 0.023374
C33   C     C_R   0.476934 0.264290 0.072544 0.008610
C34   C     C_R   0.446753 0.709003 0.057231 -0.026250
C35   C     C_R   0.928357 0.554820 0.297945 -0.000483
C36   C     C_R   0.070810 0.446168 0.702225 -0.004096
C37   C     C_R   0.554601 0.997942 0.549033 0.031957
C38   C     C_R   0.462618 0.966169 0.461591 0.024960
C39   C     C_R   0.023758 0.541809 0.541887 0.029561
C40   C     C_R   0.976256 0.458110 0.458188 0.029554
C41   C     C_R   0.537387 0.538412 0.033812 0.024962
C42   C     C_R   0.445398 0.450974 0.002040 0.031969
C43   C     C_R   0.583905 0.017090 0.454276 0.065061
C44   C     C_R   0.429723 0.952492 0.555795 0.012735
C45   C     C_R   0.013835 0.454070 0.586291 0.070393
C46   C     C_R   0.985808 0.545858 0.414193 0.014087
C47   C     C_R   0.455871 0.587767 0.008819 0.073135
C48   C     C_R   0.518076 0.399498 0.040862 0.065285
C49   C     C_R   0.544143 0.991147 0.412240 0.073072
C50   C     C_R   0.481908 0.959138 0.600505 0.065275
C51   C     C_R   0.416108 0.545731 0.982877 0.065056
C52   C     C_R   0.570266 0.444206 0.047506 0.012617
C53   C     C_R   0.986172 0.413708 0.545929 0.070386
C54   C     C_R   0.014207 0.585804 0.454139 0.014113
C55   C     C_R   0.577470 0.987561 0.687683 0.054256
C56   C     C_R   0.459040 0.947467 0.326350 0.082262
C57   C     C_R   0.056814 0.672038 0.540190 -0.018691
C58   C     C_R   0.943965 0.328090 0.458893 0.056440
C59   C     C_R   0.669054 0.537250 0.065840 -0.017036
C60   C     C_R   0.328197 0.457461 0.945345 0.044257
C61   C     C_R   0.330946 0.934156 0.462747 -0.016998
C62   C     C_R   0.671807 0.054630 0.542547 0.044285
C63   C     C_R   0.422519 0.312325 0.012426 0.054296
C64   C     C_R   0.540967 0.673652 0.052513 0.082411
C65   C     C_R   0.943203 0.459807 0.327957 -0.018698
C66   C     C_R   0.056048 0.541103 0.671908 0.056455
C67   C     C_R   0.609029 0.023912 0.729098 -0.154268
C68   C     C_R   0.408884 0.940455 0.278725 -0.103435
C69   C     C_R   0.060878 0.720986 0.590625 -0.226800
C70   C     C_R   0.940122 0.279092 0.408438 -0.117704
C71   C     C_R   0.719495 0.588783 0.065928 -0.231160
C72   C     C_R   0.279766 0.409504 0.937386 -0.111519
C73   C     C_R   0.280504 0.934070 0.411214 -0.231113
C74   C     C_R   0.720236 0.062593 0.590503 -0.111568
C75   C     C_R   0.390974 0.270909 0.976065 -0.154174
C76   C     C_R   0.591119 0.721275 0.059534 -0.103337
C77   C     C_R   0.939134 0.409373 0.279013 -0.226846
C78   C     C_R   0.059887 0.591560 0.720908 -0.117695
C79   C     C_R   0.676529 0.067277 0.677740 -0.156870
C80   C     C_R   0.324830 0.923801 0.325145 -0.134230
C81   C     C_R   0.072553 0.676662 0.676128 -0.122651
C82   C     C_R   0.927456 0.323872 0.323338 -0.122627
C83   C     C_R   0.675170 0.674853 0.076195 -0.134248
C84   C     C_R   0.323480 0.322269 0.932696 -0.156954
C85   C     C_R   0.600375 0.014457 0.592890 0.009595
C86   C     C_R   0.416552 0.950955 0.416520 0.059629
C87   C     C_R   0.044257 0.585549 0.585184 0.048398
C88   C     C_R   0.955761 0.414813 0.414446 0.048408
C89   C     C_R   0.583454 0.583481 0.049028 0.059702
C90   C     C_R   0.399625 0.407118 0.985522 0.009500
C91   C     C_2   0.697216 0.123791 0.710927 0.533658
H13   H     H_    0.660606 0.195130 0.699206 0.072149
O25   O     O_2   0.753100 0.090811 0.752935 -0.529367
C92   C     C_2   0.288840 0.881367 0.290683 0.531944
H14   H     H_    0.300567 0.809140 0.316265 0.081339
O26   O     O_2   0.243318 0.926240 0.237991 -0.481198
C93   C     C_2   0.111370 0.714236 0.712883 0.531576
H15   H     H_    0.184378 0.701779 0.691062 0.079454
O27   O     O_2   0.062585 0.760747 0.764517 -0.486096
C94   C     C_2   0.888589 0.287145 0.285791 0.531456
H16   H     H_    0.815573 0.309000 0.298266 0.079701
O28   O     O_2   0.937335 0.235503 0.239282 -0.486154
C95   C     C_2   0.711164 0.709313 0.118626 0.531990
H17   H     H_    0.699456 0.683715 0.190848 0.081364
O29   O     O_2   0.756680 0.762011 0.073752 -0.481261
C96   C     C_2   0.302785 0.289075 0.876195 0.533586
H18   H     H_    0.339369 0.300823 0.804845 0.072206
O30   O     O_2   0.246923 0.247039 0.909194 -0.529348
C97   C     C_2   0.532815 0.858341 0.821796 0.450610
H19   H     H_    0.477585 0.829238 0.867188 0.051433
O31   O     O_2   0.604783 0.829421 0.840061 -0.580253
C98   C     C_2   0.619937 0.878387 0.239078 0.479790
H20   H     H_    0.688761 0.883332 0.202084 0.093892
O32   O     O_2   0.598967 0.816392 0.241002 -0.619029
C99   C     C_2   0.134177 0.757958 0.384851 0.511815
H21   H     H_    0.174215 0.770435 0.412900 -0.009742
O33   O     O_2   0.142135 0.789666 0.304120 -0.569782
C100  C     C_2   0.864211 0.245065 0.615139 0.466696
H22   H     H_    0.864728 0.210078 0.684637 0.076576
O34   O     O_2   0.806506 0.244053 0.589300 -0.595307
C101  C     C_2   0.761769 0.384492 0.141294 0.485380
H23   H     H_    0.778393 0.414853 0.175962 -0.007458
O35   O     O_2   0.796663 0.303974 0.147707 -0.585255
C102  C     C_2   0.258978 0.607998 0.846153 0.408427
H24   H     H_    0.229106 0.680221 0.836596 0.106688
O36   O     O_2   0.254862 0.573771 0.797061 -0.613939
C103  C     C_2   0.238170 0.858787 0.615499 0.485314
H25   H     H_    0.221775 0.823889 0.585182 -0.007823
O37   O     O_2   0.202885 0.852799 0.695927 -0.584695
C104  C     C_2   0.741035 0.153813 0.392007 0.408666
H26   H     H_    0.770918 0.163355 0.319789 0.107080
O38   O     O_2   0.745145 0.202916 0.426224 -0.613917
C105  C     C_2   0.467048 0.178258 0.141732 0.450476
H27   H     H_    0.522106 0.132996 0.171103 0.051476
O39   O     O_2   0.395173 0.159894 0.170405 -0.580329
C106  C     C_2   0.380064 0.760921 0.121583 0.479664
H28   H     H_    0.311247 0.797925 0.116624 0.093824
O40   O     O_2   0.401017 0.758983 0.183592 -0.619031
C107  C     C_2   0.865803 0.615146 0.242069 0.511802
H29   H     H_    0.825843 0.587081 0.229509 -0.009629
O41   O     O_2   0.857698 0.695902 0.210513 -0.569940
C108  C     C_2   0.135782 0.384852 0.754946 0.466687
H30   H     H_    0.135263 0.315354 0.789921 0.076545
O42   O     O_2   0.193478 0.410686 0.755980 -0.595321

loop_
_geom_bond_atom_site_label_1
_geom_bond_atom_site_label_2
_geom_bond_distance
_ccdc_geom_bond_type
C46   C54   1.422347 A    
O9    C21   1.250187 A    
C99   H21   1.082655 S    
C56   C68   1.440259 A    
O17   Zn5   2.075067 S    
C59   C71   1.439628 A    
C103  H25   1.082890 S    
C7    H7    1.079275 S    
O11   C23   1.248414 A    
C101  H23   1.082796 S    
C1    C25   1.399771 A    
C55   C85   1.407321 A    
C63   C75   1.433223 A    
O12   Zn1   2.037335 S    
C43   C49   1.418015 A    
C105  O39   1.221133 D    
O14   Zn2   2.052838 S    
C77   C82   1.390376 A    
O20   C18   1.268785 A    
C6    C30   1.402727 A    
C29   C101  1.478816 S    
O4    Zn4   2.037341 S    
C4    C53   1.406421 A    
O5    Zn5   2.054094 S    
C101  O35   1.221553 D    
C18   C67   1.445454 S    
C96   O30   1.221304 D    
C70   C82   1.390725 A    
C6    C51   1.409005 A    
C34   C106  1.476134 S    
C8    C32   1.402723 A    
C5    C52   1.404145 A    
C72   C84   1.372806 A    
C58   C88   1.409415 A    
C7    C31   1.404499 A    
C71   C83   1.384252 A    
C11   H11   1.081184 S    
C81   C93   1.479917 S    
C108  H30   1.085529 S    
C36   C66   1.421753 A    
C11   C35   1.402553 A    
C66   C78   1.437971 A    
C13   C70   1.479140 S    
C38   C44   1.409985 A    
O2    Zn2   2.063157 S    
C73   C80   1.384258 A    
C62   C74   1.429391 A    
C9    C33   1.399810 A    
O4    C16   1.245952 A    
C28   C58   1.421748 A    
C6    H6    1.083100 S    
O10   C22   1.248318 A    
O24   C14   1.292638 A    
C97   H19   1.085656 S    
O5    C17   1.240805 A    
C76   C83   1.388050 A    
O7    C19   1.240803 A    
C40   C88   1.428770 A    
C75   C84   1.391968 A    
C36   C108  1.478888 S    
C3    C27   1.402533 A    
C78   C81   1.390743 A    
O1    C13   1.250191 A    
C56   C86   1.410035 A    
C29   C59   1.425135 A    
O3    C15   1.248429 A    
C98   O32   1.218319 D    
C99   O33   1.221655 D    
C7    C44   1.404160 A    
C64   C76   1.440254 A    
C102  O36   1.220292 D    
C103  O37   1.221806 D    
C82   C94   1.479870 S    
C3    C54   1.404811 A    
C64   C89   1.410037 A    
O9    Zn4   2.063162 S    
C42   C48   1.415293 A    
O6    Zn6   2.054095 S    
C65   C88   1.410964 A    
O10   Zn3   2.063162 S    
C65   C77   1.438906 A    
C95   O29   1.221634 D    
C104  O38   1.220285 D    
C48   C52   1.425550 A    
C63   C90   1.407315 A    
C107  O41   1.221527 D    
C12   C45   1.406415 A    
C23   C74   1.469884 S    
C41   C47   1.414857 A    
C74   C79   1.372797 A    
C57   C87   1.410955 A    
C69   C81   1.390403 A    
O16   Zn4   2.076043 S    
C35   C65   1.422855 A    
C96   H18   1.084501 S    
C28   C100  1.478893 S    
C92   O26   1.221644 D    
C3    H3    1.081182 S    
O16   C22   1.292641 A    
C35   C107  1.482189 S    
O13   C23   1.291499 A    
C39   C54   1.411645 A    
O3    Zn3   2.037341 S    
O22   C16   1.294539 A    
C92   H14   1.080700 S    
O23   Zn2   2.076030 S    
O14   C24   1.294539 A    
C38   C86   1.427213 A    
C2    C49   1.400729 A    
C107  H29   1.082604 S    
C41   C52   1.409967 A    
C25   C97   1.479433 S    
C42   C90   1.419862 A    
C45   C53   1.424771 A    
C100  O34   1.219942 D    
C61   C73   1.439625 A    
O17   C19   1.287710 A    
C41   C89   1.427217 A    
C60   C72   1.429386 A    
O18   C20   1.268768 A    
C55   C67   1.433242 A    
C11   C46   1.404820 A    
O2    C14   1.248339 A    
C39   C87   1.428776 A    
C16   C71   1.477235 S    
O21   C15   1.291491 A    
C9    H9    1.080631 S    
C15   C72   1.469899 S    
C57   C69   1.438911 A    
C10   H10   1.083171 S    
C37   C50   1.415300 A    
C61   C86   1.411413 A    
C80   C92   1.478735 S    
C66   C87   1.409425 A    
C39   C45   1.413974 A    
C27   C99   1.482151 S    
C24   C73   1.477229 S    
O13   Zn1   2.052838 S    
C59   C89   1.411433 A    
O19   Zn6   2.075078 S    
C33   C63   1.419542 A    
O15   Zn3   2.076043 S    
C17   C68   1.473923 S    
C91   H13   1.084451 S    
C94   O28   1.222000 D    
O15   C21   1.291167 A    
C31   C103  1.478691 S    
C27   C57   1.422854 A    
C95   H17   1.080665 S    
C37   C43   1.409325 A    
C104  H26   1.085344 S    
C21   C78   1.479144 S    
C32   C62   1.417165 A    
O24   Zn1   2.076031 S    
C33   C105  1.479484 S    
C37   C85   1.419872 A    
C1    C50   1.409179 A    
C34   C64   1.423170 A    
C40   C53   1.413977 A    
C30   C102  1.476883 S    
C4    C28   1.400520 A    
C1    H1    1.080636 S    
C60   C90   1.410349 A    
O20   Zn5   2.075077 S    
C2    H2    1.083178 S    
O8    Zn5   2.054093 S    
C106  O40   1.218302 D    
C93   H15   1.078596 S    
C58   C70   1.437960 A    
C4    H4    1.082124 S    
C26   C98   1.476138 S    
C12   C36   1.400523 A    
O18   Zn6   2.075069 S    
C2    C26   1.395523 A    
C100  H22   1.085558 S    
C38   C49   1.414857 A    
C10   C47   1.400723 A    
C8    H8    1.083105 S    
C105  H27   1.085463 S    
O23   C13   1.291174 A    
C9    C48   1.409208 A    
C68   C80   1.388043 A    
C93   O27   1.222001 D    
C67   C79   1.391989 A    
C102  H24   1.085373 S    
C84   C96   1.483455 S    
C30   C60   1.417165 A    
C20   C75   1.445473 S    
C40   C46   1.411639 A    
C8    C43   1.408992 A    
O12   C24   1.245970 A    
C108  O42   1.219924 D    
C22   C77   1.478481 S    
C12   H12   1.082127 S    
C42   C51   1.409319 A    
C97   O31   1.221333 D    
C47   C51   1.418017 A    
O8    C20   1.242178 A    
C26   C56   1.423173 A    
C25   C55   1.419568 A    
C19   C76   1.473917 S    
C98   H20   1.085733 S    
C31   C61   1.425111 A    
C62   C85   1.410354 A    
O6    C18   1.242166 A    
O11   Zn2   2.037335 S    
C91   O25   1.221303 D    
C5    H5    1.079272 S    
C94   H16   1.078647 S    
O22   Zn3   2.052839 S    
C44   C50   1.425526 A    
O7    Zn6   2.054095 S    
C79   C91   1.483484 S    
C14   C69   1.478486 S    
O1    Zn1   2.063157 S    
C32   C104  1.476877 S    
C83   C95   1.478734 S    
O21   Zn4   2.052840 S    
O19   C17   1.287716 A    
C10   C34   1.395504 A    
C106  H28   1.085728 S    
C5    C29   1.404564 A    
