data_str_m3_o40_o40_f0_fof.sym.25
_audit_creation_date              2012-12-10T16:37:23-0500
_audit_creation_method            fapswitch 2.2
_symmetry_space_group_name_H-M    P1
_symmetry_Int_Tables_number       1
_space_group_crystal_system       triclinic
_cell_length_a                    16.815193
_cell_length_b                    16.815124
_cell_length_c                    16.815396
_cell_angle_alpha                 64.28139
_cell_angle_beta                  64.282586
_cell_angle_gamma                 64.283739
_cell_volume                      3678.32113397

loop_
_atom_site_label
_atom_site_type_symbol
_atom_type_description
_atom_site_fract_x
_atom_site_fract_y
_atom_site_fract_z
_atom_type_partial_charge
C1    C     C_R   0.399569 0.043101 0.666859 -0.263565
C2    C     C_R   0.399528 0.666813 0.043228 -0.263534
C3    C     C_1   0.885015 0.224587 0.629664 0.211709
C4    C     C_1   0.775411 0.370339 0.114965 0.211706
C5    C     C_1   0.224602 0.629662 0.885057 0.211692
C6    C     C_1   0.224595 0.885017 0.629660 0.211693
C7    C     C_1   0.775410 0.114951 0.370347 0.211715
C8    C     C_1   0.629645 0.224637 0.884996 0.211649
C9    C     C_1   0.370310 0.775429 0.114980 0.211733
C10   C     C_1   0.884973 0.629664 0.224595 0.211684
C11   C     C_1   0.114852 0.370304 0.775455 0.211787
C12   C     C_R   0.956846 0.600435 0.333112 -0.263604
C13   C     C_R   0.043066 0.399603 0.666851 -0.263638
C14   C     C_R   0.960156 0.180485 0.438542 0.898316
C15   C     C_R   0.039842 0.819514 0.561458 0.898262
C16   C     C_R   0.180485 0.438546 0.960152 0.898269
C17   C     C_R   0.819513 0.561462 0.039835 0.898279
C18   C     C_R   0.438543 0.960150 0.180486 0.898279
C19   C     C_R   0.561458 0.039841 0.819514 0.898278
C20   C     C_R   0.561456 0.819514 0.039845 0.898274
C21   C     C_R   0.600392 0.956951 0.333090 -0.263562
C22   C     C_R   0.438548 0.180485 0.960148 0.898259
C23   C     C_R   0.039838 0.561460 0.819513 0.898265
C24   C     C_R   0.960149 0.438542 0.180485 0.898309
C25   C     C_R   0.819513 0.039834 0.561463 0.898277
C26   C     C_R   0.180484 0.960147 0.438547 0.898271
C27   C     C_R   0.437861 0.069590 0.706571 0.019066
C28   C     C_R   0.562105 0.930410 0.293424 0.019131
C29   C     C_R   0.069544 0.706606 0.437882 0.019125
C30   C     C_R   0.930371 0.293436 0.562123 0.019125
C31   C     C_R   0.706575 0.437881 0.069599 0.019120
C32   C     C_R   0.042968 0.666959 0.399612 -0.263626
C33   C     C_R   0.293416 0.562108 0.930449 0.019126
C34   C     C_R   0.293425 0.930396 0.562115 0.019117
C35   C     C_R   0.706584 0.069572 0.437893 0.019119
C36   C     C_R   0.562111 0.293439 0.930400 0.019124
C37   C     C_R   0.437844 0.706537 0.069681 0.019075
C38   C     C_R   0.930338 0.562132 0.293435 0.019106
C39   C     C_R   0.069566 0.437878 0.706563 0.019068
C40   C     C_R   0.540079 0.026819 0.540078 0.026686
C41   C     C_R   0.459909 0.973191 0.459904 0.026683
C42   C     C_R   0.026785 0.540107 0.540073 0.026714
C43   C     C_R   0.956878 0.333131 0.600411 -0.263633
C44   C     C_R   0.973127 0.459942 0.459916 0.026702
C45   C     C_R   0.540064 0.540063 0.026870 0.026687
C46   C     C_R   0.459895 0.459895 0.973237 0.026684
C47   C     C_R   0.586973 0.015395 0.451219 0.045776
C48   C     C_R   0.413022 0.984607 0.548765 0.045771
C49   C     C_R   0.015377 0.451242 0.586948 0.045769
C50   C     C_R   0.984523 0.548816 0.413035 0.045783
C51   C     C_R   0.451182 0.586924 0.015502 0.045776
C52   C     C_R   0.548769 0.413022 0.984624 0.045772
C53   C     C_R   0.548775 0.984603 0.413021 0.045773
C54   C     C_R   0.666901 0.399595 0.043066 -0.263582
C55   C     C_R   0.451209 0.015419 0.586950 0.045781
C56   C     C_R   0.412999 0.548745 0.984681 0.045764
C57   C     C_R   0.586962 0.451212 0.015428 0.045769
C58   C     C_R   0.984548 0.413057 0.548774 0.045769
C59   C     C_R   0.015339 0.587008 0.451221 0.045775
C60   C     C_R   0.534452 0.061673 0.671353 0.023089
C61   C     C_R   0.465524 0.938333 0.328647 0.023081
C62   C     C_R   0.061656 0.671360 0.534461 0.023086
C63   C     C_R   0.938302 0.328655 0.465535 0.023077
C64   C     C_R   0.671345 0.534465 0.061681 0.023058
C65   C     C_R   0.333079 0.600380 0.957011 -0.263607
C66   C     C_R   0.328640 0.465526 0.938363 0.023111
C67   C     C_R   0.328646 0.938326 0.465531 0.023095
C68   C     C_R   0.671348 0.061659 0.534475 0.023065
C69   C     C_R   0.465526 0.328647 0.938349 0.023109
C70   C     C_R   0.534445 0.671337 0.061713 0.023077
C71   C     C_R   0.938285 0.465543 0.328654 0.023090
C72   C     C_R   0.061654 0.534465 0.671346 0.023116
C73   C     C_R   0.585023 0.069188 0.717546 -0.188032
C74   C     C_R   0.414967 0.930800 0.282456 -0.188023
C75   C     C_R   0.069188 0.717545 0.585027 -0.188017
C76   C     C_R   0.333097 0.956936 0.600396 -0.263588
C77   C     C_R   0.930797 0.282453 0.414968 -0.188055
C78   C     C_R   0.717544 0.585039 0.069176 -0.188035
C79   C     C_R   0.282452 0.414973 0.930818 -0.187981
C80   C     C_R   0.282452 0.930796 0.414974 -0.188024
C81   C     C_R   0.717542 0.069172 0.585041 -0.188029
C82   C     C_R   0.414971 0.282455 0.930813 -0.187989
C83   C     C_R   0.585025 0.717544 0.069193 -0.188042
C84   C     C_R   0.930785 0.414970 0.282455 -0.188061
C85   C     C_R   0.069180 0.585027 0.717542 -0.188026
C86   C     C_R   0.666465 0.091455 0.666471 -0.075167
C87   C     C_R   0.666921 0.043029 0.399610 -0.263569
C88   C     C_R   0.333522 0.908540 0.333530 -0.075204
C89   C     C_R   0.091454 0.666466 0.666467 -0.075212
C90   C     C_R   0.908531 0.333521 0.333526 -0.075160
C91   C     C_R   0.666471 0.666475 0.091447 -0.075153
C92   C     C_R   0.333526 0.333530 0.908563 -0.075333
C93   C     C_R   0.581922 0.050264 0.581932 0.039461
C94   C     C_R   0.418061 0.949742 0.418062 0.039456
C95   C     C_R   0.050248 0.581940 0.581922 0.039451
C96   C     C_R   0.949692 0.418083 0.418072 0.039467
C97   C     C_R   0.581914 0.581918 0.050303 0.039471
C98   C     C_R   0.600405 0.333116 0.956923 -0.263565
C99   C     C_R   0.418054 0.418057 0.949775 0.039446
C100  C     C_1   0.669846 0.174025 0.669831 0.215715
C101  C     C_1   0.330071 0.826025 0.330082 0.215711
C102  C     C_1   0.174003 0.669857 0.669868 0.215715
C103  C     C_1   0.825985 0.330119 0.330139 0.215771
C104  C     C_1   0.669850 0.669847 0.174011 0.215732
C105  C     C_1   0.329984 0.329992 0.826146 0.215760
C106  C     C_1   0.370295 0.114859 0.775475 0.211799
C107  C     C_1   0.629646 0.885013 0.224618 0.211673
C108  C     C_1   0.114915 0.775442 0.370318 0.211723
H1    H     H_    0.326153 0.050880 0.696148 0.144150
H2    H     H_    0.326092 0.696069 0.051064 0.144154
H3    H     H_    0.949100 0.673819 0.303773 0.144165
H4    H     H_    0.050835 0.326205 0.696131 0.144188
H5    H     H_    0.673782 0.949223 0.303750 0.144141
H6    H     H_    0.050620 0.696344 0.326252 0.144168
H7    H     H_    0.949130 0.303826 0.673804 0.144183
H8    H     H_    0.696235 0.326204 0.050787 0.144163
H9    H     H_    0.303758 0.673773 0.949289 0.144183
H10   H     H_    0.303772 0.949199 0.673790 0.144169
H11   H     H_    0.696279 0.050736 0.326225 0.144141
H12   H     H_    0.673813 0.303812 0.949146 0.144156
N1    N     N_1   0.669790 0.242875 0.669762 -0.200246
N2    N     N_1   0.851275 0.168026 0.685207 -0.171746
N3    N     N_1   0.831960 0.314796 0.148716 -0.171759
N4    N     N_1   0.168071 0.685214 0.851284 -0.171769
N5    N     N_1   0.168049 0.851258 0.685207 -0.171748
N6    N     N_1   0.831954 0.148708 0.314800 -0.171766
N7    N     N_1   0.685187 0.168116 0.851211 -0.171777
N8    N     N_1   0.314764 0.832025 0.148669 -0.171718
N9    N     N_1   0.851228 0.685206 0.168040 -0.171744
N10   N     N_1   0.148525 0.314723 0.832054 -0.171745
N11   N     N_1   0.330061 0.757216 0.330068 -0.200228
N12   N     N_1   0.242839 0.669806 0.669831 -0.200247
N13   N     N_1   0.757151 0.330159 0.330190 -0.200246
N14   N     N_1   0.669793 0.669784 0.242860 -0.200240
N15   N     N_1   0.329889 0.329904 0.757417 -0.200237
N16   N     N_1   0.314718 0.148513 0.832085 -0.171738
N17   N     N_1   0.685197 0.851241 0.168091 -0.171782
N18   N     N_1   0.148664 0.831994 0.314750 -0.171767
O1    O     O_R   0.982940 0.138950 0.510160 -0.628148
O2    O     O_R   0.982940 0.510160 0.138950 -0.628143
O3    O     O_R   0.861050 0.017060 0.489840 -0.628155
O4    O     O_R   0.138950 0.982940 0.510160 -0.628145
O5    O     O_R   0.867700 0.025880 0.612340 -0.594770
O6    O     O_R   0.132300 0.974120 0.387660 -0.594774
O7    O     O_R   0.025880 0.612340 0.867700 -0.594770
O8    O     O_R   0.974120 0.387660 0.132300 -0.594766
O9    O     O_R   0.612340 0.867700 0.025880 -0.594775
O10   O     O_R   0.387660 0.132300 0.974120 -0.594772
O11   O     O_R   0.387660 0.974120 0.132300 -0.594765
O12   O     O_R   0.017060 0.861050 0.489840 -0.628165
O13   O     O_R   0.612340 0.025880 0.867700 -0.594773
O14   O     O_R   0.132300 0.387660 0.974120 -0.594774
O15   O     O_R   0.867700 0.612340 0.025880 -0.594779
O16   O     O_R   0.974120 0.132300 0.387660 -0.594768
O17   O     O_R   0.025880 0.867700 0.612340 -0.594774
O18   O     O_R   0.138950 0.510160 0.982940 -0.628145
O19   O     O_R   0.861050 0.489840 0.017060 -0.628157
O20   O     O_R   0.510160 0.982940 0.138950 -0.628142
O21   O     O_R   0.489840 0.017060 0.861050 -0.628166
O22   O     O_R   0.489840 0.861050 0.017060 -0.628154
O23   O     O_R   0.510160 0.138950 0.982940 -0.628137
O24   O     O_R   0.017060 0.489840 0.861050 -0.628163
Zn1   Zn    Zn3+2 0.004880 0.004880 0.583590 1.001886
Zn2   Zn    Zn3+2 0.995120 0.995120 0.416410 1.001890
Zn3   Zn    Zn3+2 0.004880 0.583590 0.004880 1.001888
Zn4   Zn    Zn3+2 0.995120 0.416410 0.995120 1.001916
Zn5   Zn    Zn3+2 0.583590 0.004880 0.004880 1.001889
Zn6   Zn    Zn3+2 0.416410 0.995120 0.995120 1.001926

loop_
_geom_bond_atom_site_label_1
_geom_bond_atom_site_label_2
_ccdc_geom_bond_type
C48   C55   A    
C15   C75   S    
C46   C99   A    
C107  N17   T    
C89   C102  S    
C40   C47   A    
C48   C76   A    
C40   C93   A    
C17   O15   A    
C88   C101  S    
C33   C65   A    
O7    Zn3   S    
C24   O2    A    
C66   C79   A    
C23   O7    A    
C5    N4    T    
C45   C57   A    
C34   C67   A    
C104  N14   T    
C44   C96   A    
C50   C59   A    
C22   C82   S    
O16   Zn2   S    
C102  N12   T    
C51   C56   A    
C13   H4    S    
C27   C60   A    
C45   C51   A    
C28   C107  S    
C56   C65   A    
C46   C52   A    
C60   C73   A    
C82   C92   A    
O21   Zn6   S    
C100  N1    T    
C8    C36   S    
C14   C77   S    
C52   C98   A    
C69   C82   A    
C43   C58   A    
C43   H7    S    
O24   Zn4   S    
C72   C95   A    
C35   C87   A    
C44   C58   A    
C5    C33   S    
C16   O18   A    
C67   C94   A    
C19   O13   A    
C39   C72   A    
C29   C108  S    
C18   O11   A    
C17   O19   A    
C91   C104  S    
C36   C98   A    
C15   O17   A    
C81   C86   A    
C3    N2    T    
C47   C53   A    
C23   O24   A    
C1    H1    S    
C60   C93   A    
C106  N16   T    
O8    Zn4   S    
C7    N6    T    
C37   C70   A    
C14   O16   A    
C25   C81   S    
C12   C38   A    
C25   O5    A    
O11   Zn6   S    
C84   C90   A    
C26   O6    A    
O5    Zn1   S    
C33   C66   A    
C72   C85   A    
C73   C86   A    
C77   C90   A    
C9    N8    T    
C42   C95   A    
C19   C73   S    
C21   H5    S    
C52   C57   A    
O4    Zn1   S    
C22   O23   A    
C85   C89   A    
C61   C94   A    
C71   C96   A    
C27   C106  S    
O17   Zn1   S    
C63   C96   A    
C76   H10   S    
C49   C58   A    
C6    C34   S    
C4    N3    T    
C54   H8    S    
C47   C87   A    
C66   C99   A    
C42   C59   A    
C3    C30   S    
C87   H11   S    
C18   O20   A    
C8    N7    T    
C12   C50   A    
C41   C94   A    
C40   C55   A    
C9    C37   S    
C20   O9    A    
C16   O14   A    
C11   C39   S    
C70   C83   A    
C41   C53   A    
C79   C92   A    
O23   Zn5   S    
O9    Zn5   S    
C13   C49   A    
C69   C99   A    
C64   C97   A    
C21   C28   A    
C22   O10   A    
C20   O22   A    
O10   Zn6   S    
O18   Zn3   S    
O20   Zn5   S    
C68   C81   A    
C83   C91   A    
C11   N10   T    
C101  N11   T    
C12   H3    S    
C64   C78   A    
C36   C69   A    
C71   C84   A    
C63   C77   A    
C44   C50   A    
O2    Zn3   S    
C29   C62   A    
C2    H2    S    
C62   C95   A    
O15   Zn3   S    
C7    C35   S    
C31   C64   A    
C25   O3    A    
C67   C80   A    
C6    N5    T    
O19   Zn4   S    
O14   Zn4   S    
C70   C97   A    
C98   H12   S    
C32   H6    S    
C78   C91   A    
C29   C32   A    
O12   Zn2   S    
C68   C93   A    
C105  N15   T    
C10   C38   S    
C16   C79   S    
C19   O21   A    
O1    Zn1   S    
C24   C84   S    
C10   N9    T    
C80   C88   A    
C45   C97   A    
C28   C61   A    
C21   C53   A    
C86   C100  S    
C2    C37   A    
C35   C68   A    
O13   Zn5   S    
C30   C63   A    
C17   C78   S    
C41   C48   A    
C1    C55   A    
O22   Zn6   S    
C31   C54   A    
C103  N13   T    
C30   C43   A    
C26   C80   S    
C90   C103  S    
C13   C39   A    
C4    C31   S    
C2    C51   A    
C75   C89   A    
C42   C49   A    
C92   C105  S    
C14   O1    A    
O3    Zn2   S    
C18   C74   S    
C23   C85   S    
C20   C83   S    
C46   C56   A    
C1    C27   A    
C65   H9    S    
C24   O8    A    
C32   C59   A    
C74   C88   A    
C26   O4    A    
C15   O12   A    
O6    Zn2   S    
C62   C75   A    
C38   C71   A    
C61   C74   A    
C34   C76   A    
C108  N18   T    
C54   C57   A    
