data_str_m12_o9_o24_f0_bcu.sym.52
_audit_creation_date              2012-12-11T17:47:30-0500
_audit_creation_method            fapswitch 2.2
_symmetry_space_group_name_H-M    P1
_symmetry_Int_Tables_number       1
_space_group_crystal_system       triclinic
_cell_length_a                    14.822038
_cell_length_b                    14.864676
_cell_length_c                    15.263748
_cell_angle_alpha                 110.898734
_cell_angle_beta                  108.96177
_cell_angle_gamma                 108.371477
_cell_volume                      2593.57124408

loop_
_atom_site_label
_atom_site_type_symbol
_atom_type_description
_atom_site_fract_x
_atom_site_fract_y
_atom_site_fract_z
_atom_type_partial_charge
C1    C     C_R   0.973910 0.247838 0.060511 -0.126301
C2    C     C_R   0.068657 0.144361 0.164042 -0.239880
C3    C     C_R   0.159121 0.029554 0.797910 -0.138349
C4    C     C_R   0.946703 0.948053 0.322597 -0.117683
C5    C     C_R   0.123259 0.040334 0.872999 -0.169849
C6    C     C_R   0.021033 0.002990 0.297554 -0.192816
C7    C     C_R   0.594394 0.296922 0.170430 -0.115387
C8    C     C_R   0.387383 0.735818 0.775468 -0.125582
C9    C     C_R   0.698966 0.375021 0.257381 -0.140767
C10   C     C_R   0.280607 0.650698 0.697516 -0.148985
C11   C     C_R   0.767145 0.341190 0.308138 0.121038
C12   C     C_R   0.092741 0.805923 0.008096 -0.131887
C13   C     C_R   0.192777 0.672284 0.681030 0.122269
C14   C     C_R   0.729124 0.228029 0.270552 -0.173647
C15   C     C_R   0.213445 0.780070 0.743085 -0.192837
C16   C     C_R   0.315623 0.762183 0.224310 -0.136605
C17   C     C_R   0.705512 0.193472 0.793727 -0.140585
C18   C     C_R   0.624533 0.149994 0.182539 -0.120482
C19   C     C_R   0.319772 0.864063 0.822756 -0.106188
C20   C     C_R   0.557028 0.184458 0.132537 -0.089420
C21   C     C_R   0.406803 0.842046 0.838681 -0.101674
C22   C     C_R   0.903430 0.423189 0.497023 -0.245467
C23   C     C_R   0.325062 0.793198 0.326334 0.049139
C24   C     C_R   0.055528 0.587476 0.494153 -0.245446
C25   C     C_R   0.004899 0.503120 0.588988 0.071084
C26   C     C_R   0.954758 0.507073 0.401628 0.067292
C27   C     C_R   0.082115 0.587002 0.588579 0.010825
C28   C     C_R   0.876907 0.424333 0.402359 0.016644
C29   C     C_R   0.193635 0.125544 0.981076 0.118409
C30   C     C_R   0.982284 0.005908 0.202322 0.120711
C31   C     C_R   0.335034 0.188414 0.937072 -0.154934
C32   C     C_R   0.796402 0.915215 0.167780 -0.157377
C33   C     C_R   0.238428 0.031478 0.530763 -0.134825
C34   C     C_R   0.705347 0.128943 0.701519 0.065954
C35   C     C_R   0.917601 0.027518 0.605221 -0.140484
C36   C     C_R   0.320952 0.010942 0.519826 -0.128930
C37   C     C_R   0.813978 0.979694 0.594246 -0.149504
C38   C     C_R   0.337734 0.929616 0.537394 0.106727
C39   C     C_R   0.725912 0.977099 0.519604 0.118958
C40   C     C_R   0.213718 0.406996 0.910062 -0.160531
C41   C     C_R   0.776836 0.593414 0.023999 -0.131191
C42   C     C_R   0.273677 0.871862 0.569423 -0.183625
C43   C     C_R   0.741522 0.016922 0.451835 -0.199830
C44   C     C_R   0.186470 0.887484 0.572873 -0.129085
C45   C     C_R   0.307228 0.498174 0.944538 0.056489
C46   C     C_R   0.845992 0.067144 0.465264 -0.119018
C47   C     C_R   0.169276 0.967648 0.554248 -0.123597
C48   C     C_R   0.934080 0.073005 0.542324 -0.116425
C49   C     C_R   0.525783 0.975374 0.623672 -0.227619
C50   C     C_R   0.524840 0.872542 0.431663 -0.254356
C51   C     C_R   0.622741 0.012747 0.620149 0.050331
C52   C     C_R   0.426075 0.858050 0.430378 0.073048
C53   C     C_R   0.624176 0.951875 0.525496 0.037176
C54   C     C_R   0.427516 0.911233 0.528988 0.019550
C55   C     C_R   0.265137 0.103563 0.829977 -0.108429
C56   C     C_R   0.676497 0.501983 0.945978 0.029297
C57   C     C_R   0.834462 0.903317 0.257222 -0.096347
C58   C     C_R   0.057766 0.048937 0.166096 0.024344
C59   C     C_R   0.162705 0.120544 0.061912 0.023364
C60   C     C_R   0.299737 0.200169 0.012954 -0.168424
C61   C     C_R   0.869801 0.964835 0.139254 -0.152331
C62   C     C_R   0.103577 0.990527 0.116899 0.055245
C63   C     C_R   0.101471 0.167540 0.094608 0.061564
C64   C     C_R   0.997579 0.592859 0.298958 -0.167609
C65   C     C_R   0.979783 0.408161 0.691227 -0.149181
C66   C     C_3   0.464165 0.445215 0.828049 0.214058
C67   C     C_R   0.944999 0.502352 0.303879 0.062822
C68   C     C_3   0.510241 0.554717 0.031486 0.224052
C69   C     C_3   0.450883 0.548067 0.876574 -0.219045
C70   C     C_3   0.521297 0.452264 0.982511 -0.196111
C71   C     C_3   0.398871 0.497785 0.931317 0.129522
C72   C     C_3   0.575116 0.502709 0.928616 0.134948
C73   C     C_3   0.409047 0.394439 0.881100 -0.271028
C74   C     C_3   0.564327 0.606008 0.978452 -0.266052
C75   C     C_R   0.303823 0.590801 0.001156 -0.129800
C76   C     C_R   0.686132 0.408829 0.929938 -0.130931
C77   C     C_R   0.911631 0.409317 0.210643 -0.128281
C78   C     C_R   0.021249 0.501971 0.685329 0.064280
C79   C     C_R   0.066610 0.593898 0.784151 -0.123441
C80   C     C_R   0.220489 0.753597 0.312218 -0.119049
C81   C     C_R   0.793825 0.196893 0.700902 -0.137338
C82   C     C_R   0.068926 0.250931 0.972517 -0.139155
C83   C     C_R   0.000678 0.803665 0.097316 -0.150406
C84   C     C_R   0.052895 0.222209 0.045846 0.057764
C85   C     C_R   0.064269 0.871023 0.073870 0.066094
C86   C     C_3   0.437854 0.379377 0.711797 -0.468428
C87   C     C_3   0.503768 0.452101 0.680863 -0.235515
C88   C     C_3   0.477463 0.385120 0.564836 -0.904448
C89   C     C_R   0.174120 0.042322 0.086973 -0.226064
C90   C     C_3   0.539630 0.616694 0.149901 -0.460015
C91   C     C_3   0.487718 0.537338 0.183443 -0.237572
C92   C     C_3   0.493931 0.598943 0.291088 -0.904302
H1    H     H_    0.938368 0.234583 0.109006 0.091647
H2    H     H_    0.455472 0.720015 0.786060 0.101368
H3    H     H_    0.726239 0.461837 0.285995 0.109564
H4    H     H_    0.266762 0.569096 0.647958 0.110525
H5    H     H_    0.780710 0.200383 0.308808 0.110296
H6    H     H_    0.146847 0.798573 0.730196 0.112167
H7    H     H_    0.595712 0.062954 0.153414 0.103195
H8    H     H_    0.334836 0.946488 0.871058 0.122286
H9    H     H_    0.842755 0.361934 0.499876 0.134349
H10   H     H_    0.117373 0.647521 0.491615 0.132105
H11   H     H_    0.042146 0.979980 0.848039 0.116233
H12   H     H_    0.151315 0.832672 0.983066 0.090236
H13   H     H_    0.107479 0.035275 0.346673 0.119453
H14   H     H_    0.342632 0.308278 0.837708 0.135649
H15   H     H_    0.628604 0.692144 0.017020 0.125489
H16   H     H_    0.380460 0.779176 0.204641 0.090743
H17   H     H_    0.658344 0.166095 0.828960 0.088383
H18   H     H_    0.355654 0.264162 0.096651 0.114884
H19   H     H_    0.839008 0.969324 0.067002 0.112283
H20   H     H_    0.104218 0.982277 0.560988 0.098121
H21   H     H_    0.015172 0.113061 0.553482 0.104044
H22   H     H_    0.228284 0.096959 0.521342 0.104154
H23   H     H_    0.105080 0.962276 0.715633 0.103621
H24   H     H_    0.985869 0.033168 0.665337 0.118030
H25   H     H_    0.372904 0.059395 0.499475 0.112793
H26   H     H_    0.803664 0.950508 0.647834 0.112381
H27   H     H_    0.288441 0.811621 0.586542 0.134985
H28   H     H_    0.675031 0.017130 0.394922 0.118166
H29   H     H_    0.132464 0.838085 0.590546 0.113944
H30   H     H_    0.858995 0.103086 0.417059 0.125087
H31   H     H_    0.523079 0.014341 0.696809 0.125209
H32   H     H_    0.525786 0.829563 0.358222 0.128318
H33   H     H_    0.221530 0.007751 0.061714 0.125471
H34   H     H_    0.975671 0.938736 0.391699 0.120486
H35   H     H_    0.034129 0.188326 0.202598 0.126912
H36   H     H_    0.416951 0.584541 0.832110 0.124939
H37   H     H_    0.554009 0.415758 0.028091 0.111636
H38   H     H_    0.185743 0.322335 0.852866 0.105870
H39   H     H_    0.796049 0.678757 0.059924 0.111904
H40   H     H_    0.024649 0.678005 0.353972 0.109269
H41   H     H_    0.943563 0.322942 0.629643 0.104225
H42   H     H_    0.358859 0.675006 0.028358 0.090036
H43   H     H_    0.621469 0.323920 0.879120 0.101875
H44   H     H_    0.861440 0.324374 0.184842 0.104465
H45   H     H_    0.417255 0.243022 0.960719 0.112795
H46   H     H_    0.104742 0.679823 0.809154 0.108249
H47   H     H_    0.194696 0.753253 0.369712 0.120242
H48   H     H_    0.826096 0.177416 0.647852 0.134696
H49   H     H_    0.124574 0.245342 0.943089 0.123659
H50   H     H_    0.975425 0.825190 0.155910 0.131444
H51   H     H_    0.294367 0.094955 0.772813 0.132304
H52   H     H_    0.777165 0.861136 0.276986 0.116840
H53   H     H_    0.498175 0.317797 0.554980 0.260927
H54   H     H_    0.389283 0.348871 0.508321 0.259467
H55   H     H_    0.526132 0.439626 0.544371 0.250005
H56   H     H_    0.709959 0.884392 0.119499 0.105441
H57   H     H_    0.484281 0.520053 0.689135 0.190857
H58   H     H_    0.592638 0.488957 0.735420 0.202713
H59   H     H_    0.456561 0.310864 0.702807 0.192075
H60   H     H_    0.349028 0.343278 0.657690 0.188545
H61   H     H_    0.579049 0.665167 0.353386 0.263460
H62   H     H_    0.438928 0.635165 0.281626 0.264210
H63   H     H_    0.466572 0.540454 0.318118 0.249354
H64   H     H_    0.400545 0.477784 0.121727 0.209720
H65   H     H_    0.531560 0.489878 0.190873 0.183352
H66   H     H_    0.629928 0.660279 0.201187 0.181895
H67   H     H_    0.475777 0.124132 0.064933 0.107503
H68   H     H_    0.513036 0.679990 0.162469 0.185641
H69   H     H_    0.489385 0.907522 0.899236 0.098216
H70   H     H_    0.542637 0.324508 0.133599 0.087101
N1    N     N_R   0.947560 0.293820 0.002910 -0.041617
N2    N     N_R   0.789450 0.443190 0.997090 -0.040061
N3    N     N_R   0.945970 0.443180 0.152110 -0.039959
N4    N     N_R   0.054030 0.556820 0.847890 -0.041320
N5    N     N_R   0.151530 0.706170 0.208880 -0.042678
N6    N     N_R   0.848470 0.293830 0.791120 -0.042647
N7    N     N_R   0.004980 0.293810 0.946140 -0.041064
N8    N     N_R   0.995020 0.706190 0.053860 -0.043066
N9    N     N_R   0.052440 0.706180 0.997090 -0.040972
N10   N     N_R   0.208960 0.706170 0.152110 -0.039025
N11   N     N_R   0.791040 0.293830 0.847890 -0.039721
N12   N     N_R   0.154330 0.443160 0.946140 -0.038113
N13   N     N_R   0.845670 0.556840 0.053860 -0.040523
N14   N     N_R   0.002190 0.556820 0.208880 -0.038532
N15   N     N_R   0.997810 0.443180 0.791120 -0.037936
N16   N     N_R   0.210550 0.556810 0.002910 -0.037221
Ni1   Ni    Ni4+2 0.869690 0.369690 0.000000 0.210721
Ni2   Ni    Ni4+2 0.130310 0.630310 0.000000 0.212800
Ni3   Ni    Ni4+2 0.001390 0.369680 0.869810 0.216366
Ni4   Ni    Ni4+2 0.998610 0.630320 0.130190 0.214532

loop_
_geom_bond_atom_site_label_1
_geom_bond_atom_site_label_2
_ccdc_geom_bond_type
C58   C62   A    
C81   H48   S    
C87   C88   S    
C5    H11   S    
C56   C76   A    
C45   C71   S    
C14   C18   A    
C67   C77   A    
C24   C27   A    
C6    H13   S    
C23   C52   S    
C75   H42   S    
C73   H14   S    
C89   H33   S    
N3    N14   A    
C15   C19   A    
C34   C51   S    
C22   H9    S    
C12   C85   A    
C26   C67   S    
C19   C21   A    
C24   C26   A    
C32   C61   A    
C12   H12   S    
C11   C14   A    
N15   Ni3   S    
C42   H27   S    
C66   C69   S    
N8    N9    A    
N11   Ni1   S    
C77   N3    A    
C47   H20   S    
C49   H31   S    
C62   C89   A    
C44   H29   S    
C33   C36   A    
N2    N13   A    
C59   C89   A    
C69   C71   S    
C75   N16   A    
C40   H38   S    
C74   H15   S    
C3    C55   A    
C81   N6    A    
C66   C72   S    
C37   H26   S    
C64   H40   S    
C69   H36   S    
C17   N11   A    
C49   C51   A    
C22   C25   A    
C4    C57   A    
C50   C52   A    
C88   H53   S    
C92   H61   S    
C77   H44   S    
C23   C80   A    
C31   H45   S    
N12   N16   A    
C80   N5    A    
C24   H10   S    
C44   C47   A    
C43   H28   S    
C2    H35   S    
N10   Ni2   S    
C41   N13   A    
C82   N7    A    
C22   C28   A    
N8    Ni4   S    
C40   C45   A    
C42   C44   A    
C32   C57   A    
C82   H49   S    
C35   C48   A    
N12   Ni3   S    
C7    H70   S    
C76   H43   S    
C52   C54   A    
C12   N9    A    
C5    C29   A    
N6    N11   A    
C62   C85   S    
C46   C48   A    
C50   C53   A    
C55   H51   S    
C25   C78   S    
C64   C67   A    
C29   C59   S    
C69   C74   S    
C8    H2    S    
C72   C74   S    
C91   C92   S    
C41   H39   S    
C78   C79   A    
C39   C43   A    
C56   C72   S    
C66   C73   S    
C87   H58   S    
C70   H37   S    
C51   C53   A    
C31   C60   A    
C90   H66   S    
N14   Ni4   S    
C41   C56   A    
C86   H60   S    
C16   N10   A    
C68   C90   S    
C38   C54   S    
C29   C60   A    
C10   H4    S    
C70   C73   S    
C8    C21   A    
C33   H22   S    
C50   H32   S    
C35   H24   S    
N4    N15   A    
C36   H25   S    
C9    C11   A    
N7    Ni3   S    
N2    Ni1   S    
N13   Ni4   S    
C4    C6    A    
C83   C85   A    
N6    Ni3   S    
C16   C23   A    
C82   C84   A    
C13   C15   A    
N1    Ni1   S    
C33   C47   A    
N9    Ni2   S    
C76   N2    A    
C1    C84   A    
C64   N14   A    
C17   C34   A    
C15   H6    S    
C61   H19   S    
C92   H62   S    
C2    C63   A    
C35   C37   A    
C14   H5    S    
C71   C73   S    
C20   H67   S    
C7    C9    A    
C9    H3    S    
C65   C78   A    
C57   H52   S    
C6    C30   A    
C86   C87   S    
C26   C28   A    
C8    C10   A    
C13   C27   S    
C3    C5    A    
C10   C13   A    
C17   H17   S    
C66   C86   S    
C83   H50   S    
N16   Ni2   S    
C19   H8    S    
C2    C58   A    
C38   C42   A    
N5    N10   A    
C32   H56   S    
C83   N8    A    
C25   C27   A    
C80   H47   S    
C59   C63   A    
C4    H34   S    
C63   C84   S    
C45   C75   A    
C36   C38   A    
C91   H64   S    
C37   C39   A    
C3    H23   S    
C86   H59   S    
C40   N12   A    
C90   C91   S    
C39   C53   S    
C65   N15   A    
C11   C28   S    
C68   C71   S    
N3    Ni1   S    
C30   C58   S    
C88   H55   S    
C92   H63   S    
C18   C20   A    
C87   H57   S    
C79   N4    A    
C90   H68   S    
N1    N7    A    
C43   C46   A    
C91   H65   S    
C60   H18   S    
C16   H16   S    
N5    Ni4   S    
C79   H46   S    
N4    Ni2   S    
C1    N1    A    
C1    H1    S    
C7    C20   A    
C18   H7    S    
C30   C61   A    
C68   C70   S    
C88   H54   S    
C46   H30   S    
C70   C72   S    
C31   C55   A    
C68   C74   S    
C34   C81   A    
C65   H41   S    
C49   C54   A    
C48   H21   S    
C21   H69   S    
