data_str_m2_o41_o41_f0_fof.sym.86
_audit_creation_date              2012-10-26T17:13:10-0400
_audit_creation_method            fapswitch 2.2
_symmetry_space_group_name_H-M    P1
_symmetry_Int_Tables_number       1
_space_group_crystal_system       triclinic
_cell_length_a                    16.870586
_cell_length_b                    16.765017
_cell_length_c                    16.945553
_cell_angle_alpha                 68.169186
_cell_angle_beta                  68.386086
_cell_angle_gamma                 67.47717
_cell_volume                      3964.56144701

loop_
_atom_site_label
_atom_site_type_symbol
_atom_type_description
_atom_site_fract_x
_atom_site_fract_y
_atom_site_fract_z
_atom_type_partial_charge
C1    C     C_R   0.313153 0.001570 0.436617 -0.138528
C2    C     C_R   0.700501 0.965377 0.575627 -0.044480
C3    C     C_R   0.000745 0.428654 0.315547 -0.151656
C4    C     C_R   0.987036 0.572471 0.691032 -0.071681
C5    C     C_R   0.433384 0.309677 0.009685 -0.151710
C6    C     C_R   0.547786 0.675107 0.056068 -0.142144
C7    C     C_R   0.566190 0.983169 0.696873 -0.151134
C8    C     C_R   0.450322 0.974803 0.317859 -0.053156
C9    C     C_R   0.675388 0.541340 0.065161 -0.038193
C10   C     C_R   0.314754 0.448819 0.985689 -0.039163
C11   C     C_R   0.045923 0.673015 0.551820 -0.027242
C12   C     C_R   0.944352 0.326152 0.453253 -0.117047
C13   C     C_R   0.457795 0.975279 0.459275 0.064853
C14   C     C_R   0.559936 0.966435 0.563268 0.063213
C15   C     C_R   0.983603 0.451106 0.456946 0.069828
C16   C     C_R   0.001528 0.549682 0.551007 0.074611
C17   C     C_R   0.450474 0.449196 0.008208 0.067290
C18   C     C_R   0.543040 0.538892 0.039565 0.067636
C19   C     C_R   0.028816 0.827880 0.564494 0.883017
C20   C     C_R   0.969956 0.171740 0.436179 0.801021
C21   C     C_R   0.828323 0.563184 0.032172 0.880683
C22   C     C_R   0.170754 0.434051 0.977603 0.836437
C23   C     C_R   0.568329 0.016288 0.831155 0.805792
C24   C     C_R   0.434063 0.977918 0.170528 0.806273
C25   C     C_R   0.431680 0.170061 0.982062 0.811085
C26   C     C_R   0.564761 0.828173 0.029463 0.797592
C27   C     C_R   0.981185 0.431347 0.170388 0.818760
C28   C     C_R   0.015197 0.569480 0.831070 0.876478
C29   C     C_R   0.169553 0.983899 0.431426 0.806801
C30   C     C_R   0.832384 0.011678 0.569797 0.855414
C31   C     C_R   0.407155 0.981184 0.405429 -0.041764
C32   C     C_R   0.608846 0.973297 0.611165 -0.047233
C33   C     C_R   0.974598 0.402882 0.408790 -0.020512
C34   C     C_R   0.012265 0.597831 0.597891 -0.077990
C35   C     C_R   0.401613 0.403511 0.996359 -0.039413
C36   C     C_R   0.589336 0.585231 0.052934 -0.047771
C37   C     C_R   0.265012 0.986482 0.391693 -0.225610
C38   C     C_R   0.741356 0.998891 0.612980 -0.195598
C39   C     C_R   0.978157 0.390509 0.267022 -0.223872
C40   C     C_R   0.013708 0.610690 0.736639 -0.187031
C41   C     C_R   0.392166 0.265713 0.984410 -0.224171
C42   C     C_R   0.598844 0.728010 0.051370 -0.226968
C43   C     C_R   0.609440 0.006702 0.739605 -0.220084
C44   C     C_R   0.398570 0.974892 0.266325 -0.218687
C45   C     C_R   0.728802 0.595217 0.055613 -0.196092
C46   C     C_R   0.266952 0.399694 0.974293 -0.218340
C47   C     C_R   0.042364 0.728338 0.600687 -0.176374
C48   C     C_R   0.951789 0.271226 0.402047 -0.242098
C49   C     C_R   0.480713 0.968673 0.735759 0.470880
C50   C     C_R   0.543135 0.969567 0.287486 0.464598
C51   C     C_R   0.083417 0.689392 0.459652 0.428447
C52   C     C_R   0.908526 0.307230 0.546412 0.446402
C53   C     C_R   0.702239 0.445658 0.090199 0.417564
C54   C     C_R   0.278394 0.539026 0.992839 0.421984
C55   C     C_R   0.271956 0.035710 0.512233 0.442739
C56   C     C_R   0.746228 0.922926 0.505793 0.399293
C57   C     C_R   0.501609 0.262734 0.053924 0.458680
C58   C     C_R   0.454846 0.708168 0.065483 0.432467
C59   C     C_R   0.053194 0.488134 0.274087 0.459820
C60   C     C_R   0.933105 0.513214 0.734714 0.451258
C61   C     C_R   0.310555 0.968943 0.308653 0.406572
C62   C     C_R   0.692442 0.023812 0.692558 0.415045
C63   C     C_R   0.953434 0.310830 0.312169 0.435838
C64   C     C_R   0.041254 0.689137 0.690190 0.381821
C65   C     C_R   0.312588 0.314473 0.960045 0.419242
C66   C     C_R   0.687385 0.685835 0.057176 0.402141
C67   C     C_R   0.697268 0.916518 0.456186 -0.162238
C68   C     C_R   0.321633 0.018010 0.571053 -0.122805
C69   C     C_R   0.927040 0.460105 0.689275 -0.177336
C70   C     C_R   0.054591 0.542130 0.319691 -0.151818
C71   C     C_R   0.416160 0.672617 0.031195 -0.109914
C72   C     C_R   0.557020 0.307279 0.054409 -0.137429
C73   C     C_R   0.593992 0.935205 0.348446 -0.205238
C74   C     C_R   0.425771 0.990869 0.681477 -0.111321
C75   C     C_R   0.333869 0.588870 0.981761 -0.122368
C76   C     C_R   0.652878 0.397324 0.082473 -0.181099
C77   C     C_R   0.917778 0.355267 0.594794 -0.114773
C78   C     C_R   0.076527 0.638893 0.412352 -0.163818
C79   C     C_R   0.737805 0.882143 0.381155 0.385580
C80   C     C_R   0.280128 0.028041 0.657587 0.410262
C81   C     C_R   0.888760 0.387892 0.734398 0.376822
C82   C     C_R   0.091747 0.613715 0.274188 0.460485
C83   C     C_R   0.333615 0.720605 0.010805 0.411847
C84   C     C_R   0.634270 0.258972 0.083836 0.414310
C85   C     C_R   0.687248 0.900262 0.322698 0.371844
C86   C     C_R   0.332257 0.013989 0.712677 0.379252
C87   C     C_R   0.297159 0.681231 0.977051 0.393193
C88   C     C_R   0.675293 0.302033 0.107651 0.386566
C89   C     C_R   0.889940 0.332531 0.687953 0.403904
C90   C     C_R   0.113121 0.653361 0.319960 0.361568
C91   C     C_R   0.551716 0.949334 0.431431 -0.052021
C92   C     C_R   0.466629 0.984202 0.595127 -0.078513
C93   C     C_R   0.954878 0.427914 0.549623 -0.081148
C94   C     C_R   0.031989 0.571437 0.458378 -0.071392
C95   C     C_R   0.416789 0.542041 0.999549 -0.054488
C96   C     C_R   0.577379 0.446089 0.048828 -0.076778
C97   C     C_R   0.603154 0.945079 0.483021 -0.060079
C98   C     C_R   0.415205 0.991331 0.542309 -0.084896
C99   C     C_R   0.460529 0.585835 0.019328 -0.087766
C100  C     C_R   0.529890 0.401102 0.034473 -0.088301
C101  C     C_R   0.962100 0.478460 0.596809 -0.063696
C102  C     C_R   0.022251 0.522312 0.411792 -0.101595
Cu1   Cu    Cu3+1 0.995180 0.995180 0.424630 1.003562
Cu2   Cu    Cu3+1 0.004820 0.004820 0.575370 1.031539
Cu3   Cu    Cu3+1 0.995180 0.424630 0.995180 1.065139
Cu4   Cu    Cu3+1 0.004820 0.575370 0.004820 1.007979
Cu5   Cu    Cu3+1 0.424630 0.995180 0.995180 1.021661
Cu6   Cu    Cu3+1 0.575370 0.004820 0.004820 1.056914
O1    O     O_R   0.124540 0.978640 0.385460 -0.524560
O2    O     O_R   0.875460 0.021360 0.614540 -0.519071
O3    O     O_R   0.978640 0.385460 0.124540 -0.525300
O4    O     O_R   0.021360 0.614540 0.875460 -0.547423
O5    O     O_R   0.385460 0.124540 0.978640 -0.534793
O6    O     O_R   0.614540 0.875460 0.021360 -0.527506
O7    O     O_R   0.614540 0.021360 0.875460 -0.534154
O8    O     O_R   0.385460 0.978640 0.124540 -0.526560
O9    O     O_R   0.875460 0.614540 0.021360 -0.553087
O10   O     O_R   0.124540 0.385460 0.978640 -0.539694
O11   O     O_R   0.021360 0.875460 0.614540 -0.553455
O12   O     O_R   0.978640 0.124540 0.385460 -0.537247
O13   O     O_R   0.013780 0.867370 0.487190 -0.567526
O14   O     O_R   0.986220 0.132630 0.512810 -0.543550
O15   O     O_R   0.867370 0.487190 0.013780 -0.548378
O16   O     O_R   0.132630 0.512810 0.986220 -0.567409
O17   O     O_R   0.487190 0.013780 0.867370 -0.579320
O18   O     O_R   0.512810 0.986220 0.132630 -0.511852
O19   O     O_R   0.512810 0.132630 0.986220 -0.562086
O20   O     O_R   0.487190 0.867370 0.013780 -0.581126
O21   O     O_R   0.986220 0.512810 0.132630 -0.572572
O22   O     O_R   0.013780 0.487190 0.867370 -0.551384
O23   O     O_R   0.132630 0.986220 0.512810 -0.578277
O24   O     O_R   0.867370 0.013780 0.487190 -0.609699
O25   O     O_3   0.268097 0.946572 0.267456 -0.536360
C103  C     C_3   0.287463 0.852367 0.292681 -0.171168
H1    H     H_    0.360294 0.819383 0.275814 0.095517
H2    H     H_    0.256937 0.833716 0.256827 0.244539
H3    H     H_    0.259022 0.826654 0.364512 0.164991
O26   O     O_3   0.727460 0.062809 0.726042 -0.535328
C104  C     C_3   0.690471 0.156639 0.700502 -0.221255
H4    H     H_    0.721025 0.188274 0.724259 0.236466
H5    H     H_    0.617494 0.176592 0.730777 0.112621
H6    H     H_    0.704601 0.183119 0.627517 0.118994
O27   O     O_3   0.937660 0.268000 0.266285 -0.535581
C105  C     C_3   0.845695 0.278261 0.291247 -0.223916
H7    H     H_    0.823262 0.238929 0.360223 0.114185
H8    H     H_    0.833196 0.251806 0.247756 0.238783
H9    H     H_    0.806020 0.350012 0.282682 0.169152
O28   O     O_3   0.061158 0.731077 0.734195 -0.535386
C106  C     C_3   0.154487 0.710620 0.714252 -0.260389
H10   H     H_    0.183663 0.738650 0.642992 0.137239
H11   H     H_    0.185873 0.636971 0.734489 0.132352
H12   H     H_    0.170415 0.741753 0.751845 0.195813
O29   O     O_3   0.276065 0.276284 0.927269 -0.535260
C107  C     C_3   0.299951 0.307490 0.834491 -0.305029
H13   H     H_    0.265339 0.282919 0.808006 0.174522
H14   H     H_    0.372831 0.281006 0.807137 0.137900
H15   H     H_    0.278774 0.382069 0.811378 0.132556
O30   O     O_3   0.735647 0.735103 0.059721 -0.542413
C108  C     C_3   0.728307 0.723458 0.148741 -0.207973
H16   H     H_    0.771376 0.758283 0.150767 0.212306
H17   H     H_    0.751841 0.651472 0.183836 0.118013
H18   H     H_    0.658756 0.753694 0.183597 0.150531
O31   O     O_3   0.290676 0.023878 0.796934 -0.580038
C109  C     C_3   0.278855 0.112318 0.795202 -0.255457
H19   H     H_    0.235428 0.161899 0.752008 0.164766
H20   H     H_    0.343741 0.127011 0.773979 0.149707
H21   H     H_    0.245504 0.120057 0.862957 0.198676
O32   O     O_3   0.725879 0.875248 0.244347 -0.589331
C110  C     C_3   0.793060 0.917257 0.188831 -0.261142
H22   H     H_    0.858725 0.873387 0.199590 0.192049
H23   H     H_    0.780506 0.984628 0.196552 0.163088
H24   H     H_    0.796493 0.926552 0.119477 0.170199
O33   O     O_3   0.172424 0.703617 0.273296 -0.556924
C111  C     C_3   0.259145 0.643787 0.264728 -0.184942
H25   H     H_    0.276210 0.610813 0.212167 0.184125
H26   H     H_    0.268335 0.592326 0.327815 0.122920
H27   H     H_    0.306873 0.682007 0.245974 0.198983
O34   O     O_3   0.863253 0.255709 0.735234 -0.555760
C112  C     C_3   0.938366 0.184393 0.753987 -0.179917
H28   H     H_    0.967495 0.196962 0.795924 0.161732
H29   H     H_    0.989716 0.171717 0.692490 0.197597
H30   H     H_    0.917185 0.122597 0.791242 0.164215
O35   O     O_3   0.737328 0.248977 0.155228 -0.569350
C113  C     C_3   0.691615 0.216251 0.243656 -0.296843
H31   H     H_    0.643939 0.181892 0.249729 0.182556
H32   H     H_    0.656356 0.271543 0.276384 0.158781
H33   H     H_    0.740594 0.165361 0.279790 0.165437
O36   O     O_3   0.236282 0.731783 0.926397 -0.620801
C114  C     C_3   0.159707 0.790008 0.968112 -0.318527
H34   H     H_    0.162271 0.860203 0.937574 0.184278
H35   H     H_    0.148817 0.773082 0.040396 0.238781
H36   H     H_    0.100862 0.786649 0.956131 0.156719
O37   O     O_3   0.188504 0.050984 0.689739 -0.537847
C115  C     C_3   0.162052 0.971638 0.727025 -0.213329
H37   H     H_    0.194244 0.924869 0.780445 0.158334
H38   H     H_    0.176758 0.937421 0.676070 0.166300
H39   H     H_    0.089082 0.989391 0.756484 0.156293
O38   O     O_3   0.826409 0.833964 0.362033 -0.597452
C116  C     C_3   0.832273 0.741944 0.395387 -0.274758
H40   H     H_    0.793557 0.722792 0.367993 0.161929
H41   H     H_    0.810609 0.722461 0.468696 0.184021
H42   H     H_    0.902663 0.703577 0.374848 0.174387
O39   O     O_3   0.668833 0.167658 0.093928 -0.543975
C117  C     C_3   0.724751 0.153218 0.011973 -0.223311
H43   H     H_    0.782102 0.180885 0.989954 0.159918
H44   H     H_    0.687453 0.182004 0.960773 0.153489
H45   H     H_    0.751848 0.080008 0.019490 0.167293
O40   O     O_3   0.283933 0.800281 0.033183 -0.564340
C118  C     C_3   0.304194 0.872867 0.962204 -0.102423
H46   H     H_    0.316007 0.862866 0.896904 0.191904
H47   H     H_    0.361769 0.886201 0.965406 0.245190
H48   H     H_    0.247065 0.933459 0.969175 0.170028
O41   O     O_3   0.103748 0.648639 0.184355 -0.509794
C119  C     C_3   0.020460 0.705445 0.169310 -0.273060
H49   H     H_    0.006582 0.771023 0.181044 0.156984
H50   H     H_    0.964131 0.676088 0.209925 0.143031
H51   H     H_    0.022572 0.717249 0.099928 0.156275
O42   O     O_3   0.859850 0.364475 0.825555 -0.544303
C120  C     C_3   0.766842 0.378112 0.851981 -0.285152
H52   H     H_    0.750626 0.318506 0.855582 0.193984
H53   H     H_    0.730777 0.439368 0.809122 0.126666
H54   H     H_    0.741508 0.387359 0.918910 0.176790
O43   O     O_3   0.461730 0.908552 0.816719 -0.731009
H55   H     H_    0.518178 0.872298 0.833586 0.317076
O44   O     O_3   0.574869 0.025623 0.208054 -0.617185
H56   H     H_    0.624465 0.041770 0.210235 0.360963
O45   O     O_3   0.134142 0.748329 0.418672 -0.743061
H57   H     H_    0.109635 0.792750 0.369239 0.369063
O46   O     O_3   0.855650 0.249923 0.590271 -0.683678
H58   H     H_    0.828870 0.247763 0.548243 0.287710
O47   O     O_3   0.769486 0.401196 0.131616 -0.731081
H59   H     H_    0.812417 0.355642 0.100418 0.375468
O48   O     O_3   0.197417 0.560927 0.051206 -0.609862
H60   H     H_    0.163148 0.621489 0.024343 0.368416
O49   O     O_3   0.189431 0.098423 0.522402 -0.663998
H61   H     H_    0.176803 0.127707 0.463846 0.312262
O50   O     O_3   0.835306 0.878182 0.495333 -0.696772
H62   H     H_    0.865751 0.899149 0.432460 0.372566
O51   O     O_3   0.502400 0.180179 0.113765 -0.626128
H63   H     H_    0.441594 0.173264 0.134461 0.309441
O52   O     O_3   0.399636 0.764865 0.118036 -0.691800
H64   H     H_    0.432546 0.762093 0.157281 0.290742
O53   O     O_3   0.117040 0.481951 0.196056 -0.619513
H65   H     H_    0.133855 0.420751 0.189493 0.307143
O54   O     O_3   0.878409 0.517107 0.817667 -0.688091
H66   H     H_    0.817540 0.524840 0.816673 0.324852

loop_
_geom_bond_atom_site_label_1
_geom_bond_atom_site_label_2
_ccdc_geom_bond_type
C68   C80   A    
Cu4   O21   S    
C115  H38   S    
O39   C117  S    
C9    C45   A    
C114  H36   S    
C18   C96   A    
C110  H22   S    
C6    C58   A    
C83   C87   A    
O31   C109  S    
C66   O30   S    
C12   C48   A    
C103  H3    S    
C55   C68   A    
C75   C95   A    
C10   C35   A    
Cu4   O4    S    
O41   C119  S    
C78   C90   A    
Cu1   O24   S    
C80   O37   S    
C90   O33   S    
C77   C89   A    
C83   O40   S    
C30   O2    A    
Cu6   O7    S    
C59   O53   S    
C109  H19   S    
O51   H63   S    
Cu5   O20   S    
C15   C33   A    
C106  H11   S    
C104  H6    S    
C95   C99   A    
C58   C71   A    
C115  H39   S    
Cu2   O14   S    
C3    C33   A    
C74   C92   A    
O53   H65   S    
C96   C100  A    
C1    C31   A    
C118  H48   S    
C23   C43   S    
C113  H31   S    
Cu3   O15   S    
C2    C32   A    
O52   H64   S    
C29   O23   A    
Cu6   O6    S    
C13   C98   A    
C114  H35   S    
O45   H57   S    
C54   O48   S    
C111  H25   S    
Cu5   O5    S    
C21   O9    A    
C16   C34   A    
C107  H15   S    
C11   C47   A    
C71   C83   A    
O29   C107  S    
O43   H55   S    
C27   C39   S    
O40   C118  S    
Cu2   O23   S    
C10   C46   A    
C116  H42   S    
C80   C86   A    
Cu5   Cu6   S    
C108  H17   S    
C43   C62   A    
O38   C116  S    
C17   C95   A    
C7    C43   A    
O48   H60   S    
C76   C88   A    
C107  H14   S    
C1    C37   A    
C23   O17   A    
C112  H30   S    
C81   C89   A    
C57   O51   S    
C115  H37   S    
Cu3   O3    S    
C73   C91   A    
C27   O3    A    
C60   O54   S    
C57   C72   A    
C79   O38   S    
O50   H62   S    
C64   O28   S    
C24   O18   A    
C110  H23   S    
C29   O1    A    
C105  H9    S    
C10   C54   A    
C11   C51   A    
C12   C52   A    
O44   H56   S    
C21   C45   S    
C109  H21   S    
C4    C34   A    
C92   C98   A    
C4    C40   A    
C56   O50   S    
C67   C79   A    
O28   C106  S    
C7    C49   A    
C46   C65   A    
C105  H8    S    
C61   O25   S    
C50   C73   A    
C93   C101  A    
C120  H52   S    
C3    C39   A    
C119  H49   S    
C88   O35   S    
C41   C65   A    
C59   C70   A    
O33   C111  S    
C71   C99   A    
C91   C97   A    
C23   O7    A    
C38   C62   A    
O36   C114  S    
C45   C66   A    
C21   O15   A    
C58   O52   S    
C8    C44   A    
O35   C113  S    
C26   O6    A    
C28   C40   S    
O46   H58   S    
C25   O5    A    
C9    C36   A    
C82   O41   S    
C2    C38   A    
Cu1   O12   S    
C37   C61   A    
C108  H16   S    
O47   H59   S    
C117  H45   S    
O49   H61   S    
C73   C85   A    
C4    C60   A    
C70   C102  A    
C118  H46   S    
C108  H18   S    
C111  H26   S    
C26   O20   A    
C89   O34   S    
C74   C86   A    
C111  H27   S    
C14   C92   A    
C107  H13   S    
C72   C84   A    
C112  H28   S    
C53   O47   S    
C84   O39   S    
C75   C87   A    
O32   C110  S    
C62   O26   S    
C13   C91   A    
C117  H44   S    
C24   O8    A    
Cu5   O17   S    
Cu4   O9    S    
C51   O45   S    
O25   C103  S    
C24   C44   S    
C110  H24   S    
Cu3   O10   S    
C106  H12   S    
C53   C76   A    
C9    C53   A    
C18   C99   A    
C25   C41   S    
C52   C77   A    
Cu1   O13   S    
C8    C50   A    
C20   O12   A    
C26   C42   S    
C14   C97   A    
C116  H41   S    
C72   C100  A    
C65   O29   S    
C22   O10   A    
C5    C41   A    
C19   O13   A    
C7    C32   A    
C20   C48   S    
C22   C46   S    
C8    C31   A    
C20   O14   A    
C13   C31   A    
C11   C34   A    
C15   C102  A    
C84   C88   A    
C55   O49   S    
C105  H7    S    
C48   C63   A    
C119  H51   S    
C82   C90   A    
C15   C93   A    
C103  H2    S    
C104  H4    S    
C47   C64   A    
C22   O16   A    
C87   O36   S    
C69   C101  A    
C44   C61   A    
C56   C67   A    
C39   C63   A    
Cu3   Cu4   S    
C103  H1    S    
C16   C94   A    
C40   C64   A    
C113  H33   S    
C5    C57   A    
Cu1   O1    S    
Cu2   O11   S    
C6    C36   A    
C109  H20   S    
C25   O19   A    
C51   C78   A    
C2    C56   A    
C106  H10   S    
C76   C96   A    
C120  H54   S    
Cu2   O2    S    
C104  H5    S    
C28   O22   A    
O42   C120  S    
O30   C108  S    
C60   C69   A    
C78   C94   A    
C27   O21   A    
C81   O42   S    
C5    C35   A    
C77   C93   A    
C118  H47   S    
C79   C85   A    
C113  H32   S    
C52   O46   S    
C119  H50   S    
C120  H53   S    
Cu6   O19   S    
C1    C55   A    
C114  H34   S    
C70   C82   A    
C17   C100  A    
C68   C98   A    
Cu5   O8    S    
C69   C81   A    
O26   C104  S    
C67   C97   A    
Cu3   O22   S    
C19   O11   A    
C54   C75   A    
C30   O24   A    
C16   C101  A    
C116  H40   S    
C14   C32   A    
C117  H43   S    
C85   O32   S    
O37   C115  S    
C6    C42   A    
C19   C47   S    
C29   C37   S    
Cu1   Cu2   S    
C42   C66   A    
Cu4   O16   S    
C63   O27   S    
C49   C74   A    
C50   O44   S    
C86   O31   S    
C17   C35   A    
C30   C38   S    
Cu6   O18   S    
C12   C33   A    
O54   H66   S    
C18   C36   A    
C28   O4    A    
C49   O43   S    
O27   C105  S    
C94   C102  A    
O34   C112  S    
C112  H29   S    
C3    C59   A    
