data_str_m9_o2_o19_f0_sra.sym.42
_audit_creation_date              2012-12-11T16:28:26-0500
_audit_creation_method            fapswitch 2.2
_symmetry_space_group_name_H-M    P1
_symmetry_Int_Tables_number       1
_space_group_crystal_system       triclinic
_cell_length_a                    17.078415
_cell_length_b                    7.250337
_cell_length_c                    14.787415
_cell_angle_alpha                 90.328952
_cell_angle_beta                  94.28093
_cell_angle_gamma                 90.806294
_cell_volume                      1825.70909024

loop_
_atom_site_label
_atom_site_type_symbol
_atom_type_description
_atom_site_fract_x
_atom_site_fract_y
_atom_site_fract_z
_atom_type_partial_charge
O1    O     O_R   0.663460 0.361760 0.165970 -0.525655
O2    O     O_R   0.336540 0.638240 0.834030 -0.525655
O3    O     O_R   0.836540 0.861760 0.334030 -0.541761
O4    O     O_R   0.163460 0.138240 0.665970 -0.541761
O5    O     O_R   0.827100 0.689870 0.163730 -0.525363
O6    O     O_R   0.172900 0.310130 0.836270 -0.525363
O7    O     O_R   0.672900 0.189870 0.336270 -0.546416
O8    O     O_R   0.327100 0.810130 0.663730 -0.546415
C1    C     C_R   0.854911 0.523827 0.145685 0.777852
C2    C     C_R   0.145089 0.476173 0.854315 0.777851
C3    C     C_R   0.645252 0.022988 0.354491 0.736825
C4    C     C_R   0.354748 0.977012 0.645509 0.736825
O9    O     O_R   0.663490 0.691370 0.155500 -0.544517
O10   O     O_R   0.336510 0.308630 0.844500 -0.544517
O11   O     O_R   0.836510 0.191370 0.344500 -0.529138
O12   O     O_R   0.163490 0.808630 0.655500 -0.529139
O13   O     O_R   0.671770 0.863320 0.325740 -0.521233
O14   O     O_R   0.328230 0.136680 0.674260 -0.521231
O15   O     O_R   0.828230 0.363320 0.174260 -0.531664
O16   O     O_R   0.171770 0.636680 0.825740 -0.531664
C5    C     C_R   0.637983 0.521492 0.131097 0.709307
C6    C     C_R   0.362017 0.478508 0.868903 0.709306
C7    C     C_R   0.862994 0.024556 0.368082 0.701920
C8    C     C_R   0.137006 0.975444 0.631918 0.701921
H1    H     H_    0.081373 0.390242 0.264398 0.133915
H2    H     H_    0.918626 0.609759 0.735601 0.133915
H3    H     H_    0.422184 0.251429 0.279183 0.138053
H4    H     H_    0.577816 0.748572 0.720817 0.138054
O17   O     O_3   0.752910 0.528800 0.305860 -0.376154
O18   O     O_3   0.247090 0.471200 0.694140 -0.376153
O19   O     O_3   0.747090 0.028800 0.194140 -0.371749
O20   O     O_3   0.252910 0.971200 0.805860 -0.371749
V1    V     V_3+5 0.749460 0.803010 0.239640 1.486932
V2    V     V_3+5 0.250540 0.196990 0.760360 1.486934
V3    V     V_3+5 0.750540 0.303010 0.260360 1.486231
V4    V     V_3+5 0.249460 0.696990 0.739640 1.486233
C9    C     C_1   0.469627 0.994700 0.531116 0.026066
C10   C     C_1   0.530373 0.005300 0.468884 0.026067
C11   C     C_1   0.030484 0.494092 0.969045 0.025006
C12   C     C_1   0.969516 0.505908 0.030955 0.025006
H5    H     H_    0.797133 0.687825 0.649130 0.147983
H6    H     H_    0.202867 0.312182 0.350870 0.147982
H7    H     H_    0.699017 0.738376 0.817277 0.128718
H8    H     H_    0.300983 0.261625 0.182723 0.128718
C13   C     C_R   0.009321 0.217420 0.342173 -0.148385
C14   C     C_R   0.990678 0.782579 0.657827 -0.148385
C15   C     C_R   0.492056 0.374263 0.180694 -0.145353
C16   C     C_R   0.507944 0.625737 0.819305 -0.145353
C17   C     C_R   0.079401 0.301501 0.322883 -0.145916
C18   C     C_R   0.920599 0.698500 0.677117 -0.145916
C19   C     C_R   0.423306 0.302331 0.210556 -0.122402
C20   C     C_R   0.576694 0.697669 0.789444 -0.122402
C21   C     C_R   0.147946 0.259841 0.373594 -0.122136
C22   C     C_R   0.852054 0.740163 0.626407 -0.122136
C23   C     C_R   0.355063 0.305901 0.154833 -0.160793
C24   C     C_R   0.644937 0.694099 0.845167 -0.160793
C25   C     C_R   0.147076 0.135419 0.445727 0.005429
C26   C     C_R   0.852924 0.864586 0.554273 0.005427
C27   C     C_R   0.354413 0.380439 0.067632 -0.068721
C28   C     C_R   0.645586 0.619561 0.932368 -0.068721
C29   C     C_R   0.073929 0.073554 0.477058 0.013680
C30   C     C_R   0.926071 0.926447 0.522942 0.013681
C31   C     C_R   0.426387 0.436748 0.030588 0.032573
C32   C     C_R   0.573613 0.563252 0.969412 0.032573
C33   C     C_R   0.004064 0.104970 0.419761 0.063382
C34   C     C_R   0.995936 0.895030 0.580239 0.063383
C35   C     C_R   0.496377 0.438433 0.090545 0.071173
C36   C     C_R   0.503623 0.561567 0.909454 0.071172
C37   C     C_R   0.068884 0.977861 0.560852 -0.146379
C38   C     C_R   0.931116 0.022139 0.439147 -0.146377
C39   C     C_R   0.430939 0.493340 0.938211 -0.171557
C40   C     C_R   0.569061 0.506660 0.061789 -0.171557
C41   C     C_1   0.417746 0.986107 0.583645 -0.141261
C42   C     C_1   0.582254 0.013893 0.416355 -0.141258
C43   C     C_1   0.082406 0.484754 0.916619 -0.103304
C44   C     C_1   0.917594 0.515246 0.083381 -0.103304
H9    H     H_    0.959957 0.244585 0.294832 0.124992
H10   H     H_    0.040042 0.755413 0.705167 0.124992
H11   H     H_    0.541381 0.378273 0.230648 0.118817
H12   H     H_    0.458619 0.621726 0.769352 0.118817
C45   C     C_2   0.222252 0.043622 0.469935 0.695722
O21   O     O_2   0.283690 0.132615 0.472063 -0.572781
O22   O     O_R   0.223490 0.851973 0.479925 -0.658717
H13   H     H_    0.278670 0.801850 0.486593 0.292978
C46   C     C_2   0.777749 0.956387 0.530066 0.695724
O23   O     O_2   0.716310 0.867399 0.527941 -0.572784
O24   O     O_R   0.776513 0.148035 0.520074 -0.658717
H14   H     H_    0.721333 0.198160 0.513406 0.292980
C47   C     C_2   0.275386 0.421700 0.026838 0.733032
O25   O     O_2   0.259338 0.580273 0.006305 -0.545513
O26   O     O_R   0.216305 0.285704 0.020496 -0.651769
H15   H     H_    0.236274 0.158171 0.036534 0.268047
C48   C     C_2   0.724614 0.578300 0.973162 0.733032
O27   O     O_2   0.740662 0.419727 0.993695 -0.545513
O28   O     O_R   0.783694 0.714295 0.979504 -0.651769
H16   H     H_    0.763725 0.841829 0.963465 0.268046

loop_
_geom_bond_atom_site_label_1
_geom_bond_atom_site_label_2
_ccdc_geom_bond_type
C26   C30   A    
O24   H14   S    
O1    C5    A    
C48   O27   D    
C23   C27   A    
O3    C7    A    
O28   H16   S    
C15   H11   S    
O6    V2    S    
C45   O21   D    
C46   O23   D    
O7    C3    A    
O5    C1    A    
C18   C22   A    
C32   C36   A    
C14   C34   A    
H2    C18   S    
H6    C21   S    
C10   C42   T    
O4    C8    A    
C34   C37   A    
O3    V1    S    
O2    V4    S    
C33   C38   A    
C30   C38   A    
C35   C40   A    
O8    V4    S    
O11   V3    S    
C9    C41   T    
C1    O15   A    
C27   C47   S    
C2    O16   A    
O5    V1    S    
O2    C6    A    
O19   V1    S    
C1    C44   S    
C11   C43   T    
C47   O26   S    
C28   C48   S    
O11   C7    A    
O12   C8    A    
C4    C41   S    
C7    C38   S    
O13   V1    S    
C15   C35   A    
C45   O22   S    
H3    C19   S    
C8    C37   S    
O4    V2    S    
C46   O24   S    
C31   C35   A    
C30   C34   A    
C5    C40   S    
O26   H15   S    
C14   H10   S    
C21   C25   A    
C15   C19   A    
C12   C44   T    
O20   V2    S    
O9    V1    S    
C9    C10   S    
C2    C43   S    
O22   H13   S    
C13   C17   A    
O8    C4    A    
O9    C5    A    
C16   C36   A    
O14   V2    S    
C31   C39   A    
C13   C33   A    
C25   C45   S    
C26   C46   S    
C6    C39   S    
C11   C12   S    
O1    V3    S    
C22   C26   A    
C29   C37   A    
C14   C18   A    
C3    O13   A    
O7    V3    S    
C3    C42   S    
O10   V2    S    
C25   C29   A    
O17   V3    S    
C27   C31   A    
O18   V4    S    
C28   C32   A    
O10   C6    A    
O15   V3    S    
O12   V4    S    
H4    C20   S    
H8    C23   S    
C16   H12   S    
C36   C39   A    
C17   C21   A    
C19   C23   A    
C32   C40   A    
H1    C17   S    
H5    C22   S    
O6    C2    A    
O16   V4    S    
C29   C33   A    
H7    C24   S    
C16   C20   A    
C24   C28   A    
C48   O28   S    
C4    O14   A    
C13   H9    S    
C47   O25   D    
C20   C24   A    
