data_str_m3_o10_o14_f0_pcu.sym.101
_audit_creation_date              2012-12-10T16:50:01-0500
_audit_creation_method            fapswitch 2.2
_symmetry_space_group_name_H-M    P1
_symmetry_Int_Tables_number       1
_space_group_crystal_system       triclinic
_cell_length_a                    7.784751
_cell_length_b                    8.568397
_cell_length_c                    10.615277
_cell_angle_alpha                 90.88276
_cell_angle_beta                  85.89655
_cell_angle_gamma                 93.641492
_cell_volume                      704.786050335

loop_
_atom_site_label
_atom_site_type_symbol
_atom_type_description
_atom_site_fract_x
_atom_site_fract_y
_atom_site_fract_z
_atom_type_partial_charge
C1    C     C_R   0.545721 0.794659 0.496705 0.931358
C2    C     C_R   0.454272 0.205333 0.503200 0.957266
C3    C     C_R   0.498179 0.501817 0.260740 0.855708
C4    C     C_R   0.411241 0.783785 0.877943 -0.288506
C5    C     C_R   0.358798 0.914699 0.948529 0.526722
C6    C     C_R   0.352098 0.909670 0.079850 -0.081262
C7    C     C_R   0.397493 0.776809 0.140605 -0.253974
C8    C     C_R   0.447530 0.642986 0.070606 0.057180
C9    C     C_R   0.454503 0.647044 0.938680 0.051838
C10   C     C_R   0.509036 0.514495 0.870942 -0.173977
C11   C     C_R   0.560853 0.383174 0.928943 -0.140781
C12   C     C_R   0.550984 0.375221 0.057806 0.447336
C13   C     C_R   0.494612 0.505630 0.128295 -0.204740
C14   C     C_2   0.569713 0.958184 0.494645 -0.365143
C15   C     C_2   0.430223 0.041778 0.504843 -0.413080
C16   C     C_R   0.502992 0.504839 0.739075 0.899360
H1    H     H_    0.602031 0.283034 0.873415 0.185234
H2    H     H_    0.548147 0.230274 0.198890 0.321508
H3    H     H_    0.986665 0.617765 0.594490 0.196441
H4    H     H_    0.419833 0.790735 0.776033 0.138182
H5    H     H_    0.312640 0.009940 0.135445 0.162391
H6    H     H_    0.393555 0.781222 0.242497 0.173611
H7    H     H_    0.701457 0.009241 0.484841 0.190174
H8    H     H_    0.298478 0.990709 0.514653 0.185248
H9    H     H_    0.013354 0.382262 0.405496 0.200422
H10   H     H_    0.327425 0.034726 0.799016 0.324589
N1    N     N_2   0.950330 0.457950 0.466250 -0.166836
N2    N     N_2   0.049670 0.542050 0.533750 -0.170195
O1    O     O_R   0.389250 0.738570 0.508280 -0.627521
O2    O     O_3   0.596291 0.238168 0.110281 -0.752715
O3    O     O_R   0.678390 0.711630 0.486650 -0.624081
O4    O     O_R   0.355400 0.513470 0.694050 -0.602089
O5    O     O_R   0.644540 0.486530 0.672420 -0.627020
O6    O     O_R   0.321610 0.288370 0.513350 -0.623999
O7    O     O_R   0.610750 0.261430 0.491720 -0.610909
O8    O     O_R   0.355460 0.513470 0.327580 -0.627064
O9    O     O_R   0.644600 0.486530 0.305950 -0.594949
O10   O     O_3   0.314690 0.049010 0.892031 -0.768660
Zn1   Zn    Zn3+2 0.306930 0.517990 0.514440 0.950327
Zn2   Zn    Zn3+2 0.693070 0.482010 0.485560 0.962606

loop_
_geom_bond_atom_site_label_1
_geom_bond_atom_site_label_2
_ccdc_geom_bond_type
C14   H7    S    
C2    O7    A    
C11   C12   A    
C6    C7    A    
H2    O2    S    
C16   O5    A    
H9    N1    S    
C7    H6    S    
C9    C10   A    
C3    C13   S    
N1    Zn2   S    
C2    O6    A    
C1    O1    A    
O7    Zn2   S    
C8    C9    A    
C7    C8    A    
C10   C16   S    
C5    O10   S    
C12   C13   A    
C2    C15   S    
O1    Zn1   S    
C8    C13   A    
C3    O8    A    
C15   H8    S    
O9    Zn2   S    
H3    N2    S    
C5    C6    A    
O5    Zn2   S    
C16   O4    A    
C10   C11   A    
O6    Zn1   S    
C4    H4    S    
C1    O3    A    
O3    Zn2   S    
C3    O9    A    
O4    Zn1   S    
N1    N2    D    
C14   C15   D    
C11   H1    S    
C1    C14   S    
N2    Zn1   S    
C12   O2    S    
C4    C9    A    
C6    H5    S    
O8    Zn1   S    
H10   O10   S    
C4    C5    A    
