data_str_m9_o2_o17_f0_sra.sym.38
_audit_creation_date              2012-12-11T16:26:27-0500
_audit_creation_method            fapswitch 2.2
_symmetry_space_group_name_H-M    P1
_symmetry_Int_Tables_number       1
_space_group_crystal_system       triclinic
_cell_length_a                    6.933262
_cell_length_b                    17.513743
_cell_length_c                    19.556692
_cell_angle_alpha                 108.387758
_cell_angle_beta                  89.400209
_cell_angle_gamma                 89.765326
_cell_volume                      2253.28076212

loop_
_atom_site_label
_atom_site_type_symbol
_atom_type_description
_atom_site_fract_x
_atom_site_fract_y
_atom_site_fract_z
_atom_type_partial_charge
O1    O     O_R   0.494330 0.415720 0.413720 -0.538905
O2    O     O_R   0.819330 0.430070 0.560210 -0.548362
O3    O     O_R   0.994320 0.584280 0.586280 -0.550086
C1    C     C_R   0.650256 0.412536 0.579924 0.719128
O4    O     O_R   0.823730 0.406300 0.412670 -0.539155
O5    O     O_R   0.998760 0.560340 0.437690 -0.550984
C2    C     C_R   0.655910 0.383212 0.385010 0.686698
O6    O     O_R   0.489890 0.439660 0.562310 -0.513056
O7    O     O_3   0.662340 0.550560 0.508380 -0.377817
V1    V     V_3+5 0.935370 0.490620 0.498450 1.412976
O8    O     O_R   0.328750 0.569930 0.439790 -0.540942
C3    C     C_R   0.160290 0.584492 0.417746 0.688821
O9    O     O_R   0.324340 0.593700 0.587330 -0.529419
C4    C     C_R   0.151910 0.621331 0.611627 0.696217
V2    V     V_3+5 0.435940 0.509380 0.501550 1.445162
O10   O     O_3   0.159100 0.449440 0.491620 -0.360469
C5    C     C_R   0.258210 0.592207 0.744765 0.007634
C6    C     C_R   0.379650 0.582119 0.797500 -0.155063
C7    C     C_R   0.412728 0.645345 0.858677 -0.162897
C8    C     C_R   0.318889 0.719060 0.870047 -0.003088
C9    C     C_R   0.214246 0.735388 0.812993 -0.006453
C10   C     C_R   0.199685 0.671236 0.746204 -0.008320
C11   C     C_R   0.132466 0.812563 0.818377 -0.157302
C12   C     C_R   0.079625 0.829275 0.754760 0.067854
C13   C     C_R   0.066011 0.766549 0.687599 0.031929
C14   C     C_R   0.131799 0.686827 0.682867 -0.175421
C15   C     C_R   0.049022 0.910073 0.757015 -0.143159
C16   C     C_R   0.012745 0.929732 0.695280 -0.255665
C17   C     C_R   0.985889 0.869785 0.630119 0.064598
C18   C     C_R   0.989892 0.788026 0.627853 0.098350
H1    H     H_    0.434714 0.523206 0.794847 0.159606
H2    H     H_    0.497623 0.634022 0.900819 0.143239
H3    H     H_    0.064877 0.960207 0.805899 0.118332
H4    H     H_    0.003154 0.992660 0.698785 0.114811
C19   C     C_R   0.304878 0.632889 0.321065 -0.206729
C20   C     C_R   0.151252 0.634234 0.368837 -0.081146
C21   C     C_R   0.988747 0.682776 0.369114 -0.152889
C22   C     C_R   0.982163 0.731532 0.324157 0.074956
C23   C     C_R   0.135495 0.728902 0.275570 0.031451
C24   C     C_R   0.296295 0.678558 0.273589 0.063985
C25   C     C_R   0.825775 0.783662 0.328002 -0.137439
C26   C     C_R   0.818882 0.833631 0.284150 0.156212
C27   C     C_R   0.968692 0.828891 0.232820 0.086929
C28   C     C_R   0.128121 0.776435 0.229044 -0.015742
C29   C     C_R   0.280835 0.771690 0.179054 0.084391
C30   C     C_R   0.438502 0.718416 0.175510 0.146590
C31   C     C_R   0.445593 0.673720 0.223719 -0.181066
C32   C     C_R   0.962813 0.874646 0.184829 -0.211732
C33   C     C_R   0.112856 0.870180 0.135031 -0.091725
C34   C     C_R   0.272624 0.820577 0.134136 -0.235968
H5    H     H_    0.429531 0.594793 0.319712 0.119703
H6    H     H_    0.868894 0.684039 0.405467 0.130348
H7    H     H_    0.709807 0.786382 0.366365 0.141767
H8    H     H_    0.842459 0.914542 0.185880 0.133084
H9    H     H_    0.390527 0.820283 0.097874 0.185502
H10   H     H_    0.567449 0.634030 0.221799 0.124270
C35   C     C_R   0.777705 0.181988 0.866949 -0.225589
C36   C     C_R   0.621680 0.131083 0.866409 -0.081171
C37   C     C_R   0.471984 0.125172 0.817087 -0.220418
C38   C     C_R   0.477105 0.169647 0.768655 0.103798
C39   C     C_R   0.633819 0.221219 0.769683 0.014014
C40   C     C_R   0.785600 0.228060 0.819369 0.078806
C41   C     C_R   0.326519 0.164229 0.719823 -0.170757
C42   C     C_R   0.329395 0.210088 0.672718 -0.182114
C43   C     C_R   0.483844 0.261670 0.673029 0.096707
C44   C     C_R   0.637197 0.266672 0.721418 0.041292
C45   C     C_R   0.793665 0.317403 0.721649 0.044175
C46   C     C_R   0.943512 0.324229 0.770679 -0.178928
C47   C     C_R   0.939997 0.281317 0.820411 0.146448
C48   C     C_R   0.487396 0.308810 0.626322 -0.133887
C49   C     C_R   0.643310 0.360363 0.627111 -0.065802
C50   C     C_R   0.796857 0.362072 0.673675 -0.223156
H11   H     H_    0.890689 0.186112 0.905667 0.134865
H12   H     H_    0.351407 0.085640 0.816261 0.120797
H13   H     H_    0.204813 0.125282 0.718773 0.121582
H14   H     H_    0.210155 0.205499 0.636294 0.128274
H15   H     H_    0.369552 0.305381 0.589487 0.130683
H16   H     H_    0.918286 0.399512 0.673560 0.161849
H17   H     H_    0.062372 0.364401 0.771001 0.160559
H18   H     H_    0.365860 0.147318 0.429103 0.113837
C51   C     C_R   0.797616 0.397491 0.249442 -0.147396
C52   C     C_R   0.863907 0.407111 0.185184 -0.123931
C53   C     C_R   0.849601 0.344333 0.120893 -0.117483
C54   C     C_R   0.768869 0.271412 0.120316 -0.131543
C55   C     C_R   0.701779 0.259413 0.184763 0.070953
C56   C     C_R   0.716515 0.323915 0.250832 0.069317
C57   C     C_R   0.617670 0.185280 0.183824 -0.184272
C58   C     C_R   0.548570 0.175913 0.249294 0.069051
C59   C     C_R   0.563188 0.240438 0.315362 0.072229
C60   C     C_R   0.647093 0.314623 0.316296 -0.184244
C61   C     C_R   0.468005 0.102238 0.250691 -0.150125
C62   C     C_R   0.401939 0.092569 0.314952 -0.126876
C63   C     C_R   0.416148 0.155360 0.379242 -0.118124
C64   C     C_R   0.496377 0.228378 0.379809 -0.131246
H19   H     H_    0.809772 0.448625 0.297735 0.108801
H20   H     H_    0.925650 0.463827 0.185259 0.116231
H21   H     H_    0.900164 0.352318 0.071043 0.110781
H22   H     H_    0.758207 0.225026 0.068662 0.099784
H23   H     H_    0.456128 0.051069 0.202406 0.110013
H24   H     H_    0.340517 0.035798 0.314884 0.128489
H25   H     H_    0.506928 0.274792 0.431451 0.094500
O11   O     O_R   0.775200 0.060470 0.937800 -0.546787
O12   O     O_R   0.441110 0.093720 0.087350 -0.541845
O13   O     O_R   0.266330 0.939630 0.062280 -0.536436
C65   C     C_R   0.608868 0.116752 0.115104 0.683460
O14   O     O_R   0.445750 0.069950 0.939820 -0.546034
O15   O     O_R   0.271000 0.915700 0.913700 -0.533128
C66   C     C_R   0.614239 0.084002 0.917387 0.699622
O16   O     O_R   0.770530 0.084400 0.086380 -0.541936
O17   O     O_3   0.602830 0.949510 0.991680 -0.335093
V3    V     V_3+5 0.329710 0.009370 0.001550 1.451646
O18   O     O_R   0.940990 0.906170 0.912570 -0.528531
C67   C     C_R   0.113320 0.879546 0.888046 0.671763
O19   O     O_R   0.936350 0.929940 0.060100 -0.536764
C68   C     C_R   0.104198 0.918089 0.084379 0.697251
V4    V     V_3+5 0.829160 0.990450 0.998310 1.470480
O20   O     O_3   0.105910 0.050480 0.008320 -0.377726
C69   C     C_2   0.952769 0.895561 0.565718 0.344286
H26   H     H_    0.907160 0.956907 0.572403 0.046472
O21   O     O_2   0.984427 0.850192 0.504920 -0.535493
C70   C     C_3   0.653226 0.892565 0.294441 -0.785044
H27   H     H_    0.574159 0.881959 0.243401 0.208607
H28   H     H_    0.548427 0.887154 0.335993 0.216510
H29   H     H_    0.709417 0.954941 0.311862 0.212522
C71   C     C_3   0.598394 0.706853 0.120090 -0.759034
H30   H     H_    0.537765 0.683234 0.065146 0.219060
H31   H     H_    0.670601 0.764835 0.126024 0.220535
H32   H     H_    0.710022 0.663621 0.125730 0.203021
C72   C     C_2   0.167598 0.518651 0.697823 0.338261
H33   H     H_    0.023286 0.521728 0.678540 0.051938
O22   O     O_2   0.248686 0.453523 0.683362 -0.555399
C73   C     C_3   0.099109 0.295096 0.874940 -0.779044
H34   H     H_    0.037490 0.321266 0.930088 0.199277
H35   H     H_    0.172206 0.237432 0.870778 0.213776
H36   H     H_    0.209924 0.337069 0.866634 0.214814
C74   C     C_2   0.333612 0.773883 0.943546 0.391601
H37   H     H_    0.203426 0.797411 0.973549 0.004459
O23   O     O_2   0.491063 0.789766 0.971684 -0.534312
C75   C     C_3   0.870837 0.730083 0.571018 -0.654577
H38   H     H_    0.763781 0.760992 0.546911 0.199647
H39   H     H_    0.966636 0.693857 0.527621 0.204283
H40   H     H_    0.781193 0.693334 0.595744 0.209574

loop_
_geom_bond_atom_site_label_1
_geom_bond_atom_site_label_2
_ccdc_geom_bond_type
C24   C31   A    
C57   C58   A    
C63   C64   A    
C25   C26   A    
C30   C71   S    
C7    C8    A    
C12   C15   A    
C1    O6    A    
O19   C68   A    
C35   C40   A    
C55   C56   A    
C15   H3    S    
C32   H8    S    
C17   C18   A    
O14   C66   A    
C38   C41   A    
C20   C21   A    
C45   C50   A    
C73   H36   S    
O5    C3    A    
C22   C23   A    
C51   H19   S    
C75   H40   S    
C43   C48   A    
V4    O20   S    
O12   V3    S    
C6    C7    A    
C35   H11   S    
C59   C64   A    
C69   H26   S    
O15   C67   A    
C70   H29   S    
C50   H16   S    
O16   V4    S    
O17   V3    S    
O8    V2    S    
C39   C44   A    
C19   C20   A    
C64   H25   S    
C46   C47   A    
C71   H32   S    
C11   C12   A    
O11   C66   A    
C48   C49   A    
O1    V2    S    
C3    C20   S    
C27   C32   A    
C51   C56   A    
C46   H17   S    
C44   C45   A    
C16   H4    S    
C37   C38   A    
O9    C4    A    
C48   H15   S    
C7    H2    S    
O18   C67   A    
C51   C52   A    
O14   V3    S    
C55   C57   A    
C52   H20   S    
C5    C72   S    
C45   C46   A    
C54   C55   A    
C12   C13   A    
C22   C25   A    
C74   O23   D    
C56   C60   A    
C59   C60   A    
C61   C62   A    
O4    C2    A    
C21   H6    S    
C73   H34   S    
C13   C14   A    
C29   C30   A    
C2    C60   S    
C52   C53   A    
C8    C74   S    
C40   C47   A    
C38   C39   A    
O2    C1    A    
C27   C28   A    
C21   C22   A    
C11   C67   S    
O13   C68   A    
C53   C54   A    
C57   C65   S    
C58   C61   A    
C75   H38   S    
C8    C9    A    
C5    C6    A    
C42   H14   S    
O12   C65   A    
C4    C14   S    
C37   H12   S    
C25   H7    S    
C70   H27   S    
O3    C4    A    
C32   C33   A    
C33   C68   S    
C43   C44   A    
O6    V2    S    
C9    C11   A    
C19   H5    S    
C71   H30   S    
C26   C27   A    
O2    V1    S    
O17   V4    S    
O18   V4    S    
C28   C29   A    
C62   H24   S    
C72   H33   S    
O7    V1    S    
C13   C18   A    
C65   O16   A    
C30   C31   A    
C16   C17   A    
C18   C75   S    
O1    C2    A    
O15   V3    S    
C34   H9    S    
C74   H37   S    
O5    V1    S    
O13   V3    S    
O19   V4    S    
O8    C3    A    
C23   C28   A    
C17   C69   S    
C5    C10   A    
V3    O20   S    
C54   H22   S    
C42   C43   A    
O9    V2    S    
C19   C24   A    
C36   C37   A    
O4    V1    S    
O3    V1    S    
V1    O10   S    
C75   H39   S    
C35   C36   A    
C41   H13   S    
C29   C34   A    
C47   C73   S    
C62   C63   A    
C36   C66   S    
O7    V2    S    
C39   C40   A    
C69   O21   D    
C70   H28   S    
O11   V4    S    
C10   C14   A    
C41   C42   A    
C23   C24   A    
C49   C50   A    
C58   C59   A    
C73   H35   S    
C33   C34   A    
C53   H21   S    
C15   C16   A    
C71   H31   S    
C6    H1    S    
C61   H23   S    
H18   C63   S    
C9    C10   A    
C1    C49   S    
V2    O10   S    
C26   C70   S    
C31   H10   S    
C72   O22   D    
