data_str_m4_o22_o22_f0_acs.sym.17
_audit_creation_date              2012-12-11T15:06:55-0500
_audit_creation_method            fapswitch 2.2
_symmetry_space_group_name_H-M    P1
_symmetry_Int_Tables_number       1
_space_group_crystal_system       triclinic
_cell_length_a                    19.817471
_cell_length_b                    11.283177
_cell_length_c                    18.713622
_cell_angle_alpha                 89.999236
_cell_angle_beta                  91.184019
_cell_angle_gamma                 89.999901
_cell_volume                      4183.54791322

loop_
_atom_site_label
_atom_site_type_symbol
_atom_type_description
_atom_site_fract_x
_atom_site_fract_y
_atom_site_fract_z
_atom_type_partial_charge
C1    C     C_R   0.761765 0.522121 0.638588 0.546694
C2    C     C_3   0.255050 0.053739 0.561856 0.029912
C3    C     C_R   0.738743 0.033188 0.150769 0.539450
C4    C     C_R   0.774900 0.133521 0.858960 0.531109
C5    C     C_R   0.224734 0.133910 0.140761 0.533317
C6    C     C_R   0.275265 0.633901 0.859237 0.533316
C7    C     C_R   0.725100 0.633521 0.141040 0.531105
C8    C     C_R   0.968211 0.353268 0.854394 0.544742
C9    C     C_R   0.029290 0.353179 0.147273 0.542806
C10   C     C_R   0.470710 0.853179 0.852727 0.542800
C11   C     C_R   0.531787 0.853269 0.145607 0.544746
C12   C     C_3   0.684184 0.126427 0.465685 -0.237130
C13   C     C_3   0.244952 0.553732 0.438144 0.029916
C14   C     C_3   0.315821 0.126419 0.534313 -0.237153
C15   C     C_3   0.184184 0.626427 0.465685 -0.237148
C16   C     C_3   0.815822 0.626419 0.534313 -0.237135
C17   C     C_3   0.688953 0.139942 0.547258 -0.228903
C18   C     C_3   0.311047 0.139945 0.452740 -0.228917
C19   C     C_3   0.188953 0.639942 0.547257 -0.228922
C20   C     C_3   0.811047 0.639945 0.452740 -0.228899
C21   C     C_3   0.756337 0.936013 0.481443 -0.230767
C22   C     C_3   0.243673 0.936016 0.518562 -0.230806
C23   C     C_3   0.256336 0.436013 0.481443 -0.230819
C24   C     C_3   0.755050 0.553739 0.561856 0.029908
C25   C     C_3   0.743672 0.436016 0.518561 -0.230754
C26   C     C_3   0.756518 0.086522 0.576231 0.048744
C27   C     C_3   0.243483 0.086516 0.423767 0.048681
C28   C     C_3   0.256518 0.586522 0.576231 0.048675
C29   C     C_3   0.743483 0.586516 0.423766 0.048751
C30   C     C_3   0.752147 0.953704 0.562899 -0.273412
C31   C     C_3   0.247855 0.953700 0.437103 -0.273365
C32   C     C_3   0.252147 0.453704 0.562899 -0.273369
C33   C     C_R   0.238233 0.522113 0.361413 0.546732
C34   C     C_3   0.747855 0.453699 0.437103 -0.273408
C35   C     C_3   0.817470 0.132464 0.533950 -0.215571
C36   C     C_3   0.182529 0.132457 0.466045 -0.215656
C37   C     C_3   0.317471 0.632464 0.533950 -0.215654
C38   C     C_3   0.682530 0.632458 0.466044 -0.215573
C39   C     C_3   0.015326 0.201114 0.463086 0.018111
C40   C     C_3   0.984680 0.201116 0.536921 0.017993
C41   C     C_3   0.515329 0.701114 0.463090 0.017995
C42   C     C_3   0.484683 0.701116 0.536925 0.018110
C43   C     C_3   0.065083 0.404568 0.478704 -0.272746
C44   C     C_R   0.261765 0.022120 0.638588 0.546734
C45   C     C_3   0.934935 0.404584 0.521298 -0.272824
C46   C     C_3   0.565085 0.904569 0.478707 -0.272843
C47   C     C_3   0.434937 0.904583 0.521301 -0.272728
C48   C     C_3   0.944993 0.384856 0.440891 0.195780
C49   C     C_3   0.055023 0.384846 0.559113 0.195822
C50   C     C_3   0.444995 0.884855 0.440894 0.195845
C51   C     C_3   0.555024 0.884848 0.559116 0.195757
C52   C     C_3   0.014610 0.329859 0.431926 0.048427
C53   C     C_3   0.985403 0.329862 0.568079 0.048056
C54   C     C_3   0.514612 0.829859 0.431928 0.048044
C55   C     C_R   0.738234 0.022113 0.361413 0.546692
C56   C     C_3   0.485405 0.829862 0.568082 0.048440
C57   C     C_3   0.813686 0.016646 0.046368 -0.222894
C58   C     C_3   0.182471 0.023366 0.952736 -0.230563
C59   C     C_3   0.317533 0.523371 0.047265 -0.230560
C60   C     C_3   0.686314 0.516647 0.953632 -0.222890
C61   C     C_R   0.772555 0.118082 0.651122 0.536033
C62   C     C_R   0.227447 0.118077 0.348876 0.536370
C63   C     C_R   0.272555 0.618082 0.651122 0.536376
C64   C     C_R   0.727447 0.618076 0.348876 0.536026
C65   C     C_3   0.819721 0.030968 0.967112 -0.229140
C66   C     C_3   0.805425 0.131833 0.453023 -0.227207
C67   C     C_3   0.181882 0.021595 0.033471 -0.238768
C68   C     C_3   0.318120 0.521589 0.966530 -0.238770
C69   C     C_3   0.680273 0.530983 0.032886 -0.229140
C70   C     C_3   0.683777 0.029391 0.028256 -0.220471
C71   C     C_3   0.310077 0.014784 0.971688 -0.228914
C72   C     C_3   0.189926 0.514775 0.028317 -0.228900
C73   C     C_3   0.816221 0.529381 0.971747 -0.220478
C74   C     C_3   0.752766 0.203360 0.061603 -0.258971
C75   C     C_3   0.256577 0.200847 0.939053 -0.253548
C76   C     C_3   0.243421 0.700844 0.060940 -0.253570
C77   C     C_3   0.194579 0.131845 0.546971 -0.227152
C78   C     C_3   0.747244 0.703356 0.938396 -0.258954
C79   C     C_3   0.746630 0.070145 0.074178 0.059517
C80   C     C_3   0.252529 0.068921 0.925492 0.060025
C81   C     C_3   0.247474 0.568921 0.074509 0.060028
C82   C     C_3   0.753371 0.570141 0.925823 0.059505
C83   C     C_3   0.760656 0.105153 0.935676 0.059816
C84   C     C_3   0.238538 0.104133 0.064017 0.059612
C85   C     C_3   0.261461 0.604117 0.935981 0.059609
C86   C     C_3   0.739343 0.605152 0.064324 0.059805
C87   C     C_3   0.697243 0.030541 0.946719 -0.256468
C88   C     C_3   0.305426 0.631832 0.453023 -0.227160
C89   C     C_3   0.305716 0.042812 0.052504 -0.245330
C90   C     C_3   0.194290 0.542780 0.947499 -0.245346
C91   C     C_3   0.802752 0.530529 0.053281 -0.256468
C92   C     C_3   0.749814 0.222490 0.979262 -0.220245
C93   C     C_3   0.240104 0.219091 0.018678 -0.237938
C94   C     C_3   0.259891 0.719076 0.981314 -0.237930
C95   C     C_3   0.750188 0.722489 0.020738 -0.220254
C96   C     C_3   0.995667 0.480475 0.042223 -0.231412
C97   C     C_3   0.991368 0.480268 0.961422 -0.227990
C98   C     C_3   0.508635 0.980274 0.038577 -0.227992
C99   C     C_3   0.694580 0.631846 0.546971 -0.227199
C100  C     C_3   0.504336 0.980485 0.957775 -0.231409
C101  C     C_3   0.065540 0.293122 0.029530 -0.221442
C102  C     C_3   0.937403 0.270600 0.972116 -0.215303
C103  C     C_3   0.562588 0.770595 0.027887 -0.215305
C104  C     C_3   0.434449 0.793150 0.970470 -0.221424
C105  C     C_3   0.943586 0.282173 0.054147 -0.257227
C106  C     C_3   0.057298 0.298503 0.947170 -0.262676
C107  C     C_3   0.442697 0.798520 0.052834 -0.262652
C108  C     C_3   0.556411 0.782174 0.945858 -0.257232
C109  C     C_R   0.964910 0.341859 0.643124 0.593326
C110  C     C_3   0.744952 0.053732 0.438144 0.029913
C111  C     C_R   0.035104 0.341859 0.356883 0.592375
C112  C     C_R   0.464911 0.841859 0.643125 0.592387
C113  C     C_R   0.535106 0.841859 0.356885 0.593312
C114  C     C_3   0.007598 0.352296 0.070613 0.060625
C115  C     C_3   0.988144 0.351536 0.931514 0.061081
C116  C     C_3   0.511853 0.851541 0.068488 0.061074
C117  C     C_3   0.492400 0.852304 0.929388 0.060639
C118  C     C_R   0.761259 0.533182 0.849232 0.539449
C119  C     C_R   0.238923 0.532924 0.150925 0.540935
C120  C     C_R   0.261079 0.032916 0.849078 0.540940
Cr1   Cr    Cr6+3 0.885690 0.492860 0.745310 1.008255
Cr2   Cr    Cr6+3 0.111880 0.178590 0.246990 1.040657
Cr3   Cr    Cr6+3 0.388120 0.678590 0.753010 1.040657
Cr4   Cr    Cr6+3 0.611880 0.678590 0.246990 1.041433
Cr5   Cr    Cr6+3 0.114310 0.492860 0.254690 1.007671
Cr6   Cr    Cr6+3 0.385690 0.992860 0.745310 1.007672
Cr7   Cr    Cr6+3 0.614310 0.992860 0.254690 1.008252
Cr8   Cr    Cr6+3 0.729880 0.332270 0.748190 1.019985
Cr9   Cr    Cr6+3 0.270120 0.332270 0.251810 1.020342
Cr10  Cr    Cr6+3 0.229880 0.832270 0.748190 1.020349
Cr11  Cr    Cr6+3 0.770120 0.832270 0.251810 1.019980
Cr12  Cr    Cr6+3 0.888120 0.178590 0.753010 1.041433
F1    F     F_    0.602959 0.811282 0.589114 -0.692468
F2    F     F_    0.397055 0.811293 0.410903 -0.692206
F3    F     F_    0.102957 0.311279 0.589110 -0.692222
F4    F     F_    0.897053 0.311295 0.410900 -0.692452
H1    H     H_    0.636591 0.088369 0.448511 0.146478
H2    H     H_    0.191342 0.906938 0.528640 0.141882
H3    H     H_    0.885782 0.281606 0.952512 0.109684
H4    H     H_    0.600653 0.829187 0.924436 0.109100
H5    H     H_    0.402222 0.851932 0.076884 0.110983
H6    H     H_    0.097775 0.351910 0.923130 0.110993
H7    H     H_    0.899351 0.329186 0.075579 0.109103
H8    H     H_    0.946478 0.193098 0.079375 0.119171
H9    H     H_    0.059986 0.208595 0.923624 0.114379
H10   H     H_    0.440009 0.708606 0.076380 0.114370
H11   H     H_    0.553521 0.693102 0.920628 0.119172
H12   H     H_    0.951473 0.178246 0.959035 0.124439
H13   H     H_    0.308674 0.406960 0.471374 0.141874
H14   H     H_    0.070084 0.199548 0.045894 0.132135
H15   H     H_    0.429895 0.699570 0.954105 0.132135
H16   H     H_    0.548511 0.678243 0.040967 0.124441
H17   H     H_    0.645686 0.094952 0.572092 0.121449
H18   H     H_    0.354316 0.094971 0.427900 0.121551
H19   H     H_    0.145686 0.594952 0.572092 0.121537
H20   H     H_    0.854317 0.594971 0.427900 0.121463
H21   H     H_    0.723210 0.865941 0.462858 0.114559
H22   H     H_    0.276814 0.865971 0.537144 0.114553
H23   H     H_    0.223209 0.365942 0.462858 0.114542
H24   H     H_    0.691342 0.406939 0.528640 0.141884
H25   H     H_    0.776813 0.365970 0.537144 0.114570
H26   H     H_    0.704443 0.918798 0.583723 0.195291
H27   H     H_    0.295556 0.918788 0.416274 0.195342
H28   H     H_    0.204442 0.418799 0.583723 0.195349
H29   H     H_    0.795555 0.418788 0.416274 0.195284
H30   H     H_    0.849833 0.097357 0.425791 0.216387
H31   H     H_    0.150168 0.097396 0.574218 0.216452
H32   H     H_    0.349834 0.597355 0.425790 0.216415
H33   H     H_    0.650169 0.597398 0.574217 0.216424
H34   H     H_    0.795490 0.222006 0.432861 0.188882
H35   H     H_    0.794109 0.906196 0.590912 0.128845
H36   H     H_    0.204525 0.222028 0.567117 0.188884
H37   H     H_    0.295490 0.722005 0.432860 0.188906
H38   H     H_    0.704526 0.722029 0.567117 0.188861
H39   H     H_    0.834452 0.219080 0.553561 0.111656
H40   H     H_    0.165545 0.219069 0.446429 0.111667
H41   H     H_    0.334453 0.719079 0.553560 0.111684
H42   H     H_    0.665545 0.719070 0.446429 0.111639
H43   H     H_    0.205888 0.906192 0.409100 0.128897
H44   H     H_    0.294109 0.406196 0.590912 0.128907
H45   H     H_    0.705888 0.406192 0.409099 0.128835
H46   H     H_    0.066157 0.180870 0.475387 0.149719
H47   H     H_    0.933847 0.180881 0.524625 0.149707
H48   H     H_    0.566160 0.680872 0.475392 0.149698
H49   H     H_    0.363411 0.088322 0.551476 0.146495
H50   H     H_    0.433850 0.680879 0.524630 0.149727
H51   H     H_    0.617537 0.889199 0.464412 0.132575
H52   H     H_    0.382483 0.889228 0.535596 0.132610
H53   H     H_    0.117536 0.389198 0.464409 0.132606
H54   H     H_    0.882481 0.389229 0.535593 0.132579
H55   H     H_    0.941258 0.471507 0.412890 0.144842
H56   H     H_    0.058760 0.471496 0.587113 0.144931
H57   H     H_    0.441259 0.971506 0.412892 0.144940
H58   H     H_    0.558761 0.971498 0.587116 0.144834
H59   H     H_    0.948079 0.498495 0.531409 0.074347
H60   H     H_    0.136591 0.588368 0.448511 0.146499
H61   H     H_    0.051946 0.498480 0.468590 0.074388
H62   H     H_    0.448080 0.998495 0.531411 0.074382
H63   H     H_    0.551947 0.998481 0.468593 0.074353
H64   H     H_    0.819392 0.922947 0.059312 0.137818
H65   H     H_    0.166983 0.934219 0.934451 0.140447
H66   H     H_    0.333029 0.434232 0.065557 0.140459
H67   H     H_    0.680616 0.422938 0.940696 0.137803
H68   H     H_    0.682811 0.215531 0.440700 0.112660
H69   H     H_    0.317210 0.215522 0.559308 0.112707
H70   H     H_    0.182811 0.715531 0.440699 0.112697
H71   H     H_    0.863411 0.588323 0.551476 0.146475
H72   H     H_    0.817210 0.715522 0.559307 0.112670
H73   H     H_    0.857529 0.059692 0.073827 0.122341
H74   H     H_    0.142314 0.082591 0.931766 0.119947
H75   H     H_    0.357686 0.582608 0.068229 0.119935
H76   H     H_    0.642471 0.559682 0.926165 0.122356
H77   H     H_    0.868697 0.070111 0.956434 0.131992
H78   H     H_    0.130432 0.045423 0.049626 0.133948
H79   H     H_    0.369569 0.545413 0.950369 0.133951
H80   H     H_    0.631301 0.570152 0.043555 0.131985
H81   H     H_    0.821053 0.942352 0.941257 0.119031
H82   H     H_    0.858576 0.067464 0.545374 0.164742
H83   H     H_    0.190077 0.930362 0.053492 0.120172
H84   H     H_    0.309927 0.430352 0.946516 0.120167
H85   H     H_    0.678925 0.442371 0.058748 0.119038
H86   H     H_    0.661997 0.946813 0.046683 0.108042
H87   H     H_    0.302668 0.922610 0.964620 0.105923
H88   H     H_    0.197325 0.422608 0.035407 0.105927
H89   H     H_    0.837994 0.446798 0.953316 0.108033
H90   H     H_    0.703816 0.939512 0.926114 0.112258
H91   H     H_    0.308464 0.960505 0.084837 0.103597
H92   H     H_    0.191550 0.460464 0.915178 0.103600
H93   H     H_    0.141422 0.067453 0.454624 0.164772
H94   H     H_    0.796169 0.439499 0.073882 0.112270
H95   H     H_    0.710901 0.251257 0.087637 0.113076
H96   H     H_    0.308155 0.233690 0.927674 0.122953
H97   H     H_    0.191842 0.733684 0.072319 0.122950
H98   H     H_    0.789120 0.751236 0.912368 0.113086
H99   H     H_    0.800510 0.237290 0.085349 0.111523
H100  H     H_    0.220155 0.249428 0.903736 0.108437
H101  H     H_    0.279841 0.749432 0.096253 0.108435
H102  H     H_    0.699503 0.737301 0.914643 0.111518
H103  H     H_    0.782294 0.293892 0.962851 0.107339
H104  H     H_    0.358577 0.567463 0.545373 0.164765
H105  H     H_    0.188800 0.247969 0.017374 0.112017
H106  H     H_    0.311196 0.747950 0.982614 0.112028
H107  H     H_    0.717684 0.793870 0.037132 0.107346
H108  H     H_    0.697781 0.251078 0.966281 0.119760
H109  H     H_    0.275014 0.283349 0.043148 0.128348
H110  H     H_    0.224980 0.783332 0.956841 0.128350
H111  H     H_    0.802221 0.751079 0.033732 0.119778
H112  H     H_    0.644598 0.097206 0.036821 0.117511
H113  H     H_    0.359487 0.042018 0.951690 0.126055
H114  H     H_    0.140519 0.542031 0.048306 0.126057
H115  H     H_    0.641423 0.567454 0.454623 0.164749
H116  H     H_    0.855404 0.597183 0.963181 0.117516
H117  H     H_    0.683417 0.233106 0.562154 0.146466
H118  H     H_    0.316572 0.233115 0.437850 0.146453
H119  H     H_    0.183418 0.733106 0.562153 0.146453
H120  H     H_    0.816573 0.733115 0.437850 0.146466
H121  H     H_    0.654350 0.070972 0.916588 0.114178
H122  H     H_    0.348186 0.101430 0.069628 0.124479
H123  H     H_    0.151817 0.601380 0.930364 0.124476
H124  H     H_    0.845647 0.570943 0.083415 0.114179
H125  H     H_    0.035191 0.544147 0.058908 0.134983
H126  H     H_    0.808674 0.906961 0.471375 0.141877
H127  H     H_    0.949034 0.534851 0.943346 0.135062
H128  H     H_    0.550970 0.034848 0.056656 0.135066
H129  H     H_    0.464814 0.044163 0.941088 0.134981
H130  H     H_    0.948736 0.516639 0.064305 0.115308
H131  H     H_    0.036352 0.526460 0.940146 0.117916
H132  H     H_    0.463653 0.026472 0.059853 0.117918
H133  H     H_    0.551270 0.016644 0.935691 0.115305
H134  H     H_    0.614213 0.781602 0.047495 0.109674
H135  H     H_    0.390893 0.841349 0.952206 0.106245
H136  H     H_    0.109099 0.341283 0.047798 0.106255
I1    I     I_    0.982504 0.051451 0.398101 -0.350500
I2    I     I_    0.017496 0.051444 0.601902 -0.349710
I3    I     I_    0.482509 0.551446 0.398108 -0.349712
I4    I     I_    0.517501 0.551448 0.601909 -0.350498
O1    O     O_R   0.957210 0.449410 0.665480 -0.543557
O2    O     O_R   0.167480 0.095300 0.164000 -0.531208
O3    O     O_R   0.332520 0.595300 0.836000 -0.531208
O4    O     O_R   0.667480 0.595300 0.164000 -0.531727
O5    O     O_R   0.946380 0.253940 0.826940 -0.504883
O6    O     O_R   0.053620 0.253940 0.173060 -0.506207
O7    O     O_R   0.446380 0.753940 0.826940 -0.506206
O8    O     O_R   0.553620 0.753940 0.173060 -0.504881
O9    O     O_3   0.834560 0.334570 0.748840 -0.295353
O10   O     O_3   0.165440 0.334570 0.251160 -0.294101
O11   O     O_3   0.334560 0.834570 0.748840 -0.294094
O12   O     O_R   0.042790 0.449410 0.334520 -0.544183
O13   O     O_3   0.665440 0.834570 0.251160 -0.295356
O14   O     O_R   0.820730 0.541240 0.668250 -0.516771
O15   O     O_R   0.179270 0.541240 0.331750 -0.516631
O16   O     O_R   0.320730 0.041240 0.668250 -0.516624
O17   O     O_R   0.679270 0.041240 0.331750 -0.516779
O18   O     O_R   0.714240 0.455060 0.663710 -0.504420
O19   O     O_R   0.285760 0.455060 0.336290 -0.504449
O20   O     O_R   0.214240 0.955060 0.663710 -0.504443
O21   O     O_R   0.785760 0.955060 0.336290 -0.504425
O22   O     O_R   0.736780 0.204870 0.675910 -0.513548
O23   O     O_R   0.457210 0.949410 0.665480 -0.544189
O24   O     O_R   0.263220 0.204870 0.324090 -0.513392
O25   O     O_R   0.236780 0.704870 0.675910 -0.513391
O26   O     O_R   0.763220 0.704870 0.324090 -0.513549
O27   O     O_R   0.833070 0.087590 0.673490 -0.512187
O28   O     O_R   0.166930 0.087590 0.326510 -0.512035
O29   O     O_R   0.333070 0.587590 0.673490 -0.512034
O30   O     O_R   0.666930 0.587590 0.326510 -0.512189
O31   O     O_R   0.946890 0.246800 0.676300 -0.465070
O32   O     O_R   0.053110 0.246800 0.323700 -0.465744
O33   O     O_R   0.446890 0.746800 0.676300 -0.465761
O34   O     O_R   0.542790 0.949410 0.334520 -0.543551
O35   O     O_R   0.553110 0.746800 0.323700 -0.465053
O36   O     O_R   0.956650 0.457120 0.827980 -0.528227
O37   O     O_R   0.043350 0.457120 0.172020 -0.529322
O38   O     O_R   0.456650 0.957120 0.827980 -0.529328
O39   O     O_R   0.543350 0.957120 0.172020 -0.528228
O40   O     O_R   0.820220 0.548390 0.818890 -0.509281
O41   O     O_R   0.179780 0.548390 0.181110 -0.509422
O42   O     O_R   0.320220 0.048390 0.818890 -0.509425
O43   O     O_R   0.679780 0.048390 0.181110 -0.509278
O44   O     O_R   0.713680 0.462770 0.826210 -0.523113
O45   O     O_R   0.736260 0.212010 0.826560 -0.511266
O46   O     O_R   0.286320 0.462770 0.173790 -0.523663
O47   O     O_R   0.213680 0.962770 0.826210 -0.523661
O48   O     O_R   0.786320 0.962770 0.173790 -0.523114
O49   O     O_R   0.263740 0.212010 0.173440 -0.511493
O50   O     O_R   0.236260 0.712010 0.826560 -0.511494
O51   O     O_R   0.763740 0.712010 0.173440 -0.511263
O52   O     O_R   0.832520 0.095300 0.836000 -0.531727

loop_
_geom_bond_atom_site_label_1
_geom_bond_atom_site_label_2
_ccdc_geom_bond_type
C92   H103  S    
C19   H19   S    
Cr11  O26   S    
C3    C79   S    
C21   C110  S    
Cr7   O13   S    
Cr8   O18   S    
C6    C85   S    
C1    O18   A    
Cr2   O28   S    
C9    C114  S    
C90   H92   S    
C68   H84   S    
Cr1   O1    S    
C98   H132  S    
Cr3   O3    S    
C72   H88   S    
Cr10  O20   S    
C74   C92   S    
C91   H124  S    
C76   C94   S    
C88   H32   S    
C2    C22   S    
C47   H62   S    
C3    O43   A    
C97   C115  S    
C64   O30   A    
C25   C34   S    
C73   H116  S    
C42   I4    S    
Cr12  O5    S    
C23   H13   S    
C29   C64   S    
C17   H17   S    
C78   H102  S    
C96   C114  S    
C11   O8    A    
C106  H6    S    
C100  H133  S    
C96   H130  S    
C101  H136  S    
C57   H73   S    
C84   C93   S    
C112  O23   A    
C91   H94   S    
C27   C31   S    
C103  H134  S    
C28   C32   S    
C50   F2    S    
Cr10  O11   S    
C35   C66   S    
C118  O44   A    
C119  O41   A    
C76   H101  S    
C13   C33   S    
C78   C82   S    
C16   C20   S    
C119  O46   A    
C43   H61   S    
C66   C110  S    
C60   H76   S    
C33   O19   A    
C93   H109  S    
C103  H16   S    
C15   H60   S    
C19   H119  S    
C74   C79   S    
Cr10  O25   S    
C30   H26   S    
Cr12  O31   S    
Cr6   O38   S    
C75   C93   S    
Cr6   O42   S    
C104  C117  S    
C53   C109  S    
C14   H49   S    
C5    O49   A    
C70   C79   S    
C74   H95   S    
C85   C90   S    
C81   C119  S    
C61   O27   A    
C106  C115  S    
C36   C77   S    
C35   H39   S    
C103  C116  S    
C104  H135  S    
C65   H81   S    
C99   H38   S    
Cr1   O36   S    
C49   C53   S    
C69   H85   S    
C102  H3    S    
C2    C14   S    
C15   H70   S    
C86   C95   S    
C97   H127  S    
C28   C63   S    
C98   H128  S    
C26   C35   S    
C48   C52   S    
C44   O20   A    
C32   H44   S    
C100  C117  S    
C71   H113  S    
C104  C107  S    
Cr7   O39   S    
C112  O33   A    
Cr4   O30   S    
C87   H121  S    
C12   C110  S    
Cr4   O4    S    
C18   H118  S    
C113  O35   A    
C102  C105  S    
C50   H57   S    
C43   C52   S    
C7    C86   S    
Cr9   O19   S    
C4    O52   A    
C13   C23   S    
Cr4   O35   S    
C6    O50   A    
C68   H79   S    
C48   H55   S    
C95   H111  S    
C97   H131  S    
C38   H115  S    
C2    C44   S    
Cr12  O27   S    
C23   H23   S    
C29   C38   S    
C111  O12   A    
C41   H48   S    
C107  H5    S    
C34   H29   S    
C107  H10   S    
Cr11  O48   S    
C41   I3    S    
Cr7   O17   S    
C40   H47   S    
C49   F3    S    
C45   C53   S    
Cr2   O32   S    
C68   C85   S    
C69   H80   S    
C70   C87   S    
Cr2   O2    S    
C59   H75   S    
C47   C50   S    
C9    O37   A    
Cr4   O8    S    
Cr11  O13   S    
C39   C40   S    
C5    C84   S    
Cr6   O23   S    
C46   C51   S    
C27   C62   S    
C72   C90   S    
C58   C67   S    
Cr12  O9    S    
C78   H98   S    
C87   H90   S    
C8    O36   A    
C75   H100  S    
C19   C28   S    
Cr5   O15   S    
Cr6   O16   S    
C26   C30   S    
C7    O51   A    
C4    O45   A    
C101  C106  S    
C118  O40   A    
C108  C117  S    
C48   F4    S    
C5    O2    A    
C109  O1    A    
C77   H31   S    
C37   H41   S    
C109  O31   A    
C62   O28   A    
C67   H83   S    
C55   C110  S    
C10   C117  S    
C93   H105  S    
C59   H66   S    
C46   H63   S    
C60   C69   S    
C32   H28   S    
C9    O6    A    
C12   H68   S    
C75   H96   S    
C107  C116  S    
C39   H46   S    
C55   O17   A    
C45   H54   S    
Cr12  O52   S    
C1    C24   S    
C67   H78   S    
C74   H99   S    
C70   H112  S    
C47   C56   S    
C83   C87   S    
C41   C42   S    
C37   C88   S    
C16   H71   S    
C105  H8    S    
C49   H56   S    
Cr1   O40   S    
C15   C19   S    
C50   C54   S    
C106  H9    S    
Cr1   O14   S    
C26   C61   S    
Cr8   O9    S    
C86   C91   S    
C6    O3    A    
C101  H14   S    
Cr8   O45   S    
C34   H45   S    
C14   C18   S    
Cr5   O41   S    
C102  C115  S    
C42   C56   S    
Cr10  O50   S    
C55   O21   A    
Cr7   O43   S    
C36   H93   S    
Cr8   O44   S    
C12   C17   S    
C46   H51   S    
C20   H20   S    
C72   C81   S    
C58   C80   S    
C39   I1    S    
C101  C114  S    
C90   H123  S    
C20   H120  S    
C89   H122  S    
C64   O26   A    
Cr4   O13   S    
C37   H104  S    
C22   H22   S    
C29   C34   S    
C31   H43   S    
C10   O7    A    
Cr11  O51   S    
C78   C95   S    
C46   C54   S    
C25   H24   S    
Cr3   O33   S    
Cr1   O9    S    
C11   C116  S    
C94   H110  S    
Cr3   O11   S    
C10   O38   A    
C36   H40   S    
C98   C100  S    
C7    O4    A    
C73   C82   S    
Cr10  O47   S    
C45   C48   S    
Cr7   O34   S    
Cr5   O10   S    
Cr9   O49   S    
C59   C81   S    
C57   C65   S    
C38   C99   S    
C27   C36   S    
C21   C30   S    
C22   H2    S    
C113  O34   A    
C23   C32   S    
C2    C77   S    
C4    C83   S    
C77   H36   S    
C70   H86   S    
C1    O14   A    
Cr2   O10   S    
C14   H69   S    
Cr11  O21   S    
C72   H114  S    
C45   H59   S    
C80   C120  S    
C96   H125  S    
C38   H42   S    
C24   C99   S    
C62   O24   A    
C57   C79   S    
C63   O29   A    
C65   H77   S    
C83   C92   S    
C17   H117  S    
C17   C26   S    
C28   C37   S    
C104  H15   S    
Cr9   O10   S    
C65   C83   S    
C120  O47   A    
C100  H129  S    
C54   C113  S    
C51   C56   S    
C8    C115  S    
C102  H12   S    
C60   C82   S    
C58   H65   S    
C103  C108  S    
C120  O42   A    
C75   C80   S    
C108  H11   S    
C42   H50   S    
C39   C52   S    
Cr5   O12   S    
C67   C84   S    
C16   C24   S    
Cr6   O11   S    
C89   H91   S    
C71   C80   S    
C33   O15   A    
C20   C29   S    
C58   H74   S    
C111  O32   A    
C51   F1    S    
C31   H27   S    
C71   H87   S    
C22   C31   S    
C66   H30   S    
C105  C114  S    
C24   C25   S    
C73   C91   S    
Cr5   O37   S    
C25   H25   S    
C108  H4    S    
C43   C49   S    
C52   C111  S    
C88   H37   S    
C59   C68   S    
Cr2   O6    S    
C85   C94   S    
C21   H126  S    
C60   H67   S    
C98   C116  S    
C3    O48   A    
C71   C89   S    
C40   I2    S    
C96   C97   S    
C41   C54   S    
C76   H97   S    
C63   O25   A    
C13   C15   S    
C57   H64   S    
C84   C89   S    
C35   H82   S    
C61   O22   A    
C44   O16   A    
C21   H21   S    
C66   H34   S    
C18   C27   S    
C16   H72   S    
C51   H58   S    
C18   H18   S    
C76   C81   S    
C105  H7    S    
Cr8   O22   S    
C99   H33   S    
Cr9   O24   S    
Cr3   O29   S    
Cr9   O46   S    
C94   H106  S    
Cr3   O7    S    
C73   H89   S    
C8    O5    A    
C92   H108  S    
C11   O39   A    
C13   C88   S    
C30   H35   S    
C43   H53   S    
C40   C53   S    
C82   C118  S    
C12   H1    S    
C47   H52   S    
C56   C112  S    
C69   C86   S    
C95   H107  S    
