data_str_m2_o9_o21_f0_pcu.sym.37
_audit_creation_date              2012-10-26T21:25:53-0400
_audit_creation_method            fapswitch 2.2
_symmetry_space_group_name_H-M    P1
_symmetry_Int_Tables_number       1
_space_group_crystal_system       triclinic
_cell_length_a                    10.839194
_cell_length_b                    10.813234
_cell_length_c                    12.730986
_cell_angle_alpha                 92.986912
_cell_angle_beta                  93.011818
_cell_angle_gamma                 89.051772
_cell_volume                      1487.92923138

loop_
_atom_site_label
_atom_site_type_symbol
_atom_type_description
_atom_site_fract_x
_atom_site_fract_y
_atom_site_fract_z
_atom_type_partial_charge
C1    C     C_R   0.261999 0.497210 0.500466 0.538068
C2    C     C_R   0.802152 0.751764 0.382308 -0.157153
C3    C     C_R   0.133130 0.354480 0.653752 0.025147
C4    C     C_R   0.866871 0.645520 0.346248 0.025147
C5    C     C_R   0.125251 0.380028 0.762461 -0.171545
C6    C     C_R   0.874752 0.619975 0.237539 -0.171546
C7    C     C_R   0.180775 0.299860 0.834150 -0.061182
C8    C     C_R   0.819230 0.700144 0.165850 -0.061182
C9    C     C_R   0.243041 0.193098 0.797789 0.508682
C10   C     C_R   0.756961 0.806906 0.202212 0.508681
C11   C     C_R   0.939008 0.441414 0.576948 -0.149158
C12   C     C_R   0.738001 0.502790 0.499534 0.538067
C13   C     C_R   0.060992 0.558586 0.423052 -0.149159
C14   C     C_R   0.871656 0.504860 0.499396 0.005263
C15   C     C_R   0.128344 0.495140 0.500604 0.005263
C16   C     C_R   0.504660 0.261980 0.500838 0.538337
C17   C     C_R   0.495340 0.738020 0.499162 0.538336
C18   C     C_R   0.932749 0.565721 0.422390 -0.009754
C19   C     C_R   0.067251 0.434278 0.577610 -0.009754
C20   C     C_2   0.478383 0.456686 0.030919 0.321467
C21   C     C_2   0.521616 0.543314 0.969081 0.321467
C22   C     C_1   0.520450 0.528066 0.852821 0.252224
C23   C     C_R   0.495604 0.871520 0.497542 -0.000465
C24   C     C_1   0.479549 0.471934 0.147179 0.252224
C25   C     C_R   0.887235 0.151234 0.707550 -0.137065
C26   C     C_R   0.112767 0.848764 0.292449 -0.137064
C27   C     C_R   0.797875 0.108451 0.631896 -0.171406
C28   C     C_R   0.202126 0.891548 0.368103 -0.171406
C29   C     C_R   0.671822 0.122832 0.650532 0.037218
C30   C     C_R   0.328179 0.877168 0.349467 0.037219
C31   C     C_R   0.636738 0.180062 0.746385 0.467123
C32   C     C_R   0.363264 0.819939 0.253615 0.467124
C33   C     C_R   0.726530 0.225664 0.820619 -0.045786
C34   C     C_R   0.504396 0.128480 0.502458 -0.000464
C35   C     C_R   0.273473 0.774337 0.179380 -0.045785
C36   C     C_R   0.851674 0.210772 0.801446 -0.166137
C37   C     C_R   0.148328 0.789226 0.198552 -0.166137
C38   C     C_R   0.573965 0.934957 0.571737 -0.140460
C39   C     C_R   0.426035 0.065043 0.428263 -0.140459
C40   C     C_R   0.420471 0.936765 0.424705 0.002124
C41   C     C_R   0.579529 0.063235 0.575295 0.002124
C42   C     C_R   0.252021 0.167589 0.689599 -0.042955
C43   C     C_R   0.747979 0.832411 0.310403 -0.042953
C44   C     C_R   0.197846 0.248235 0.617693 -0.157155
Cu1   Cu    Cu3+1 0.492140 0.492110 0.395880 1.044088
Cu2   Cu    Cu3+1 0.507860 0.507890 0.604120 1.044087
F1    F     F_    0.566845 0.650675 0.014979 -0.605305
F2    F     F_    0.433154 0.349324 0.985021 -0.605304
F3    F     F_    0.516280 0.189099 0.769182 -0.567977
F4    F     F_    0.483722 0.810904 0.230818 -0.567978
F5    F     F_    0.294451 0.114105 0.867467 -0.532902
F6    F     F_    0.705552 0.885900 0.132535 -0.532904
H1    H     H_    0.920918 0.244055 0.859947 0.128620
H2    H     H_    0.796251 0.773552 0.465929 0.103220
H3    H     H_    0.075118 0.461160 0.791487 0.125106
H4    H     H_    0.924887 0.538844 0.208512 0.125106
H5    H     H_    0.891023 0.393520 0.634986 0.140476
H6    H     H_    0.108977 0.606479 0.365014 0.140476
H7    H     H_    0.983967 0.137230 0.693574 0.135496
H8    H     H_    0.016034 0.862767 0.306424 0.135496
H9    H     H_    0.699160 0.270346 0.894023 0.159575
H10   H     H_    0.300844 0.729655 0.105976 0.159576
H11   H     H_    0.300186 0.084900 0.661363 0.154064
H12   H     H_    0.079086 0.755943 0.140051 0.128619
H13   H     H_    0.699812 0.915099 0.338639 0.154065
H14   H     H_    0.173843 0.319630 0.917870 0.160818
H15   H     H_    0.826164 0.680378 0.082131 0.160816
H16   H     H_    0.826804 0.061363 0.559893 0.113449
H17   H     H_    0.173196 0.938634 0.440105 0.113449
H18   H     H_    0.633087 0.883943 0.626261 0.146675
H19   H     H_    0.366913 0.116057 0.373739 0.146675
H20   H     H_    0.203746 0.226444 0.534072 0.103220
N1    N     N_1   0.480320 0.480250 0.239400 -0.185620
N2    N     N_1   0.519680 0.519750 0.760600 -0.185620
O1    O     O_R   0.313000 0.493330 0.412070 -0.517716
O2    O     O_R   0.687000 0.506670 0.587930 -0.517716
O3    O     O_R   0.326280 0.506660 0.587930 -0.481524
O4    O     O_R   0.673720 0.493340 0.412070 -0.481523
O5    O     O_R   0.493370 0.312980 0.412070 -0.501221
O6    O     O_R   0.506630 0.687020 0.587930 -0.501221
O7    O     O_R   0.506650 0.326310 0.587930 -0.461909
O8    O     O_R   0.493350 0.673690 0.412070 -0.461911

loop_
_geom_bond_atom_site_label_1
_geom_bond_atom_site_label_2
_ccdc_geom_bond_type
Cu2   O6    S    
C38   H18   S    
C27   C29   A    
C1    O3    A    
C14   C18   A    
Cu1   O8    S    
C9    F5    S    
C10   F6    S    
Cu2   O2    S    
Cu1   Cu2   S    
C15   C19   A    
C11   C19   A    
C9    C42   A    
C17   C23   S    
C13   C18   A    
C35   C37   A    
C11   C14   A    
C24   N1    T    
C23   C40   A    
C33   C36   A    
Cu1   N1    S    
C17   O8    A    
C36   H1    S    
C16   C34   S    
C20   C24   S    
C12   O4    A    
C31   C33   A    
C3    C19   S    
Cu1   O4    S    
C1    C15   S    
C4    C18   S    
C21   C22   S    
C34   C41   A    
C42   C44   A    
C31   F3    S    
C3    C44   A    
C34   C39   A    
C1    O1    A    
C32   C35   A    
C38   C41   A    
C4    C6    A    
C2    H2    S    
C39   C40   A    
C5    C7    A    
C6    C8    A    
C13   H6    S    
C17   O6    A    
C2    C4    A    
Cu2   O7    S    
C2    C43   A    
C43   H13   S    
C28   H17   S    
C30   C40   S    
Cu1   O5    S    
C32   F4    S    
C20   F2    S    
C8    C10   A    
C12   C14   S    
C13   C15   A    
C12   O2    A    
C22   N2    T    
Cu2   N2    S    
C37   H12   S    
C7    C9    A    
C29   C41   S    
C10   C43   A    
C5    H3    S    
C6    H4    S    
C3    C5    A    
Cu2   O3    S    
C26   C37   A    
C25   C27   A    
C23   C38   A    
C26   C28   A    
Cu1   O1    S    
C16   O5    A    
C28   C30   A    
C29   C31   A    
C7    H14   S    
C30   C32   A    
C27   H16   S    
C16   O7    A    
C44   H20   S    
C35   H10   S    
C25   C36   A    
C20   C21   D    
C8    H15   S    
C33   H9    S    
C39   H19   S    
C25   H7    S    
C11   H5    S    
C26   H8    S    
C42   H11   S    
C21   F1    S    
