data_str_m2_o4_o17_f0_pcu.sym.132
_audit_creation_date              2012-12-10T19:00:43-0500
_audit_creation_method            fapswitch 2.2
_symmetry_space_group_name_H-M    P1
_symmetry_Int_Tables_number       1
_space_group_crystal_system       triclinic
_cell_length_a                    15.036027
_cell_length_b                    10.879067
_cell_length_c                    9.623834
_cell_angle_alpha                 90.104211
_cell_angle_beta                  89.133902
_cell_angle_gamma                 92.121516
_cell_volume                      1572.98696127

loop_
_atom_site_label
_atom_site_type_symbol
_atom_type_description
_atom_site_fract_x
_atom_site_fract_y
_atom_site_fract_z
_atom_type_partial_charge
C1    C     C_R   0.502496 0.262720 0.500377 0.778011
C2    C     C_R   0.908821 0.609646 0.464219 0.068548
C3    C     C_R   0.946676 0.281178 0.541405 -0.301120
C4    C     C_R   0.039392 0.279817 0.530495 0.456891
C5    C     C_R   0.089494 0.391529 0.518050 0.028737
C6    C     C_R   0.046162 0.502391 0.496893 -0.107455
C7    C     C_R   0.096126 0.613683 0.474160 0.017907
C8    C     C_R   0.050358 0.724214 0.459461 0.476144
C9    C     C_R   0.958022 0.719767 0.444124 -0.326819
C10   C     C_R   0.182047 0.393740 0.524155 -0.269658
C11   C     C_R   0.232107 0.501833 0.499679 -0.107600
C12   C     C_R   0.328927 0.498236 0.500395 0.788420
C13   C     C_R   0.189863 0.610671 0.465489 0.093828
C14   C     C_R   0.471106 0.062309 0.615955 0.053577
C15   C     C_R   0.508585 0.129582 0.504272 -0.069412
C16   C     C_R   0.556258 0.066299 0.401653 -0.217677
C17   C     C_R   0.555950 0.937270 0.403268 -0.236363
C18   C     C_R   0.504380 0.870902 0.502212 -0.062337
C19   C     C_R   0.465506 0.935229 0.611065 0.071581
C20   C     C_3   0.372203 0.928632 0.667873 -0.485253
C21   C     C_3   0.381099 0.067713 0.684756 0.300627
C22   C     C_R   0.576891 0.524538 0.071814 0.126146
C23   C     C_R   0.499882 0.737389 0.500282 0.770409
C24   C     C_R   0.427183 0.461409 0.076946 -0.132224
C25   C     C_R   0.426948 0.459515 0.929019 0.217766
C26   C     C_R   0.574876 0.532903 0.925785 0.166108
C27   C     C_3   0.625944 0.654333 0.927086 0.818260
C28   C     C_3   0.637968 0.634824 0.084752 -0.638710
C29   C     C_R   0.670852 0.500246 0.498792 0.781135
C30   C     C_R   0.816132 0.606734 0.457817 -0.224604
C31   C     C_R   0.767155 0.499857 0.495290 -0.022360
C32   C     C_R   0.810072 0.392011 0.527188 -0.210717
C33   C     C_R   0.902918 0.390952 0.522877 0.061663
C34   C     C_R   0.952668 0.501184 0.495437 0.059810
Cu1   Cu    Cu3+1 0.500000 0.499980 0.640670 0.994613
Cu2   Cu    Cu3+1 0.500000 0.500020 0.359330 0.935318
H1    H     H_    0.782085 0.688173 0.427048 0.120941
H2    H     H_    0.594363 0.888889 0.326678 0.136624
H3    H     H_    0.323553 0.901834 0.587446 0.183634
H4    H     H_    0.363696 0.875685 0.765457 0.169119
H5    H     H_    0.367736 0.431493 0.133762 0.152820
H6    H     H_    0.706181 0.607023 0.110728 0.195142
H7    H     H_    0.771077 0.308693 0.551520 0.124356
H8    H     H_    0.612845 0.702326 0.160036 0.189636
H9    H     H_    0.908955 0.195278 0.556870 0.157297
H10   H     H_    0.215309 0.310077 0.542644 0.168325
H11   H     H_    0.924436 0.804051 0.423942 0.154890
H12   H     H_    0.592337 0.116032 0.319879 0.156659
N1    N     N_R   0.500570 0.500930 0.147930 -0.182785
N2    N     N_R   0.500570 0.500890 0.852020 -0.192855
O1    O     O_R   0.500000 0.319640 0.618810 -0.586177
O2    O     O_R   0.500010 0.319680 0.381230 -0.571305
O3    O     O_R   0.370250 0.499950 0.618800 -0.544864
O4    O     O_R   0.370260 0.499990 0.381220 -0.594000
O5    O     O_R   0.499990 0.680320 0.618770 -0.535748
O6    O     O_R   0.500000 0.680360 0.381190 -0.594208
O7    O     O_R   0.629740 0.500010 0.618780 -0.545490
O8    O     O_R   0.629750 0.500050 0.381200 -0.578725
N3    N     N_3   0.317287 0.133437 0.603449 -0.593213
H13   H     H_    0.255216 0.122317 0.653086 0.238795
H14   H     H_    0.335408 0.226690 0.610806 0.225376
N4    N     N_3   0.384081 0.110335 0.829663 -0.607145
H15   H     H_    0.408972 0.043383 0.894435 0.213586
H16   H     H_    0.428550 0.186250 0.835231 0.235407
N5    N     N_3   0.347331 0.417530 0.862171 -0.531678
H17   H     H_    0.297645 0.478851 0.887533 0.200665
H18   H     H_    0.327099 0.332321 0.903968 0.203705
O9    O     O_3   0.705841 0.643911 0.848575 -0.621008
C35   C     C_3   0.752283 0.758869 0.832812 0.110168
H19   H     H_    0.824088 0.739516 0.821713 0.155795
H20   H     H_    0.746129 0.818746 0.926152 0.119596
C36   C     C_3   0.722878 0.825445 0.700781 -0.270142
H21   H     H_    0.712249 0.758003 0.616183 0.214621
H22   H     H_    0.658764 0.870035 0.717505 0.255999
C37   C     C_3   0.790718 0.924766 0.653865 -1.019626
H23   H     H_    0.804331 0.991453 0.739124 0.263986
H24   H     H_    0.764824 0.974804 0.563392 0.263233
H25   H     H_    0.853209 0.881861 0.621923 0.257105
O10   O     O_3   0.572714 0.751224 0.877665 -0.593598
C38   C     C_3   0.520881 0.812701 0.978034 0.038038
H26   H     H_    0.490986 0.750552 0.058720 0.113739
H27   H     H_    0.462392 0.846679 0.924899 0.154239
C39   C     C_3   0.570996 0.924873 0.041693 -0.395336
H28   H     H_    0.524717 0.967874 0.116782 0.197625
H29   H     H_    0.630195 0.896431 0.098661 0.194911
C40   C     C_3   0.602207 0.022768 0.936275 -0.794156
H30   H     H_    0.561127 0.019686 0.842427 0.257180
H31   H     H_    0.672494 0.009865 0.905279 0.245064
H32   H     H_    0.598458 0.115648 0.983722 0.230025
O11   O     O_3   0.080174 0.168056 0.529436 -0.640553
C41   C     C_3   0.101494 0.135782 0.390269 0.064885
H33   H     H_    0.154043 0.066962 0.393517 0.206998
H34   H     H_    0.130844 0.214454 0.328724 0.122044
C42   C     C_3   0.019887 0.079791 0.315892 -0.333091
H35   H     H_    0.984067 0.012297 0.384644 0.237706
H36   H     H_    0.973472 0.153447 0.290915 0.196658
C43   C     C_3   0.046429 0.015985 0.181290 -0.887028
H37   H     H_    0.079714 0.083275 0.109067 0.252934
H38   H     H_    0.985889 0.975801 0.131502 0.244826
H39   H     H_    0.092209 0.940645 0.202330 0.289064
N6    N     N_3   0.241278 0.714792 0.413326 -0.555292
H40   H     H_    0.268198 0.690878 0.316651 0.229260
H41   H     H_    0.294227 0.731937 0.480006 0.189856
O12   O     O_3   0.093916 0.838238 0.463259 -0.606518
C44   C     C_3   0.117734 0.867190 0.601998 0.092887
H42   H     H_    0.167810 0.944234 0.597109 0.188168
H43   H     H_    0.150536 0.790543 0.655273 0.124786
C45   C     C_3   0.037522 0.907746 0.688590 -0.369939
H44   H     H_    0.998663 0.973042 0.628027 0.256862
H45   H     H_    0.993939 0.826104 0.714722 0.194783
C46   C     C_3   0.066420 0.970185 0.823138 -0.880832
H46   H     H_    0.102677 0.905310 0.888706 0.252372
H47   H     H_    0.006449 0.999924 0.880724 0.252999
H48   H     H_    0.109972 0.052708 0.800809 0.276730

loop_
_geom_bond_atom_site_label_1
_geom_bond_atom_site_label_2
_ccdc_geom_bond_type
C8    C9    A    
N6    H40   S    
Cu1   O3    S    
C19   C20   S    
C16   H12   S    
C43   H37   S    
C7    C8    A    
C44   H43   S    
C26   C27   S    
C39   H28   S    
C14   C21   S    
C21   N3    S    
Cu2   O8    S    
C1    O2    A    
C36   C37   S    
C5    C6    A    
C20   H4    S    
C40   H31   S    
C3    C33   A    
C15   C16   A    
C45   H44   S    
C18   C19   A    
C35   H20   S    
C25   N2    A    
N4    H16   S    
C27   O9    S    
O9    C35   S    
C46   H46   S    
C16   C17   A    
N5    H18   S    
C10   H10   S    
C28   H8    S    
C1    C15   S    
C12   O3    A    
Cu2   O2    S    
C2    C34   A    
N3    H13   S    
N6    H41   S    
C22   C28   S    
C24   H5    S    
C42   H35   S    
C38   C39   S    
O12   C44   S    
C43   H38   S    
C33   C34   A    
C4    O11   S    
C44   C45   S    
N3    H14   S    
Cu1   O5    S    
C18   C23   S    
C23   O6    A    
C25   N5    S    
C24   C25   A    
C36   H22   S    
C41   H33   S    
C20   H3    S    
C40   H30   S    
C38   H26   S    
C42   C43   S    
C3    H9    S    
C6    C34   A    
C30   H1    S    
Cu1   Cu2   S    
C35   C36   S    
C37   H23   S    
N4    H15   S    
Cu2   O6    S    
C41   H34   S    
C8    O12   S    
C31   C32   A    
C7    C13   A    
Cu1   N2    S    
C17   C18   A    
C46   H47   S    
C20   C21   S    
C42   H36   S    
C1    O1    A    
C21   N4    S    
C22   N1    A    
C38   H27   S    
C39   H29   S    
C29   O7    A    
C9    H11   S    
Cu1   O1    S    
C13   N6    S    
C3    C4    A    
C43   H39   S    
C24   N1    A    
C14   C19   A    
C36   H21   S    
C40   H32   S    
C11   C12   S    
C23   O5    A    
C6    C7    A    
C44   H42   S    
C27   O10   S    
C45   C46   S    
C2    C30   A    
Cu1   O7    S    
C32   C33   A    
C26   N2    A    
C5    C10   A    
C29   C31   S    
C41   C42   S    
C11   C13   A    
O11   C41   S    
C30   C31   A    
C28   H6    S    
C32   H7    S    
C45   H45   S    
C46   H48   S    
C17   H2    S    
C35   H19   S    
C37   H25   S    
Cu2   O4    S    
C10   C11   A    
O10   C38   S    
C4    C5    A    
C39   C40   S    
C29   O8    A    
N5    H17   S    
C22   C26   A    
C37   H24   S    
C27   C28   S    
C14   C15   A    
C2    C9    A    
C12   O4    A    
Cu2   N1    S    
