data_str_m9_o4_o18_f0_sra.sym.32
_audit_creation_date              2013-03-05T16:07:36-0500
_audit_creation_method            fapswitch 2.2
_symmetry_space_group_name_H-M    P1
_symmetry_Int_Tables_number       1
_space_group_crystal_system       triclinic
_cell_length_a                    21.649537
_cell_length_b                    7.058314
_cell_length_c                    14.89386
_cell_angle_alpha                 90.096819
_cell_angle_beta                  106.813973
_cell_angle_gamma                 90.064518
_cell_volume                      2178.615202

loop_
_atom_site_label
_atom_site_type_symbol
_atom_site_description
_atom_site_fract_x
_atom_site_fract_y
_atom_site_fract_z
_atom_type_partial_charge
O1    O     O_R   0.585850 0.505770 0.002130 -0.619761
O2    O     O_R   0.414150 0.005770 0.997870 -0.620665
O3    O     O_R   0.467530 0.173560 0.861970 -0.593553
O4    O     O_R   0.532470 0.673560 0.138030 -0.594751
C1    C     C_R   0.457102 0.344308 0.824842 1.016017
C2    C     C_R   0.542883 0.844782 0.175177 1.012181
O5    O     O_R   0.588690 0.175900 0.993250 -0.577263
O6    O     O_R   0.411310 0.675900 0.006750 -0.572205
O7    O     O_R   0.536170 0.007950 0.130090 -0.574453
O8    O     O_R   0.463830 0.507950 0.869910 -0.572043
C3    C     C_R   0.614935 0.344971 0.997243 0.976316
C4    C     C_R   0.385129 0.844853 0.003076 0.984041
O9    O     O_3   0.482630 0.339970 0.044740 -0.275960
O10   O     O_3   0.517370 0.839970 0.955260 -0.276250
V1    V     V_3+5 0.503220 0.064200 0.991700 1.239260
V2    V     V_3+5 0.496780 0.564200 0.008300 1.241020
C5    C     C_R   0.275164 0.994659 0.954430 0.023207
C6    C     C_R   0.725327 0.494020 0.046937 0.022853
C7    C     C_R   0.316752 0.853496 0.003252 -0.136250
C8    C     C_R   0.683372 0.353589 0.997371 -0.137498
C9    C     C_R   0.291150 0.718198 0.051945 -0.115973
C10   C     C_R   0.708759 0.217894 0.948483 -0.123365
H1    H     H_    0.322664 0.609120 0.091510 0.147994
H2    H     H_    0.677074 0.108839 0.908756 0.148519
C11   C     C_R   0.227466 0.733944 0.058766 -0.048482
C12   C     C_R   0.772454 0.233133 0.941641 -0.044387
C13   C     C_R   0.185443 0.877666 0.007232 -0.224141
C14   C     C_R   0.814648 0.377109 0.993138 -0.222757
C15   C     C_R   0.210770 0.003504 0.954328 0.129480
C16   C     C_R   0.789603 0.502773 0.046507 0.126762
C17   C     C_3   0.211973 0.214884 0.958945 -0.477703
C18   C     C_3   0.788970 0.714120 0.043138 -0.465241
C19   C     C_3   0.282721 0.205184 0.962039 -0.209945
C20   C     C_3   0.718414 0.704914 0.041325 -0.221338
H3    H     H_    0.204353 0.268699 0.024939 0.176610
H4    H     H_    0.796090 0.768806 0.977051 0.174761
H5    H     H_    0.179658 0.278896 0.894076 0.199939
H6    H     H_    0.821965 0.776902 0.107985 0.205055
H7    H     H_    0.316394 0.252213 0.030028 0.164066
H8    H     H_    0.684399 0.754214 0.974228 0.163933
C21   C     C_R   0.926198 0.888638 0.722889 -0.159991
C22   C     C_R   0.073686 0.388370 0.276901 -0.150102
C23   C     C_R   0.567423 0.850709 0.278131 -0.282428
C24   C     C_R   0.432093 0.347753 0.721998 -0.282399
C25   C     C_R   0.932849 0.989082 0.570201 0.429605
C26   C     C_R   0.066683 0.475338 0.431176 0.438640
C27   C     C_R   0.961891 0.957414 0.665782 -0.231996
C28   C     C_R   0.038168 0.455027 0.334744 -0.243035
C29   C     C_R   0.861127 0.842373 0.684397 -0.148910
C30   C     C_R   0.138663 0.341267 0.314628 -0.143222
C31   C     C_R   0.829104 0.876587 0.588549 0.082500
C32   C     C_R   0.169894 0.360311 0.411794 0.073136
C33   C     C_R   0.865303 0.960071 0.532621 -0.025397
C34   C     C_R   0.132505 0.424801 0.470437 -0.015817
C35   C     C_R   0.761507 0.840830 0.548167 0.093378
C36   C     C_R   0.237468 0.323660 0.451975 0.093979
C37   C     C_R   0.729928 0.902955 0.455202 0.102775
C38   C     C_R   0.267119 0.360226 0.549059 0.105506
C39   C     C_R   0.766644 0.001403 0.405929 -0.217504
C40   C     C_R   0.226868 0.405732 0.605461 -0.234731
C41   C     C_R   0.832621 0.025655 0.442923 -0.108379
C42   C     C_R   0.161309 0.434435 0.567243 -0.070750
C43   C     C_R   0.724715 0.741624 0.596963 -0.221746
C44   C     C_R   0.276177 0.248121 0.399057 -0.210285
C45   C     C_R   0.658601 0.715997 0.559053 -0.026677
C46   C     C_R   0.342157 0.222193 0.437839 -0.025547
C47   C     C_R   0.625589 0.784949 0.469739 -0.031357
C48   C     C_R   0.373814 0.277661 0.530265 -0.036294
C49   C     C_R   0.662449 0.866950 0.414591 0.096068
C50   C     C_R   0.335678 0.343201 0.587496 0.095259
C51   C     C_R   0.557182 0.763651 0.432150 0.260608
C52   C     C_R   0.442365 0.262050 0.567886 0.262163
C53   C     C_R   0.529164 0.789402 0.334140 0.276559
C54   C     C_R   0.470382 0.288079 0.665767 0.278041
C55   C     C_R   0.631578 0.899566 0.318839 -0.285708
C56   C     C_R   0.367205 0.387543 0.681941 -0.282830
H9    H     H_    0.857039 0.106077 0.401635 0.184075
H10   H     H_    0.133515 0.464137 0.615335 0.183862
H11   H     H_    0.657481 0.947867 0.271732 0.167951
H12   H     H_    0.342261 0.447132 0.727945 0.171062
H13   H     H_    0.634542 0.631116 0.599139 0.202362
H14   H     H_    0.367506 0.152802 0.394329 0.203208
H15   H     H_    0.012656 0.988867 0.696545 0.161663
H16   H     H_    0.988488 0.498057 0.303914 0.157592
H17   H     H_    0.835667 0.795107 0.732720 0.117864
H18   H     H_    0.164097 0.299906 0.265334 0.115789
H19   H     H_    0.745598 0.066687 0.338746 0.164959
H20   H     H_    0.244050 0.416592 0.680538 0.158791
H21   H     H_    0.746038 0.677120 0.664350 0.143957
H22   H     H_    0.256624 0.201408 0.327550 0.140078
O11   O     O_R   0.036080 0.231270 0.130120 -0.599037
O12   O     O_R   0.963920 0.731270 0.869880 -0.601115
O13   O     O_R   0.911300 0.558970 0.006750 -0.614235
O14   O     O_R   0.088700 0.058970 0.993250 -0.614425
C57   C     C_R   0.884034 0.390076 0.997260 0.994138
C58   C     C_R   0.115984 0.890291 0.002801 0.994862
O15   O     O_R   0.032450 0.561140 0.138040 -0.561701
O16   O     O_R   0.967550 0.061140 0.861960 -0.562839
O17   O     O_R   0.085870 0.728910 0.002130 -0.574037
O18   O     O_R   0.914130 0.228910 0.997870 -0.573277
C59   C     C_R   0.045320 0.392941 0.175138 0.986622
C60   C     C_R   0.954527 0.892640 0.824815 0.986122
O19   O     O_3   0.017320 0.394650 0.955270 -0.283571
O20   O     O_3   0.982680 0.894650 0.044730 -0.280450
V3    V     V_3+5 0.996780 0.670490 0.008300 1.213170
V4    V     V_3+5 0.003220 0.170490 0.991700 1.212052
N1    N     N_R   0.972561 0.052374 0.513328 0.255972
O21   O     O_R   0.025214 0.147183 0.551605 -0.393115
O22   O     O_R   0.963857 0.983687 0.429413 -0.369449
N2    N     N_R   0.029073 0.557626 0.486706 0.250251
O23   O     O_R   0.967509 0.522534 0.466119 -0.371128
O24   O     O_R   0.053078 0.693536 0.545635 -0.388104
N3    N     N_R   0.516570 0.727426 0.492926 0.254285
O25   O     O_R   0.456604 0.676526 0.458567 -0.326023
O26   O     O_R   0.535277 0.777565 0.580762 -0.329437
N4    N     N_R   0.483254 0.228950 0.507465 0.247818
O27   O     O_R   0.540503 0.156379 0.540288 -0.330190
O28   O     O_R   0.468146 0.298961 0.423209 -0.335144
C61   C     C_2   0.210889 0.612954 0.129852 0.524923
H23   H     H_    0.237242 0.482520 0.152521 -0.007548
O29   O     O_2   0.171360 0.663412 0.169033 -0.589044
C62   C     C_2   0.788889 0.111137 0.870652 0.521469
H24   H     H_    0.762509 0.980273 0.848303 -0.002689
O30   O     O_2   0.828357 0.161066 0.831256 -0.590693
C63   C     C_2   0.296442 0.292103 0.878166 0.567742
H25   H     H_    0.308320 0.203671 0.825803 -0.017362
O31   O     O_2   0.294684 0.463871 0.868836 -0.619289
C64   C     C_2   0.706085 0.790069 0.126730 0.583661
H26   H     H_    0.692277 0.701237 0.177201 -0.015639
O32   O     O_2   0.711020 0.960971 0.139298 -0.620350
N5    N     N_R   0.461859 0.755712 0.290428 0.249956
O33   O     O_R   0.441223 0.583211 0.270317 -0.337981
O34   O     O_R   0.424200 0.896719 0.254545 -0.412832
N6    N     N_R   0.538095 0.260771 0.708582 0.247910
O35   O     O_R   0.560191 0.090797 0.731383 -0.339514
O36   O     O_R   0.574796 0.406002 0.741320 -0.405089

loop_
_geom_bond_atom_site_label_1
_geom_bond_atom_site_label_2
_geom_bond_distance
_ccdc_geom_bond_type
C23   C53   1.403336 A    
C46   C48   1.403458 A    
C53   N5    1.433001 S    
C13   C15   1.400588 A    
C5    C15   1.395127 A    
O1    C3    1.310646 A    
C44   H22   1.076956 S    
O2    C4    1.310599 A    
C64   H26   1.085697 S    
C2    O7    1.320976 A    
C43   C45   1.389889 A    
C40   H20   1.074054 S    
N5    O34   1.300933 A    
C21   C60   1.463793 S    
O5    C3    1.314976 A    
C19   H7    1.112777 S    
C14   C57   1.488279 S    
C20   H8    1.112676 S    
C18   H4    1.109274 S    
C10   H2    1.084258 S    
C7    C9    1.406705 A    
C37   C39   1.411100 A    
C38   C40   1.411169 A    
C58   O17   1.310404 A    
N4    O27   1.299715 A    
C51   N3    1.455512 S    
C6    C8    1.400020 A    
C40   C42   1.383172 A    
C21   C29   1.396784 A    
C24   C56   1.387372 A    
N2    O23   1.301679 A    
O13   V3    2.004195 S    
C33   C41   1.398452 A    
C41   H9    1.080924 S    
C45   C47   1.403602 A    
C35   C43   1.410070 A    
C30   C32   1.415122 A    
N1    O21   1.301251 A    
C17   C19   1.520596 S    
C6    C16   1.394709 A    
C27   H15   1.083919 S    
C36   C38   1.425073 A    
C31   C35   1.434064 A    
O6    C4    1.315354 A    
O15   V3    2.017188 S    
C25   C27   1.398367 A    
C25   C33   1.420931 A    
O6    V2    2.006163 S    
N1    O22   1.301570 A    
O11   V4    2.021929 S    
C26   C34   1.421126 A    
C13   C58   1.488789 S    
C5    C19   1.495267 S    
O11   C59   1.308069 A    
C11   C61   1.483654 S    
O20   V4    2.195148 S    
O20   V3    1.727692 S    
C32   C34   1.426115 A    
N2    O24   1.301081 A    
C61   O29   1.220104 D    
C23   C55   1.388048 A    
O17   V3    1.999866 S    
C26   C28   1.396644 A    
C3    C8    1.482267 S    
C39   C41   1.384534 A    
C29   H17   1.078427 S    
C52   C54   1.419222 A    
C51   C53   1.421522 A    
C57   O18   1.310327 A    
C38   C50   1.433276 A    
N6    O36   1.300862 A    
C34   C42   1.397041 A    
C29   C31   1.416277 A    
O16   C60   1.306456 A    
C28   H16   1.084149 S    
C31   C33   1.426018 A    
C18   C20   1.521221 S    
O4    V2    2.013970 S    
C24   C54   1.402569 A    
C46   H14   1.079939 S    
C45   H13   1.080332 S    
C48   C52   1.431138 A    
C43   H21   1.077817 S    
C19   C63   1.497326 S    
C21   C27   1.391758 A    
O19   V3    2.193668 S    
O1    V2    2.000289 S    
C22   C28   1.391943 A    
O14   C58   1.319165 A    
O2    V1    1.999458 S    
C6    C20   1.496285 S    
C22   C30   1.396267 A    
C48   C50   1.424401 A    
C1    C24   1.469810 S    
C8    C10   1.407106 A    
C18   H6    1.112723 S    
C2    C23   1.470956 S    
C9    H1    1.084249 S    
C50   C56   1.408929 A    
C63   H25   1.085667 S    
C17   H3    1.109174 S    
O4    C2    1.320017 A    
C62   O30   1.220110 D    
N5    O33   1.300728 A    
C22   C59   1.461870 S    
O3    V1    2.017136 S    
N3    O25   1.300119 A    
C9    C11   1.415943 A    
O14   V4    2.005862 S    
C12   C14   1.430165 A    
C42   H10   1.080843 S    
C56   H12   1.073129 S    
O3    C1    1.319048 A    
C64   O32   1.220220 D    
C61   H23   1.085300 S    
C20   C64   1.498245 S    
N6    O35   1.300842 A    
O12   C60   1.308933 A    
C11   C13   1.430602 A    
C52   N4    1.452113 S    
O18   V4    2.000698 S    
O16   V4    2.014023 S    
C37   C49   1.432508 A    
C35   C37   1.425458 A    
O7    V1    2.016844 S    
C14   C16   1.400214 A    
C15   C17   1.493302 S    
C26   N2    1.439921 S    
O8    V2    2.015157 S    
C16   C18   1.492626 S    
C36   C44   1.410494 A    
C54   N6    1.432837 S    
C4    C7    1.482438 S    
O5    V1    2.004494 S    
C5    C7    1.399226 A    
N4    O28   1.300368 A    
C49   C55   1.408379 A    
O19   V4    1.728741 S    
C47   C51   1.431379 A    
C39   H19   1.076767 S    
C30   H18   1.077487 S    
C25   N1    1.441517 S    
C17   H5    1.112744 S    
O12   V3    2.023747 S    
C1    O8    1.321486 A    
O13   C57   1.318757 A    
C10   C12   1.415786 A    
O9    V2    1.729535 S    
C63   O31   1.219946 D    
O10   V1    1.728488 S    
C12   C62   1.483654 S    
C47   C49   1.423467 A    
C62   H24   1.085332 S    
C55   H11   1.072813 S    
O15   C59   1.306244 A    
C32   C36   1.435318 A    
C44   C46   1.389675 A    
N3    O26   1.300880 A    
