data_str_m2_o16_o18_f0_pcu.sym.1
_audit_creation_date              2012-10-26T18:31:58-0400
_audit_creation_method            fapswitch 2.2
_symmetry_space_group_name_H-M    P1
_symmetry_Int_Tables_number       1
_space_group_crystal_system       triclinic
_cell_length_a                    12.391931
_cell_length_b                    13.15467
_cell_length_c                    14.237118
_cell_angle_alpha                 93.848357
_cell_angle_beta                  108.063342
_cell_angle_gamma                 116.410827
_cell_volume                      1917.99670162

loop_
_atom_site_label
_atom_site_type_symbol
_atom_type_description
_atom_site_fract_x
_atom_site_fract_y
_atom_site_fract_z
_atom_type_partial_charge
Br1   Br    Br    0.791937 0.544439 0.203362 -0.643798
Br2   Br    Br    0.256977 0.843163 0.461214 -0.546971
Br3   Br    Br    0.577169 0.905173 0.594970 -0.477844
Br4   Br    Br    0.028353 0.242582 0.594191 -0.604523
Br5   Br    Br    0.791945 0.265239 0.745661 -0.539860
C1    C     C_R   0.649654 0.714923 0.506872 0.559436
C2    C     C_R   0.136407 0.405058 0.999263 0.005628
C3    C     C_R   0.103170 0.441440 0.077323 0.010713
C4    C     C_R   0.619691 0.518387 0.687339 0.539392
C5    C     C_R   0.260228 0.411921 0.023499 -0.013754
C6    C     C_R   0.345162 0.447651 0.125945 -0.144757
C7    C     C_R   0.188189 0.469816 0.178718 -0.122668
C8    C     C_R   0.204963 0.959975 0.467221 0.144184
C9    C     C_R   0.258313 0.162267 0.479463 -0.038119
C10   C     C_R   0.708286 0.927863 0.541551 0.137859
C11   C     C_R   0.792857 0.044120 0.551463 -0.055962
C12   C     C_R   0.819981 0.469338 0.920361 0.015515
C13   C     C_R   0.906835 0.078603 0.534573 0.121715
C14   C     C_R   0.930108 0.992878 0.491406 0.033445
C15   C     C_R   0.835820 0.872402 0.470369 -0.040061
C16   C     C_R   0.346976 0.285043 0.487412 0.548364
C17   C     C_R   0.046458 0.019906 0.474437 0.023271
C18   C     C_R   0.077164 0.930575 0.457071 0.050675
C19   C     C_R   0.977041 0.815108 0.423381 -0.094186
C20   C     C_R   0.854537 0.788943 0.419905 -0.114494
C21   C     C_R   0.131181 0.131039 0.469666 -0.108036
C22   C     C_R   0.297509 0.077422 0.485174 -0.102709
C23   C     C_R   0.783466 0.505939 0.995761 0.058808
C24   C     C_R   0.729435 0.838853 0.503547 -0.009043
C25   C     C_R   0.256081 0.682717 0.670600 -0.010454
C26   C     C_R   0.659977 0.336166 0.366151 0.158945
C27   C     C_R   0.742235 0.311221 0.332863 -0.116316
C28   C     C_R   0.381307 0.484183 0.312611 0.542852
C29   C     C_R   0.875339 0.377492 0.380618 -0.093136
C30   C     C_R   0.931217 0.470037 0.465455 0.032340
C31   C     C_R   0.844664 0.498831 0.494781 0.186801
C32   C     C_R   0.069952 0.532788 0.522977 0.021842
C33   C     C_R   0.120865 0.623502 0.610011 0.053777
C34   C     C_R   0.910901 0.428067 0.946903 0.026023
C35   C     C_R   0.036120 0.653925 0.634625 -0.160641
C36   C     C_R   0.902465 0.593134 0.579155 -0.101334
C37   C     C_R   0.160503 0.507360 0.498792 0.087768
C38   C     C_R   0.338495 0.652511 0.641923 0.078689
C39   C     C_R   0.681159 0.521831 0.794807 -0.012530
C40   C     C_R   0.305602 0.467850 0.203938 -0.016719
C41   C     C_R   0.693516 0.547041 0.968510 -0.100574
C42   C     C_R   0.643207 0.555033 0.869021 -0.141595
C43   C     C_R   0.774318 0.485756 0.822489 -0.103034
C44   C     C_R   0.303420 0.382932 0.943690 0.020464
C45   C     C_R   0.987153 0.450215 0.051127 -0.022585
C46   C     C_R   0.296780 0.434023 0.859912 -0.101698
C47   C     C_R   0.326340 0.398775 0.780891 -0.069319
C48   C     C_R   0.366385 0.314723 0.785758 -0.057334
C49   C     C_R   0.379043 0.267254 0.870709 -0.091857
C50   C     C_R   0.347966 0.301210 0.949381 -0.086593
C51   C     C_R   0.313439 0.773787 0.765562 -0.002843
C52   C     C_R   0.396970 0.891050 0.770977 -0.063092
C53   C     C_R   0.450177 0.977014 0.860364 -0.102668
C54   C     C_R   0.419906 0.946528 0.944743 -0.103038
C55   C     C_R   0.336348 0.829995 0.939808 -0.104739
C56   C     C_R   0.945037 0.481648 0.124585 -0.099411
C57   C     C_R   0.283163 0.743804 0.850586 -0.114297
C58   C     C_R   0.521897 0.244768 0.320066 0.078210
C59   C     C_R   0.484469 0.136837 0.346997 -0.109234
C60   C     C_R   0.361522 0.040603 0.290616 -0.116876
C61   C     C_R   0.273507 0.051958 0.208933 -0.106983
C62   C     C_R   0.311551 0.157567 0.179516 -0.132859
C63   C     C_R   0.437552 0.251305 0.232039 -0.073031
C64   C     C_R   0.841801 0.505081 0.097081 0.151297
C65   C     C_R   0.928960 0.365235 0.873867 0.140021
C66   C     C_R   0.042117 0.357168 0.899855 -0.098404
Cu1   Cu    Cu3+1 0.416420 0.526630 0.522910 0.980094
Cu2   Cu    Cu3+1 0.583580 0.473370 0.477090 0.961015
H1    H     H_    0.397698 0.101376 0.499707 0.174298
H2    H     H_    0.931291 0.351062 0.350840 0.099979
H3    H     H_    0.702190 0.236254 0.270692 0.109168
H4    H     H_    0.847897 0.622416 0.606753 0.178746
H5    H     H_    0.442448 0.460828 0.144263 0.139185
H6    H     H_    0.053593 0.309967 0.841863 0.190868
H7    H     H_    0.662547 0.574927 0.023549 0.170628
H8    H     H_    0.574784 0.587583 0.850337 0.131335
H9    H     H_    0.814450 0.474783 0.767790 0.176987
H10   H     H_    0.988925 0.487825 0.204361 0.139995
H11   H     H_    0.265563 0.498908 0.854537 0.109828
H12   H     H_    0.990662 0.745055 0.395173 0.202963
H13   H     H_    0.317809 0.436572 0.715689 0.174025
H14   H     H_    0.389312 0.287679 0.724420 0.134509
H15   H     H_    0.411763 0.203299 0.875225 0.113677
H16   H     H_    0.356122 0.261770 0.013389 0.099389
H17   H     H_    0.419098 0.916172 0.705664 0.201944
H18   H     H_    0.514407 0.067331 0.864038 0.136895
H19   H     H_    0.460750 0.013232 0.013755 0.115027
H20   H     H_    0.312379 0.806496 0.004973 0.120569
H21   H     H_    0.217235 0.654159 0.847269 0.109898
H22   H     H_    0.552253 0.126248 0.409543 0.138799
H23   H     H_    0.096859 0.192475 0.453142 0.177336
H24   H     H_    0.334717 0.957099 0.309935 0.181488
H25   H     H_    0.177546 0.977989 0.166567 0.132701
H26   H     H_    0.245057 0.165023 0.113809 0.116189
H27   H     H_    0.472505 0.327057 0.202222 0.128881
H28   H     H_    0.775342 0.110124 0.582197 0.225737
H29   H     H_    0.776785 0.701965 0.378640 0.195129
H30   H     H_    0.441674 0.696494 0.688156 0.151091
H31   H     H_    0.164864 0.493738 0.240267 0.133232
H32   H     H_    0.072383 0.725631 0.698390 0.132369
H33   H     H_    0.130134 0.439857 0.434142 0.117886
N1    N     N_R   0.290690 0.566960 0.557640 -0.234815
N2    N     N_R   0.709100 0.433710 0.442970 -0.224014
O1    O     O_R   0.545970 0.684450 0.528810 -0.429237
O2    O     O_R   0.687130 0.639470 0.490120 -0.544795
O3    O     O_R   0.519670 0.535100 0.660030 -0.524755
O4    O     O_R   0.660830 0.490120 0.621340 -0.510128
O5    O     O_R   0.312870 0.360530 0.509880 -0.504556
O6    O     O_R   0.454030 0.315550 0.471190 -0.485115
O7    O     O_R   0.339170 0.509880 0.378660 -0.501098
O8    O     O_R   0.480330 0.464900 0.339970 -0.501401

loop_
_geom_bond_atom_site_label_1
_geom_bond_atom_site_label_2
_ccdc_geom_bond_type
C4    O3    A    
C2    C5    A    
C49   H15   S    
C31   N2    A    
C28   C40   S    
C26   N2    A    
C14   C15   A    
C12   C43   A    
C66   H6    S    
Cu2   O2    S    
C48   C49   A    
Cu1   O7    S    
C23   C41   A    
C32   C33   A    
Cu2   O8    S    
C9    C16   S    
C30   C32   A    
C7    H31   S    
C2    C66   A    
C36   H4    S    
C20   H29   S    
C15   C20   A    
C10   C11   A    
C51   C52   A    
C8    C18   A    
C55   C57   A    
C29   C30   A    
C12   C34   A    
C32   C37   A    
Br2   C8    S    
C49   C50   A    
C23   C64   A    
C44   C46   A    
C18   C19   A    
C65   C66   A    
C9    C22   A    
C22   H1    S    
C53   H18   S    
C39   C42   A    
C62   H26   S    
C29   H2    S    
Cu1   Cu2   S    
Br4   C13   S    
C55   H20   S    
C4    O4    A    
C61   C62   A    
Cu1   O3    S    
C54   C55   A    
C1    O2    A    
C31   C36   A    
C10   C24   A    
C15   C24   A    
C21   H23   S    
C28   O7    A    
C52   H17   S    
C62   C63   A    
C26   C58   S    
C2    C3    A    
C14   C17   A    
C19   C20   A    
C16   O5    A    
C56   H10   S    
C13   C14   A    
Cu2   N2    S    
C53   C54   A    
C44   C50   A    
C25   C51   S    
Cu1   O5    S    
Br1   C64   S    
Cu2   O6    S    
C46   C47   A    
C30   C31   A    
C27   C29   A    
C63   H27   S    
Br5   C65   S    
C6    H5    S    
C26   C27   A    
Cu1   N1    S    
C3    C7    A    
C1    C24   S    
C48   H14   S    
C38   N1    A    
C9    C21   A    
C37   H33   S    
C35   C36   A    
C57   H21   S    
C1    O1    A    
C51   C57   A    
C25   C38   A    
C6    C40   A    
C3    C45   A    
Br3   C10   S    
C47   C48   A    
Cu2   O4    S    
C37   N1    A    
C56   C64   A    
Cu1   O1    S    
C4    C39   S    
C12   C23   A    
C59   H22   S    
C16   O6    A    
C27   H3    S    
C7    C40   A    
C58   C63   A    
C59   C60   A    
C61   H25   S    
C47   H13   S    
C60   H24   S    
C50   H16   S    
C33   C35   A    
C52   C53   A    
C34   C65   A    
C43   H9    S    
C54   H19   S    
C42   H8    S    
C38   H30   S    
C41   C42   A    
C5    C6    A    
C19   H12   S    
C58   C59   A    
C11   H28   S    
C34   C45   A    
C11   C13   A    
C60   C61   A    
C17   C21   A    
C45   C56   A    
C17   C18   A    
C8    C22   A    
C41   H7    S    
C25   C33   A    
C28   O8    A    
C5    C44   S    
C46   H11   S    
C39   C43   A    
C35   H32   S    
