data_str_m9_o5_o2_f0_sra.sym.93
_audit_creation_date              2012-12-11T17:19:19-0500
_audit_creation_method            fapswitch 2.2
_symmetry_space_group_name_H-M    P1
_symmetry_Int_Tables_number       1
_space_group_crystal_system       triclinic
_cell_length_a                    14.664887
_cell_length_b                    7.263859
_cell_length_c                    13.483486
_cell_angle_alpha                 89.981939
_cell_angle_beta                  99.872316
_cell_angle_gamma                 89.972623
_cell_volume                      1415.04167782

loop_
_atom_site_label
_atom_site_type_symbol
_atom_type_description
_atom_site_fract_x
_atom_site_fract_y
_atom_site_fract_z
_atom_type_partial_charge
O1    O     O_R   0.648180 0.355050 0.151550 -0.535803
O2    O     O_R   0.351820 0.644950 0.848450 -0.535803
O3    O     O_R   0.851820 0.855050 0.348450 -0.536087
O4    O     O_R   0.148180 0.144950 0.651550 -0.536087
O5    O     O_R   0.835240 0.681980 0.154280 -0.537292
O6    O     O_R   0.164760 0.318020 0.845720 -0.537292
O7    O     O_R   0.664760 0.181980 0.345720 -0.538095
O8    O     O_R   0.335240 0.818020 0.654280 -0.538095
C1    C     C_R   0.863623 0.516171 0.133206 0.688848
C2    C     C_R   0.136376 0.483829 0.866794 0.688848
C3    C     C_R   0.636363 0.016194 0.366787 0.687073
C4    C     C_R   0.363637 0.983806 0.633213 0.687073
O9    O     O_R   0.647870 0.684600 0.139630 -0.534932
O10   O     O_R   0.352130 0.315400 0.860370 -0.534932
O11   O     O_R   0.852130 0.184600 0.360370 -0.535404
O12   O     O_R   0.147870 0.815400 0.639630 -0.535404
O13   O     O_R   0.663110 0.857440 0.333700 -0.533996
O14   O     O_R   0.336890 0.142560 0.666300 -0.533996
O15   O     O_R   0.836890 0.357440 0.166300 -0.533369
O16   O     O_R   0.163110 0.642560 0.833700 -0.533369
C5    C     C_R   0.615060 0.516008 0.113183 0.714047
C6    C     C_R   0.384940 0.483992 0.886817 0.714047
C7    C     C_R   0.884926 0.015942 0.386824 0.714760
C8    C     C_R   0.115073 0.984058 0.613176 0.714761
H1    H     H_    0.504486 0.852924 0.750698 0.113677
H2    H     H_    0.495514 0.147076 0.249302 0.113677
H3    H     H_    0.992456 0.380891 0.744737 0.110465
H4    H     H_    0.007544 0.619109 0.255263 0.110465
O17   O     O_3   0.755220 0.522230 0.313690 -0.376484
O18   O     O_3   0.244780 0.477770 0.686310 -0.376484
O19   O     O_3   0.744780 0.022230 0.186310 -0.375267
O20   O     O_3   0.255220 0.977770 0.813690 -0.375267
V1    V     V_3+5 0.749030 0.796100 0.238190 1.421043
V2    V     V_3+5 0.250970 0.203900 0.761810 1.421043
V3    V     V_3+5 0.750970 0.296100 0.261810 1.419572
V4    V     V_3+5 0.249030 0.703900 0.738190 1.419572
C9    C     C_1   0.966027 0.005303 0.466775 -0.187462
C10   C     C_1   0.033973 0.994697 0.533225 -0.187462
C11   C     C_1   0.533967 0.505389 0.033224 -0.188424
C12   C     C_1   0.466033 0.494611 0.966776 -0.188425
H5    H     H_    0.222160 0.237949 0.305383 0.127506
H6    H     H_    0.777839 0.762051 0.694617 0.127506
H7    H     H_    0.284070 0.685045 0.203536 0.124861
H8    H     H_    0.715929 0.314955 0.796464 0.124861
C13   C     C_R   0.552186 0.859989 0.697882 -0.146408
C14   C     C_R   0.447814 0.140011 0.302118 -0.146408
C15   C     C_R   0.944540 0.388046 0.797350 -0.146589
C16   C     C_R   0.055460 0.611954 0.202650 -0.146589
C17   C     C_R   0.642449 0.799676 0.731408 -0.123617
C18   C     C_R   0.357551 0.200324 0.268592 -0.123617
C19   C     C_R   0.852579 0.341781 0.761436 -0.126254
C20   C     C_R   0.147421 0.658219 0.238564 -0.126254
C21   C     C_R   0.707665 0.808037 0.667984 -0.119000
C22   C     C_R   0.292335 0.191963 0.332016 -0.119000
C23   C     C_R   0.787355 0.350162 0.824894 -0.122261
C24   C     C_R   0.212645 0.649838 0.175105 -0.122261
C25   C     C_R   0.683079 0.876465 0.570486 -0.141792
C26   C     C_R   0.316920 0.123535 0.429514 -0.141792
C27   C     C_R   0.813609 0.404531 0.924818 -0.141162
C28   C     C_R   0.186391 0.595468 0.075181 -0.141162
C29   C     C_R   0.591685 0.936986 0.533883 0.068035
C30   C     C_R   0.408315 0.063014 0.466117 0.068035
C31   C     C_R   0.906579 0.451218 0.963652 0.069526
C32   C     C_R   0.093421 0.548782 0.036347 0.069526
C33   C     C_R   0.524856 0.928851 0.598944 0.066439
C34   C     C_R   0.475144 0.071149 0.401056 0.066439
C35   C     C_R   0.973412 0.443127 0.898573 0.066239
C36   C     C_R   0.026588 0.556873 0.101427 0.066239
C37   C     C_R   0.566825 0.007948 0.434916 -0.178564
C38   C     C_R   0.433175 0.992051 0.565084 -0.178564
C39   C     C_R   0.933176 0.507866 0.065097 -0.176825
C40   C     C_R   0.066823 0.492134 0.934902 -0.176825
H9    H     H_    0.736707 0.882294 0.524603 0.103593
H10   H     H_    0.263293 0.117706 0.475397 0.103593
H11   H     H_    0.760152 0.410319 0.970951 0.098700
H12   H     H_    0.239847 0.589681 0.029049 0.098700
H13   H     H_    0.662014 0.747083 0.807233 0.120018
H14   H     H_    0.337986 0.252917 0.192767 0.120018
H15   H     H_    0.831751 0.299914 0.683804 0.120686
H16   H     H_    0.168248 0.700086 0.316196 0.120686

loop_
_geom_bond_atom_site_label_1
_geom_bond_atom_site_label_2
_ccdc_geom_bond_type
C26   C30   A    
O1    C5    A    
C23   C27   A    
O3    C7    A    
O7    C3    A    
O1    V3    S    
C18   C22   A    
C32   C36   A    
C14   C34   A    
H6    C21   S    
O4    C8    A    
C34   C37   A    
O3    V1    S    
H1    C13   S    
C29   C37   A    
C33   C38   A    
O2    V4    S    
C30   C38   A    
C35   C40   A    
O8    V4    S    
C25   H9    S    
C4    C38   S    
C1    O15   A    
C3    O13   A    
C2    O16   A    
O5    V1    S    
O2    C6    A    
C8    C10   S    
O19   V1    S    
O11   C7    A    
O12   C8    A    
O13   V1    S    
C18   H14   S    
O11   V3    S    
O4    V2    S    
C31   C35   A    
C30   C34   A    
C11   C12   T    
C21   C25   A    
C15   C19   A    
C7    C9    S    
C28   H12   S    
C24   C28   A    
O20   V2    S    
O5    C1    A    
C9    C10   T    
C29   C33   A    
C5    C11   S    
C13   C17   A    
O8    C4    A    
C6    C12   S    
O9    C5    A    
C15   C35   A    
C16   C36   A    
O14   V2    S    
C31   C39   A    
C13   C33   A    
C27   H11   S    
C26   H10   S    
C22   C26   A    
H3    C15   S    
C14   C18   A    
H4    C16   S    
O7    V3    S    
C1    C39   S    
O10   V2    S    
C3    C37   S    
C25   C29   A    
O17   V3    S    
C27   C31   A    
O18   V4    S    
C28   C32   A    
O10   C6    A    
O15   V3    S    
O12   V4    S    
H8    C23   S    
C36   C39   A    
C17   C21   A    
C17   H13   S    
C19   C23   A    
C32   C40   A    
C19   H15   S    
H5    C22   S    
O6    C2    A    
H2    C14   S    
O16   V4    S    
O6    V2    S    
H7    C24   S    
C16   C20   A    
O9    V1    S    
C4    O14   A    
C20   H16   S    
C20   C24   A    
C2    C40   S    
