data_str_m3_o14_o18_f0_pcu.sym.37
_audit_creation_date              2013-03-05T15:53:06-0500
_audit_creation_method            fapswitch 2.2
_symmetry_space_group_name_H-M    P1
_symmetry_Int_Tables_number       1
_space_group_crystal_system       triclinic
_cell_length_a                    9.97391
_cell_length_b                    10.687618
_cell_length_c                    15.357313
_cell_angle_alpha                 96.423099
_cell_angle_beta                  69.138452
_cell_angle_gamma                 94.59657
_cell_volume                      1518.69518097

loop_
_atom_site_label
_atom_site_type_symbol
_atom_site_description
_atom_site_fract_x
_atom_site_fract_y
_atom_site_fract_z
_atom_type_partial_charge
O1    O     O_R   0.385310 0.683220 0.500000 -0.645143
O2    O     O_R   0.614640 0.683250 0.500010 -0.595190
C1    C     C_R   0.511679 0.736347 0.486342 0.855191
O3    O     O_R   0.319840 0.499980 0.632240 -0.637869
O4    O     O_R   0.549160 0.500000 0.632250 -0.606051
C2    C     C_R   0.409588 0.495726 0.675536 0.858147
Zn1   Zn    Zn3+2 0.346880 0.499980 0.499990 0.987775
Zn2   Zn    Zn3+2 0.653120 0.500020 0.500010 0.957391
O5    O     O_R   0.385360 0.316750 0.499990 -0.539338
O6    O     O_R   0.614690 0.316780 0.500000 -0.616877
O7    O     O_R   0.450840 0.500000 0.367750 -0.609084
O8    O     O_R   0.680160 0.500020 0.367760 -0.629161
C3    C     C_R   0.500572 0.257248 0.489339 0.879566
C4    C     C_R   0.589449 0.497175 0.324118 0.877073
C5    C     C_R   0.352152 0.464826 0.773070 -0.064586
C6    C     C_R   0.644499 0.487453 0.222093 -0.109597
C7    C     C_R   0.203510 0.326413 0.888853 -0.234829
C8    C     C_R   0.235948 0.376976 0.803036 -0.256238
C9    C     C_R   0.428723 0.506088 0.832045 0.153689
C10   C     C_R   0.421360 0.430335 0.902869 0.022818
C11   C     C_R   0.297747 0.351478 0.938787 0.154069
C12   C     C_R   0.530850 0.434604 0.940870 0.053209
C13   C     C_R   0.498240 0.398007 0.031327 0.096211
C14   C     C_R   0.367671 0.328066 0.071664 -0.238084
C15   C     C_R   0.271996 0.299972 0.023384 -0.217138
C16   C     C_R   0.673575 0.468103 0.888356 -0.244400
C17   C     C_R   0.776339 0.491126 0.930412 -0.236084
C18   C     C_R   0.737548 0.483563 0.026874 0.098837
C19   C     C_R   0.597076 0.435216 0.077662 0.051833
C20   C     C_R   0.831954 0.529131 0.075103 0.212122
C21   C     C_R   0.784591 0.528907 0.172285 -0.228855
C22   C     C_R   0.553384 0.439106 0.174745 -0.253028
H1    H     H_    0.176358 0.241064 0.053370 0.150983
H2    H     H_    0.444182 0.413661 0.215157 0.200937
H3    H     H_    0.855353 0.567469 0.209194 0.168255
H4    H     H_    0.883105 0.521430 0.887506 0.166281
H5    H     H_    0.110269 0.262915 0.913334 0.153759
H6    H     H_    0.172200 0.346267 0.759733 0.182953
H7    H     H_    0.341539 0.288283 0.137665 0.180579
H8    H     H_    0.704981 0.477070 0.814290 0.180747
H9    H     H_    0.732768 0.904263 0.479369 0.184928
C23   C     C_R   0.389029 0.819172 0.355690 -0.193134
H10   H     H_    0.423777 0.723742 0.338512 0.172213
C24   C     C_R   0.290890 0.857363 0.319264 0.214788
C25   C     C_R   0.249249 0.980463 0.341273 -0.265605
H11   H     H_    0.171080 0.010995 0.314756 0.169479
C26   C     C_R   0.313848 0.068677 0.390322 0.329805
C27   C     C_R   0.420975 0.034833 0.423949 -0.037225
C28   C     C_R   0.446908 0.904400 0.411935 0.030364
C29   C     C_R   0.536772 0.860764 0.453188 -0.079146
C30   C     C_R   0.642509 0.940396 0.468864 -0.239753
H12   H     H_    0.704864 0.125299 0.500336 0.192090
C31   C     C_R   0.625986 0.067699 0.478612 -0.189671
C32   C     C_R   0.507865 0.118419 0.466281 -0.113851
H13   H     H_    0.941737 0.411296 0.363956 0.144973
C33   C     C_R   0.801086 0.644903 0.648920 0.268497
C34   C     C_R   0.833390 0.677554 0.730840 -0.241421
H14   H     H_    0.760164 0.731073 0.790109 0.163768
C35   C     C_R   0.971721 0.672472 0.728791 -0.271177
H15   H     H_    0.001659 0.717390 0.786429 0.163694
C36   C     C_R   0.075313 0.626674 0.647390 -0.126948
H16   H     H_    0.183319 0.653730 0.640700 0.205532
C37   C     C_R   0.038434 0.560142 0.574480 0.122414
C38   C     C_R   0.894689 0.565176 0.574218 0.102610
N1    N     N_R   0.856800 0.501200 0.500850 -0.116332
C39   C     C_R   0.964854 0.451972 0.425083 -0.109721
H17   H     H_    0.190827 0.427673 0.359576 0.180259
C40   C     C_R   0.108099 0.458457 0.423548 0.018208
N2    N     N_R   0.142390 0.501280 0.500880 -0.099888
N3    N     N_2   0.968475 0.588191 0.029651 -0.311572
H18   H     H_    0.029204 0.543389 0.966546 0.235402
C41   C     C_3   0.963678 0.722781 0.027742 -0.801127
H19   H     H_    0.073965 0.764416 0.998659 0.237601
H20   H     H_    0.912756 0.768297 0.099711 0.253004
H21   H     H_    0.902339 0.742899 0.983378 0.235681
N4    N     N_2   0.233447 0.776377 0.259413 -0.300363
H22   H     H_    0.124124 0.777851 0.274670 0.224045
C42   C     C_3   0.301447 0.660443 0.213772 -0.778087
H23   H     H_    0.253483 0.619462 0.161254 0.249840
H24   H     H_    0.284400 0.591797 0.265876 0.227684
H25   H     H_    0.418167 0.679015 0.176849 0.253956
N5    N     N_R   0.271493 0.192336 0.398200 0.207039
O9    O     O_R   0.141298 0.217490 0.452627 -0.433226
O10   O     O_R   0.337871 0.258934 0.328495 -0.486710
N6    N     N_2   0.707242 0.725271 0.633055 -0.246024
H26   H     H_    0.602257 0.711465 0.674695 0.270901
C43   C     C_3   0.747786 0.858916 0.639003 -0.813390
H27   H     H_    0.662276 0.914593 0.633945 0.236463
H28   H     H_    0.851736 0.878487 0.582663 0.254330
H29   H     H_    0.756852 0.892567 0.707754 0.236355
N7    N     N_2   0.490597 0.631705 0.831097 -0.335387
H30   H     H_    0.543179 0.654257 0.877824 0.240825
C44   C     C_3   0.393147 0.730374 0.841100 -0.858135
H31   H     H_    0.452593 0.823299 0.836189 0.248196
H32   H     H_    0.306421 0.730749 0.910508 0.258217
H33   H     H_    0.345819 0.718000 0.785151 0.233862

loop_
_geom_bond_atom_site_label_1
_geom_bond_atom_site_label_2
_geom_bond_distance
_ccdc_geom_bond_type
C5    C8    1.406767 A    
C39   C40   1.416712 A    
C43   H27   1.107422 S    
C44   H31   1.110898 S    
C9    C10   1.405156 A    
C33   N6    1.418221 S    
C31   C32   1.414906 A    
H12   C31   1.082844 S    
C6    C21   1.396115 A    
C27   C32   1.455667 A    
C16   C17   1.386983 A    
C13   C19   1.417644 A    
C18   C19   1.426232 A    
N4    C42   1.445114 S    
C19   C22   1.393136 A    
O3    Zn1   1.951307 S    
C20   C21   1.396083 A    
O7    C4    1.305194 A    
C42   H24   1.105402 S    
C34   C35   1.374121 A    
C14   H7    1.080088 S    
C33   C34   1.407398 A    
C36   C37   1.402824 A    
C26   N5    1.398964 S    
C24   N4    1.428216 S    
O5    C3    1.308289 A    
C2    C5    1.466293 S    
C5    C9    1.395468 A    
C37   N2    1.363509 A    
C40   N2    1.370934 A    
C13   C14   1.418258 A    
C33   C38   1.435181 A    
N3    H18   1.029533 S    
C25   C26   1.400290 A    
Zn2   N1    2.035137 S    
C44   H32   1.107847 S    
C23   C24   1.393833 A    
C41   H21   1.111502 S    
C20   N3    1.422546 S    
C1    C29   1.448245 S    
C29   C30   1.373178 A    
N6    C43   1.454847 S    
C35   C36   1.376266 A    
H17   C40   1.071487 S    
C14   C15   1.399532 A    
C41   H20   1.111599 S    
N7    H30   1.028189 S    
C42   H23   1.110572 S    
N6    H26   1.023033 S    
C7    C11   1.403666 A    
C30   C31   1.368758 A    
C22   H2    1.074372 S    
Zn1   O7    1.923482 S    
N7    C44   1.449846 S    
C26   C27   1.426846 A    
Zn2   O8    1.951304 S    
C7    C8    1.400454 A    
C7    H5    1.083368 S    
N4    H22   1.031529 S    
O3    C2    1.297167 A    
C27   C28   1.417922 A    
O8    C4    1.300617 A    
N1    C39   1.361244 A    
C44   H33   1.109958 S    
N5    O10   1.296544 A    
C43   H28   1.110908 S    
C28   C29   1.399899 A    
C21   H3    1.084112 S    
C23   H10   1.077624 S    
H13   C39   1.081748 S    
C24   C25   1.380496 A    
C3    C32   1.487818 S    
Zn1   O5    2.025504 S    
C11   C15   1.398765 A    
O1    Zn1   1.965174 S    
O2    Zn2   2.025505 S    
C10   C12   1.405416 A    
C41   H19   1.106152 S    
O6    C3    1.311665 A    
Zn1   N2    2.035890 S    
O4    Zn2   1.923482 S    
C17   H4    1.079699 S    
C6    C22   1.390274 A    
C38   N1    1.403325 A    
C18   C20   1.419465 A    
O2    C1    1.301632 A    
C8    H6    1.083097 S    
C42   H25   1.110931 S    
C16   H8    1.080244 S    
C34   H14   1.079850 S    
O4    C2    1.311257 A    
C4    C6    1.458502 S    
C36   H16   1.064194 S    
C9    N7    1.431320 S    
C23   C28   1.415590 A    
C37   C38   1.440467 A    
C25   H11   1.084806 S    
C35   H15   1.083206 S    
C10   C11   1.409871 A    
Zn2   O6    1.965173 S    
N5    O9    1.299920 A    
C12   C16   1.403661 A    
C43   H29   1.109113 S    
C17   C18   1.401554 A    
C12   C13   1.402845 A    
N3    C41   1.446976 S    
O1    C1    1.295625 A    
H9    C30   1.076416 S    
C15   H1    1.083561 S    
