data_str_m9_o16_o26_f0_sra.sym.50
_audit_creation_date              2012-12-11T15:15:42-0500
_audit_creation_method            fapswitch 2.2
_symmetry_space_group_name_H-M    P1
_symmetry_Int_Tables_number       1
_space_group_crystal_system       triclinic
_cell_length_a                    20.705765
_cell_length_b                    22.712067
_cell_length_c                    6.939731
_cell_angle_alpha                 90.000338
_cell_angle_beta                  86.76449
_cell_angle_gamma                 90.023149
_cell_volume                      3258.34986095

loop_
_atom_site_label
_atom_site_type_symbol
_atom_type_description
_atom_site_fract_x
_atom_site_fract_y
_atom_site_fract_z
_atom_type_partial_charge
O1    O     O_R   0.387100 0.552640 0.378490 -0.531475
O2    O     O_R   0.612900 0.052640 0.621510 -0.531432
O3    O     O_R   0.249610 0.559600 0.072250 -0.551057
O4    O     O_R   0.750390 0.059600 0.927750 -0.550912
O5    O     O_R   0.249120 0.447360 0.902040 -0.547478
O6    O     O_R   0.750880 0.947360 0.097960 -0.547257
C1    C     C_R   0.227009 0.573332 0.244640 0.667864
C2    C     C_R   0.772507 0.073883 0.755324 0.667324
O7    O     O_R   0.386610 0.559560 0.048860 -0.533625
O8    O     O_R   0.613390 0.059560 0.951140 -0.533824
O9    O     O_R   0.387100 0.447320 0.878470 -0.518819
O10   O     O_R   0.612900 0.947320 0.121530 -0.518834
C3    C     C_R   0.408084 0.574581 0.213980 0.784835
C4    C     C_R   0.591948 0.074608 0.786001 0.784115
O11   O     O_R   0.249120 0.552680 0.402050 -0.548792
O12   O     O_R   0.750880 0.052680 0.597950 -0.548977
O13   O     O_3   0.318110 0.463180 0.223790 -0.364108
O14   O     O_3   0.681890 0.963180 0.776210 -0.363801
V1    V     V_3+5 0.318110 0.506830 0.948930 1.453932
V2    V     V_3+5 0.681890 0.006830 0.051070 1.453829
O15   O     O_R   0.386610 0.440400 0.548840 -0.527929
O16   O     O_R   0.613390 0.940400 0.451160 -0.527700
C5    C     C_R   0.407859 0.425165 0.714074 0.714881
C6    C     C_R   0.592111 0.925191 0.285945 0.715534
O17   O     O_R   0.249610 0.440440 0.572240 -0.550255
O18   O     O_R   0.750390 0.940440 0.427760 -0.550404
C7    C     C_R   0.227318 0.426329 0.744655 0.674670
C8    C     C_R   0.773149 0.926871 0.255385 0.675187
V3    V     V_3+5 0.318110 0.493170 0.448930 1.459071
V4    V     V_3+5 0.681890 0.993170 0.551070 1.459197
O19   O     O_3   0.318110 0.536820 0.723940 -0.377490
O20   O     O_3   0.681890 0.036820 0.276060 -0.377802
C9    C     C_R   0.174435 0.382649 0.762389 -0.045558
C10   C     C_R   0.828067 0.885413 0.237814 -0.045215
C11   C     C_R   0.150827 0.356573 0.596687 -0.180407
C12   C     C_R   0.858050 0.866248 0.403291 -0.179166
C13   C     C_R   0.100888 0.315387 0.612775 -0.124636
C14   C     C_R   0.911135 0.828518 0.387093 -0.123846
C15   C     C_R   0.073054 0.299794 0.795224 0.169270
C16   C     C_R   0.934956 0.808612 0.204762 0.169494
C17   C     C_R   0.097305 0.325028 0.960789 -0.148758
C18   C     C_R   0.905400 0.828099 0.039468 -0.148413
C19   C     C_R   0.147303 0.366246 0.944810 -0.169173
C20   C     C_R   0.852347 0.865973 0.055558 -0.169963
C21   C     C_R   0.897700 0.185980 0.887219 -0.125084
C22   C     C_R   0.089861 0.672699 0.113208 -0.124207
C23   C     C_R   0.848178 0.144383 0.903279 -0.179163
C24   C     C_R   0.142600 0.634571 0.096887 -0.177920
C25   C     C_R   0.851916 0.134592 0.555176 -0.169361
C26   C     C_R   0.148533 0.634913 0.444550 -0.170369
C27   C     C_R   0.901504 0.176219 0.539226 -0.149109
C28   C     C_R   0.095821 0.673171 0.460767 -0.148817
C29   C     C_R   0.925483 0.201680 0.704815 0.169111
C30   C     C_R   0.066297 0.692787 0.295580 0.169377
C31   C     C_2   0.019933 0.256369 0.819021 -0.199884
C32   C     C_2   0.991547 0.769028 0.180513 -0.200386
C33   C     C_2   0.978421 0.245292 0.681152 -0.199879
C34   C     C_2   0.009866 0.732547 0.320026 -0.200247
C35   C     C_R   0.824947 0.117988 0.737587 -0.043710
C36   C     C_R   0.172474 0.615191 0.262283 -0.043030
H1    H     H_    0.171161 0.367637 0.454084 0.122593
H2    H     H_    0.841191 0.881080 0.545651 0.121646
H3    H     H_    0.827888 0.133233 0.045857 0.123054
H4    H     H_    0.159252 0.619587 0.954515 0.121940
H5    H     H_    0.834897 0.115377 0.424529 0.122973
H6    H     H_    0.170290 0.620658 0.574921 0.122735
H7    H     H_    0.983628 0.268048 0.543710 0.122132
H8    H     H_    0.983246 0.731789 0.459164 0.122482
H9    H     H_    0.077039 0.313240 0.102935 0.097640
H10   H     H_    0.923255 0.813740 0.897415 0.097218
H11   H     H_    0.913055 0.206306 0.017884 0.098140
H12   H     H_    0.066995 0.684971 0.982886 0.097325
H13   H     H_    0.164538 0.385277 0.075457 0.122570
H14   H     H_    0.830571 0.880131 0.925108 0.122279
H15   H     H_    0.014725 0.233597 0.956436 0.122164
H16   H     H_    0.018175 0.769781 0.041383 0.122567
H17   H     H_    0.085294 0.295246 0.482098 0.097946
H18   H     H_    0.934019 0.816372 0.517507 0.097245
H19   H     H_    0.921718 0.188098 0.397106 0.097800
H20   H     H_    0.078169 0.687685 0.602844 0.097437
C37   C     C_R   0.575402 0.360269 0.662588 -0.162645
C38   C     C_R   0.424612 0.860166 0.338375 -0.162607
H21   H     H_    0.534626 0.446648 0.641941 0.116449
H22   H     H_    0.465390 0.946573 0.359031 0.116589
H23   H     H_    0.664937 0.276895 0.653488 0.124652
H24   H     H_    0.335116 0.776696 0.347992 0.124405
H25   H     H_    0.624072 0.376310 0.629424 0.112369
H26   H     H_    0.375961 0.876147 0.372005 0.112412
C39   C     C_R   0.461172 0.381665 0.712742 -0.027402
C40   C     C_R   0.538796 0.881678 0.287341 -0.027628
C41   C     C_R   0.472487 0.093426 0.829597 -0.002061
C42   C     C_R   0.527517 0.593490 0.169828 -0.002192
C43   C     C_R   0.420243 0.132483 0.841423 -0.205829
C44   C     C_R   0.579744 0.632599 0.157750 -0.205785
C45   C     C_R   0.428704 0.192650 0.812418 -0.154177
C46   C     C_R   0.571279 0.692750 0.186965 -0.154196
C47   C     C_R   0.490487 0.216946 0.769643 0.087779
C48   C     C_R   0.509512 0.716968 0.230250 0.087781
C49   C     C_R   0.544735 0.177578 0.757656 0.034443
C50   C     C_R   0.455290 0.677546 0.242552 0.034586
C51   C     C_R   0.500110 0.279080 0.738730 0.078962
C52   C     C_R   0.499879 0.779079 0.261374 0.078928
C53   C     C_R   0.563951 0.300051 0.695951 0.135218
C54   C     C_R   0.436060 0.799972 0.304737 0.135404
C55   C     C_R   0.616179 0.260921 0.685784 -0.188157
C56   C     C_R   0.383857 0.760784 0.315237 -0.188429
C57   C     C_R   0.606898 0.200917 0.716173 -0.191793
C58   C     C_R   0.393143 0.700803 0.284603 -0.191839
C59   C     C_R   0.448945 0.321385 0.747471 -0.221178
C60   C     C_R   0.551017 0.821432 0.252307 -0.221037
C61   C     C_R   0.524529 0.400520 0.669947 -0.108747
C62   C     C_R   0.475470 0.900465 0.330742 -0.109099
C63   C     C_R   0.535843 0.115694 0.788437 -0.121010
C64   C     C_R   0.464184 0.615690 0.211496 -0.121237
H27   H     H_    0.399191 0.309066 0.778569 0.091263
H28   H     H_    0.600754 0.809175 0.220774 0.091146
H29   H     H_    0.385469 0.219028 0.824446 0.115223
H30   H     H_    0.614499 0.719173 0.174698 0.115067
H31   H     H_    0.371607 0.116146 0.873225 0.112661
H32   H     H_    0.628365 0.616317 0.125562 0.112645
H33   H     H_    0.649222 0.172871 0.706166 0.101499
H34   H     H_    0.350839 0.672708 0.294891 0.101441
C65   C     C_2   0.457367 0.029857 0.861702 0.316907
H35   H     H_    0.408600 0.016889 0.909752 0.047832
O21   O     O_2   0.497706 0.991218 0.832827 -0.526319
C66   C     C_2   0.542624 0.529945 0.137442 0.316868
H36   H     H_    0.591346 0.517028 0.088979 0.047887
O22   O     O_2   0.502323 0.491262 0.166568 -0.526354

loop_
_geom_bond_atom_site_label_1
_geom_bond_atom_site_label_2
_ccdc_geom_bond_type
C19   H13   S    
V4    O20   S    
C66   H36   S    
C32   H16   S    
O6    C8    A    
C21   H11   S    
O13   V3    S    
C40   C62   A    
O4    C2    A    
V1    O19   S    
C54   C56   A    
C65   H35   S    
C15   C17   A    
C45   H29   S    
C55   C57   A    
O9    V1    S    
H22   C62   S    
C25   H5    S    
O16   C6    A    
C46   H30   S    
C11   C13   A    
O3    C1    A    
C2    C35   S    
C23   H3    S    
C12   H2    S    
C24   H4    S    
C51   C59   A    
C39   C59   A    
C18   H10   S    
C2    O12   A    
O7    C3    A    
C9    C11   A    
O5    C7    A    
C44   H32   S    
O7    V1    S    
C15   C31   S    
C37   C61   A    
O8    V2    S    
C25   C27   A    
C46   C48   A    
C26   C28   A    
C5    C39   S    
O3    V1    S    
O14   V4    S    
C22   H12   S    
C3    C64   S    
C24   C36   A    
C31   H15   S    
C56   C58   A    
C16   C18   A    
C21   C29   A    
C51   C53   A    
C41   C65   S    
C17   C19   A    
O10   V2    S    
H24   C56   S    
C18   C20   A    
C33   H7    S    
V2    O20   S    
H23   C55   S    
C42   C44   A    
C47   C49   A    
C28   C30   A    
O11   V3    S    
C21   C23   A    
O17   V3    S    
C22   C24   A    
C50   C58   A    
C23   C35   A    
C9    C19   A    
C20   H14   S    
C10   C20   A    
C53   C55   A    
O8    C4    A    
C29   C33   S    
C1    O11   A    
C14   H18   S    
C16   C32   S    
C48   C52   A    
O15   V3    S    
C7    C9    S    
C41   C63   A    
C6    C40   S    
C27   C29   A    
C38   C62   A    
C44   C46   A    
C41   C43   A    
C22   C30   A    
O1    V3    S    
C50   C64   A    
C11   H1    S    
C52   C54   A    
C26   H6    S    
C37   H25   S    
C34   H8    S    
O18   V4    S    
C48   C50   A    
C31   C33   D    
C42   C64   A    
C30   C34   S    
H21   C61   S    
C52   C60   A    
O1    C3    A    
C57   H33   S    
C12   C14   A    
C60   H28   S    
C1    C36   S    
C49   C57   A    
C17   H9    S    
C37   C53   A    
O10   C6    A    
C66   O22   D    
O16   V4    S    
C58   H34   S    
C42   C66   S    
C49   C63   A    
C45   C47   A    
O5    V1    S    
O17   C7    A    
C4    C63   S    
O6    V2    S    
C39   C61   A    
O18   C8    A    
C25   C35   A    
O2    V4    S    
C26   C36   A    
O15   C5    A    
V3    O19   S    
C14   C16   A    
C43   C45   A    
C13   H17   S    
C38   H26   S    
O9    C5    A    
O13   V1    S    
C10   C12   A    
C32   C34   D    
O14   V2    S    
O2    C4    A    
C27   H19   S    
C65   O21   D    
C59   H27   S    
C8    C10   S    
O4    V2    S    
C13   C15   A    
C38   C54   A    
C43   H31   S    
C28   H20   S    
O12   V4    S    
C47   C51   A    
C40   C60   A    
