data_str_m9_o16_o23_f0_sra.sym.204
_audit_creation_date              2013-03-05T15:48:43-0500
_audit_creation_method            fapswitch 2.2
_symmetry_space_group_name_H-M    P1
_symmetry_Int_Tables_number       1
_space_group_crystal_system       triclinic
_cell_length_a                    22.337211
_cell_length_b                    6.963872
_cell_length_c                    19.361371
_cell_angle_alpha                 89.990507
_cell_angle_beta                  99.269007
_cell_angle_gamma                 89.985037
_cell_volume                      2972.40425993

loop_
_atom_site_label
_atom_site_type_symbol
_atom_site_description
_atom_site_fract_x
_atom_site_fract_y
_atom_site_fract_z
_atom_type_partial_charge
O1    O     O_R   0.448420 0.506120 0.415750 -0.588376
O2    O     O_R   0.551580 0.006120 0.584250 -0.588436
O3    O     O_R   0.436490 0.174470 0.555610 -0.577995
O4    O     O_R   0.563510 0.674470 0.444390 -0.577956
C1    C     C_R   0.421119 0.345058 0.575691 0.952399
C2    C     C_R   0.578887 0.845047 0.424316 0.952498
O5    O     O_R   0.441310 0.176330 0.414520 -0.586965
O6    O     O_R   0.558690 0.676330 0.585480 -0.586978
O7    O     O_R   0.556430 0.007110 0.442150 -0.584005
O8    O     O_R   0.443570 0.507110 0.557850 -0.583921
C3    C     C_R   0.426829 0.345120 0.388351 0.941278
C4    C     C_R   0.573180 0.845034 0.611646 0.941271
O9    O     O_3   0.537770 0.339560 0.509230 -0.268384
O10   O     O_3   0.462230 0.839560 0.490770 -0.268308
V1    V     V_3+5 0.492990 0.064280 0.498290 1.210986
V2    V     V_3+5 0.507010 0.564280 0.501710 1.211071
C5    C     C_R   0.868737 0.926203 0.694947 -0.132437
C6    C     C_R   0.131119 0.420355 0.304972 -0.132835
H1    H     H_    0.887751 0.933763 0.646924 0.147192
H2    H     H_    0.112020 0.425033 0.352983 0.147358
C7    C     C_R   0.884601 0.937397 0.821377 -0.138829
C8    C     C_R   0.115381 0.436877 0.178623 -0.138931
C9    C     C_R   0.589277 0.826976 0.739923 -0.201888
C10   C     C_R   0.410912 0.331002 0.260002 -0.202239
C11   C     C_R   0.625855 0.802240 0.804394 -0.135539
C12   C     C_R   0.374464 0.308166 0.195351 -0.135184
C13   C     C_R   0.689229 0.804435 0.810777 0.322392
C14   C     C_R   0.311078 0.309016 0.188850 0.322709
C15   C     C_R   0.717172 0.854933 0.751827 -0.068039
C16   C     C_R   0.282941 0.355999 0.248002 -0.068405
C17   C     C_R   0.678950 0.866403 0.684734 0.075737
C18   C     C_R   0.321057 0.365381 0.315206 0.075626
C19   C     C_R   0.781283 0.889719 0.756019 0.116662
C20   C     C_R   0.218751 0.389329 0.243881 0.116741
C21   C     C_R   0.805967 0.904455 0.692962 0.143299
C22   C     C_R   0.193950 0.400443 0.306951 0.143212
C23   C     C_R   0.767943 0.901295 0.628186 -0.162950
C24   C     C_R   0.231903 0.395393 0.371755 -0.163997
C25   C     C_R   0.705463 0.888060 0.624136 -0.158645
C26   C     C_R   0.294415 0.383646 0.375850 -0.158399
C27   C     C_R   0.821679 0.919212 0.819987 -0.125105
C28   C     C_R   0.178360 0.420668 0.180028 -0.126454
C29   C     C_R   0.907748 0.938704 0.758611 -0.154282
C30   C     C_R   0.092146 0.434439 0.241329 -0.154508
C31   C     C_R   0.614851 0.851162 0.679400 -0.180032
C32   C     C_R   0.385194 0.351721 0.320578 -0.179970
H3    H     H_    0.805481 0.934211 0.869210 0.146306
H4    H     H_    0.194574 0.438312 0.130921 0.146752
H5    H     H_    0.540500 0.815639 0.736656 0.169579
H6    H     H_    0.459725 0.321087 0.263297 0.169654
H7    H     H_    0.604469 0.767397 0.849198 0.187355
H8    H     H_    0.395991 0.276041 0.150407 0.187448
H9    H     H_    0.677991 0.892799 0.572696 0.109365
H10   H     H_    0.321810 0.386788 0.427352 0.109379
C33   C     C_3   0.820064 0.831837 0.280770 -0.421554
C34   C     C_3   0.179966 0.331889 0.719255 -0.421758
C35   C     C_3   0.762046 0.113626 0.215416 0.090024
C36   C     C_3   0.237960 0.613536 0.784634 0.089968
C37   C     C_3   0.711627 0.099942 0.263875 0.031011
C38   C     C_3   0.288385 0.599881 0.736181 0.030964
H11   H     H_    0.788938 0.976896 0.367320 0.131964
H12   H     H_    0.211091 0.477049 0.632716 0.132096
H13   H     H_    0.862887 0.908252 0.301347 0.199708
H14   H     H_    0.137136 0.408351 0.698677 0.199750
H15   H     H_    0.740282 0.159848 0.162167 0.142968
H16   H     H_    0.259716 0.659661 0.837888 0.143189
H17   H     H_    0.724140 0.196474 0.309522 0.168602
H18   H     H_    0.275870 0.696512 0.690543 0.168597
C39   C     C_1   0.624745 0.857806 0.379148 -0.208913
C40   C     C_1   0.375273 0.357842 0.620874 -0.208868
C41   C     C_3   0.791376 0.912249 0.207590 0.093797
C42   C     C_3   0.208645 0.412171 0.792442 0.093612
C43   C     C_3   0.774513 0.850021 0.333690 0.176085
C44   C     C_3   0.225521 0.350116 0.666343 0.176333
C45   C     C_3   0.708993 0.890775 0.293446 -0.036172
C46   C     C_3   0.291034 0.390762 0.706593 -0.036253
C47   C     C_3   0.694368 0.748326 0.230718 -0.267827
C48   C     C_3   0.305663 0.248186 0.769306 -0.268124
C49   C     C_3   0.739059 0.774518 0.177627 -0.423607
C50   C     C_3   0.260972 0.274355 0.822400 -0.423175
C51   C     C_1   0.662671 0.873256 0.340893 0.123077
C52   C     C_1   0.337355 0.373283 0.659142 0.123172
C53   C     C_1   0.837445 0.924222 0.159689 0.121087
C54   C     C_1   0.162571 0.424132 0.840336 0.121429
C55   C     C_1   0.875254 0.937232 0.121163 -0.208241
C56   C     C_1   0.124755 0.437169 0.878853 -0.207845
H19   H     H_    0.757190 0.632574 0.165276 0.236702
H20   H     H_    0.242852 0.132414 0.834750 0.236632
H21   H     H_    0.714198 0.832404 0.127520 0.220793
H22   H     H_    0.285831 0.332165 0.872509 0.221240
H23   H     H_    0.696819 0.597901 0.249539 0.232608
H24   H     H_    0.303211 0.097799 0.750463 0.232581
O11   O     O_R   0.056480 0.288780 0.942210 -0.586386
O12   O     O_R   0.943520 0.788780 0.057790 -0.586381
O13   O     O_R   0.058700 0.616820 0.085490 -0.590433
O14   O     O_R   0.941300 0.116820 0.914510 -0.590140
C57   C     C_R   0.073184 0.448086 0.111701 0.944310
C58   C     C_R   0.926811 0.948168 0.888299 0.944043
O15   O     O_R   0.063520 0.618570 0.944410 -0.578859
O16   O     O_R   0.936480 0.118570 0.055590 -0.578858
O17   O     O_R   0.948420 0.787670 0.915740 -0.581459
O18   O     O_R   0.051580 0.287670 0.084260 -0.581557
C59   C     C_R   0.078995 0.449420 0.924202 0.968489
C60   C     C_R   0.921007 0.949436 0.075802 0.968228
O19   O     O_3   0.962260 0.453430 0.990800 -0.262320
O20   O     O_3   0.037740 0.953430 0.009200 -0.262490
V3    V     V_3+5 0.007000 0.728750 0.001710 1.233354
V4    V     V_3+5 0.993000 0.228750 0.998290 1.233578
H25   H     H_    0.956105 0.952499 0.758905 0.135188
H26   H     H_    0.043738 0.446434 0.241017 0.135325
N1    N     N_R   0.808722 0.257172 0.240632 0.234460
O21   O     O_R   0.836057 0.256795 0.305260 -0.379648
O22   O     O_R   0.830775 0.363072 0.195409 -0.433709
N2    N     N_R   0.191275 0.757157 0.759424 0.234480
O23   O     O_R   0.163906 0.756792 0.694809 -0.379578
O24   O     O_R   0.169250 0.863127 0.804648 -0.433668
N3    N     N_R   0.652205 0.164845 0.227372 0.244710
O25   O     O_R   0.630273 0.103296 0.164948 -0.383881
O26   O     O_R   0.621578 0.291302 0.256797 -0.400141
N4    N     N_R   0.347804 0.664657 0.772695 0.244687
O27   O     O_R   0.369721 0.603038 0.835130 -0.383637
O28   O     O_R   0.378454 0.790982 0.743259 -0.400106
H27   H     H_    0.832805 0.678982 0.275289 0.250968
H28   H     H_    0.167236 0.179038 0.724731 0.251017
N5    N     N_R   0.777617 0.684088 0.380826 0.261184
O29   O     O_R   0.796409 0.706909 0.447503 -0.394614
O30   O     O_R   0.760595 0.514634 0.357663 -0.376989
N6    N     N_R   0.222443 0.184249 0.619203 0.261201
O31   O     O_R   0.203851 0.207290 0.552496 -0.395707
O32   O     O_R   0.239304 0.014637 0.642394 -0.376861
H29   H     H_    0.786601 0.914709 0.580075 0.174908
H30   H     H_    0.213145 0.406117 0.419884 0.176264
H31   H     H_    0.647006 0.767349 0.203668 0.221638
H32   H     H_    0.353027 0.267093 0.796355 0.221695
N7    N     N_R   0.722984 0.726445 0.873903 0.219853
O33   O     O_R   0.761032 0.586560 0.870330 -0.394675
O34   O     O_R   0.707985 0.769565 0.934255 -0.387462
N8    N     N_R   0.277558 0.233290 0.125217 0.219860
O35   O     O_R   0.239802 0.092135 0.127876 -0.394399
O36   O     O_R   0.292519 0.280006 0.065170 -0.387408

loop_
_geom_bond_atom_site_label_1
_geom_bond_atom_site_label_2
_geom_bond_distance
_ccdc_geom_bond_type
O17   V3    1.987202 S    
C2    C39   1.452771 S    
O15   C59   1.305218 A    
C9    C31   1.394073 A    
C13   C15   1.430175 A    
N1    O21   1.300943 A    
O1    C3    1.299664 A    
O2    C4    1.299848 A    
N6    O31   1.301293 A    
O11   C59   1.297141 A    
C2    O7    1.303917 A    
C41   C49   1.550656 S    
N2    O23   1.300942 A    
N7    O33   1.301763 A    
C25   H9    1.082892 S    
O5    C3    1.299920 A    
O19   V3    2.156965 S    
C44   C46   1.569016 S    
C34   H28   1.111279 S    
C21   C23   1.397008 A    
C46   C48   1.561577 S    
C12   H8    1.083160 S    
N3    O26   1.301351 A    
O11   V4    1.964801 S    
C48   C50   1.554687 S    
C9    H5    1.084067 S    
O20   V3    1.705631 S    
C36   C38   1.580553 S    
C15   C19   1.441818 A    
O16   C60   1.305184 A    
O6    V2    1.992435 S    
C54   C56   1.216875 T    
C37   H17   1.109877 S    
C7    C29   1.395214 A    
C36   H16   1.114106 S    
C8    C30   1.395204 A    
C20   C28   1.424977 A    
C34   C42   1.561673 S    
O14   C58   1.299671 A    
C8    C28   1.407159 A    
C34   H14   1.111056 S    
O18   V4    1.987458 S    
C16   C18   1.437146 A    
C20   C22   1.421949 A    
C57   O18   1.296528 A    
O5    V1    1.991987 S    
O14   V4    1.992446 S    
O12   C60   1.297120 A    
C37   N3    1.470716 S    
C8    C57   1.476441 S    
C50   H20   1.108760 S    
C43   C45   1.569075 S    
C47   H31   1.110184 S    
C56   C59   1.453314 S    
C49   H19   1.108767 S    
N4    O28   1.301256 A    
C41   C53   1.494492 S    
C47   C49   1.554664 S    
C10   H6    1.084094 S    
C23   C25   1.388232 A    
O19   V4    1.705258 S    
C33   H27   1.111283 S    
O12   V3    1.964722 S    
O16   V4    1.965916 S    
C34   C44   1.561061 S    
C16   C20   1.441879 A    
C14   N8    1.435200 S    
O4    C2    1.312689 A    
C46   C52   1.495209 S    
C45   C51   1.495204 S    
C29   H25   1.083546 S    
C48   H24   1.107518 S    
C38   C46   1.569577 S    
C23   H29   1.084052 S    
C33   H13   1.111060 S    
C24   H30   1.084078 S    
O4    V2    1.965876 S    
C5    C29   1.392966 A    
C1    C40   1.452768 S    
C6    C30   1.392906 A    
C45   C47   1.561587 S    
O6    C4    1.299702 A    
C27   H3    1.077580 S    
N1    O22   1.300808 A    
O1    V2    1.986346 S    
C28   H4    1.077572 S    
C35   C41   1.565368 S    
O2    V1    1.986095 S    
C48   H32   1.110199 S    
C42   C54   1.494462 S    
C55   C60   1.453330 S    
O13   V3    1.992000 S    
C7    C27   1.407158 A    
C53   C55   1.216885 T    
C26   H10   1.082919 S    
O9    V1    2.157132 S    
N5    O29   1.301370 A    
O10   V2    2.156605 S    
C35   C37   1.580553 S    
C5    H1    1.083926 S    
C37   C45   1.569582 S    
C44   N6    1.467008 S    
O3    V1    1.965761 S    
N4    O27   1.301596 A    
N5    O30   1.297573 A    
N7    O34   1.301547 A    
C47   H23   1.107495 S    
C18   C32   1.422772 A    
C10   C12   1.388083 A    
C35   H15   1.114105 S    
C4    C31   1.481814 S    
O3    C1    1.312713 A    
N6    O32   1.297573 A    
N2    O24   1.300810 A    
O13   C57   1.299866 A    
N8    O36   1.301631 A    
C11   C13   1.401105 A    
C58   O17   1.296690 A    
O15   V3    1.965801 S    
C12   C14   1.401132 A    
C11   H7    1.083090 S    
H11   C43   1.114071 S    
C22   C24   1.396966 A    
O7    V1    1.960636 S    
C19   C27   1.424949 A    
C1    O8    1.303961 A    
C15   C17   1.437138 A    
O8    V2    1.960710 S    
N3    O25   1.301532 A    
C24   C26   1.388184 A    
C7    C58   1.476470 S    
C36   C42   1.565354 S    
C35   N1    1.470159 S    
O20   V4    2.156438 S    
C43   N5    1.467017 S    
C14   C16   1.430245 A    
C19   C21   1.421930 A    
C17   C25   1.404958 A    
C38   N4    1.470721 S    
C6    H2    1.083942 S    
C18   C26   1.405004 A    
C50   H22   1.112796 S    
C40   C52   1.216550 T    
C49   H21   1.112776 S    
C39   C51   1.216544 T    
N8    O35   1.301773 A    
C33   C43   1.561056 S    
C9    C11   1.388053 A    
C38   H18   1.109895 S    
C42   C50   1.550666 S    
C17   C31   1.422813 A    
O9    V2    1.705699 S    
C36   N2    1.470160 S    
O10   V1    1.706073 S    
H12   C44   1.114083 S    
C3    C32   1.481784 S    
C5    C21   1.404659 A    
C13   N7    1.435252 S    
C6    C22   1.404629 A    
C33   C41   1.561656 S    
C10   C32   1.394068 A    
C30   H26   1.083536 S    
