data_str_m2_o9_o18_f0_pcu.sym.201
_audit_creation_date              2013-03-05T16:48:30-0500
_audit_creation_method            fapswitch 2.2
_symmetry_space_group_name_H-M    P1
_symmetry_Int_Tables_number       1
_space_group_crystal_system       triclinic
_cell_length_a                    10.812476
_cell_length_b                    14.638772
_cell_length_c                    14.668226
_cell_angle_alpha                 65.495962
_cell_angle_beta                  103.281157
_cell_angle_gamma                 102.628878
_cell_volume                      2036.05001134

loop_
_atom_site_label
_atom_site_type_symbol
_atom_site_description
_atom_site_fract_x
_atom_site_fract_y
_atom_site_fract_z
_atom_type_partial_charge
O1    O     O_R   0.455540 0.022090 0.338120 -0.592507
O2    O     O_R   0.544460 0.977910 0.661880 -0.592434
O3    O     O_R   0.512510 0.160150 0.379180 -0.589650
O4    O     O_R   0.487490 0.839850 0.620820 -0.587615
C1    C     C_R   0.477752 0.119499 0.312226 0.819576
C2    C     C_R   0.522988 0.880459 0.687790 0.818732
O5    O     O_R   0.291160 0.930970 0.479480 -0.582100
O6    O     O_R   0.708840 0.069030 0.520520 -0.581888
O7    O     O_R   0.348130 0.069020 0.520540 -0.586020
O8    O     O_R   0.651870 0.930980 0.479460 -0.586314
C3    C     C_R   0.262800 0.999432 0.502143 0.814553
C4    C     C_R   0.737186 0.000614 0.497778 0.813229
Cu1   Cu    Cu3+1 0.466270 0.918260 0.475690 0.964894
Cu2   Cu    Cu3+1 0.533730 0.081740 0.524310 0.964704
H1    H     H_    0.438104 0.193557 0.809745 0.160798
H2    H     H_    0.555896 0.803372 0.195752 0.154490
C5    C     C_R   0.339423 0.056143 0.791341 -0.176048
C6    C     C_R   0.655555 0.941475 0.211990 -0.171236
H3    H     H_    0.388988 0.008843 0.863050 0.168793
H4    H     H_    0.603684 0.988235 0.141225 0.168939
C7    C     C_R   0.246985 0.012418 0.730452 0.359252
C8    C     C_R   0.749856 0.985949 0.271175 0.360795
C9    C     C_R   0.185857 0.078010 0.636112 -0.000580
C10   C     C_R   0.813788 0.921140 0.364496 -0.001008
C11   C     C_R   0.214253 0.183588 0.608353 -0.162652
C12   C     C_R   0.786502 0.815494 0.392733 -0.162158
H5    H     H_    0.167583 0.234239 0.537132 0.160567
H6    H     H_    0.835155 0.765405 0.463256 0.160943
C13   C     C_R   0.303802 0.224760 0.671168 -0.114303
C14   C     C_R   0.695023 0.773525 0.331557 -0.111820
H7    H     H_    0.324850 0.306189 0.649005 0.152211
H8    H     H_    0.674519 0.692047 0.354220 0.151597
C15   C     C_R   0.367481 0.161250 0.761785 -0.184327
C16   C     C_R   0.628349 0.836298 0.242179 -0.185441
C17   C     C_R   0.963402 0.040316 0.559238 -0.167632
C18   C     C_R   0.036554 0.959863 0.440437 -0.167193
H9    H     H_    0.935083 0.069734 0.607039 0.154597
H10   H     H_    0.064868 0.930337 0.392721 0.154748
C19   C     C_R   0.870606 0.000332 0.496588 -0.051197
C20   C     C_R   0.129360 0.999844 0.503123 -0.050862
C21   C     C_R   0.907180 0.960329 0.435744 0.064911
C22   C     C_R   0.092751 0.039708 0.564066 0.064476
C23   C     C_R   0.459777 0.186761 0.204831 -0.018433
C24   C     C_R   0.537523 0.813146 0.795300 -0.023855
C25   C     C_R   0.384039 0.216286 0.028022 -0.143764
C26   C     C_R   0.591993 0.784565 0.973306 -0.136886
C27   C     C_R   0.404424 0.149350 0.128817 -0.144559
C28   C     C_R   0.579704 0.851138 0.872078 -0.137518
C29   C     C_R   0.495827 0.290933 0.179170 -0.185617
C30   C     C_R   0.507953 0.708589 0.820577 -0.191142
C31   C     C_R   0.471333 0.360442 0.078908 0.100197
C32   C     C_R   0.515303 0.639916 0.921846 0.104885
C33   C     C_R   0.416275 0.321231 0.002632 0.168245
C34   C     C_R   0.560698 0.679572 0.998687 0.168052
C35   C     C_R   0.500332 0.467277 0.052579 0.077209
C36   C     C_R   0.480540 0.533331 0.948558 0.078953
C37   C     C_R   0.424271 0.490751 0.875007 -0.169444
C38   C     C_R   0.545641 0.510336 0.126831 -0.168555
C39   C     C_R   0.392876 0.386905 0.901880 -0.173498
C40   C     C_R   0.574586 0.614303 0.100071 -0.169952
H11   H     H_    0.349925 0.357801 0.843025 0.150165
H12   H     H_    0.608007 0.643795 0.159530 0.145916
H13   H     H_    0.481461 0.682590 0.759294 0.142509
H14   H     H_    0.544319 0.315635 0.239314 0.148858
H15   H     H_    0.603469 0.931927 0.853981 0.149947
H16   H     H_    0.376621 0.068755 0.147220 0.151000
H17   H     H_    0.341510 0.186110 0.969965 0.139910
H18   H     H_    0.625962 0.815162 0.031831 0.135114
H19   H     H_    0.399838 0.535225 0.795517 0.146180
H20   H     H_    0.556715 0.466437 0.207191 0.140487
N1    N     N_R   0.584450 0.204570 0.560790 -0.192764
N2    N     N_R   0.415550 0.795430 0.439210 -0.192424
C41   C     C_R   0.715556 0.284162 0.669849 0.078941
C42   C     C_R   0.279648 0.714966 0.332516 0.077495
C43   C     C_R   0.682839 0.204095 0.636811 0.038726
C44   C     C_R   0.315640 0.795884 0.364278 0.038523
C45   C     C_R   0.519656 0.285710 0.509705 0.027970
C46   C     C_R   0.479126 0.713656 0.490345 0.026942
C47   C     C_R   0.548572 0.371051 0.537528 -0.071861
C48   C     C_R   0.447164 0.627598 0.463587 -0.071705
C49   C     C_R   0.640338 0.365049 0.626202 0.034675
C50   C     C_R   0.353441 0.633137 0.376022 0.034646
C51   C     C_R   0.486151 0.459864 0.482026 0.042362
C52   C     C_R   0.508293 0.538297 0.519484 0.041801
C53   C     C_R   0.585150 0.522737 0.614708 -0.266713
C54   C     C_R   0.406825 0.474597 0.387835 -0.270012
C55   C     C_R   0.649039 0.438150 0.668106 0.186820
C56   C     C_R   0.341375 0.558499 0.335336 0.185527
H21   H     H_    0.557959 0.719171 0.548831 0.134340
H22   H     H_    0.442129 0.279947 0.450527 0.134920
H23   H     H_    0.261859 0.859428 0.330168 0.144914
H24   H     H_    0.737479 0.141050 0.671182 0.144753
H25   H     H_    0.591383 0.573210 0.652655 0.153117
H26   H     H_    0.398115 0.423373 0.350361 0.152441
I1    I     I_    0.721468 0.419039 0.822041 -0.262695
I2    I     I_    0.257613 0.572232 0.184429 -0.260988
I3    I     I_    0.897740 0.282272 0.764255 -0.304780
I4    I     I_    0.095418 0.718299 0.240729 -0.302626
N3    N     N_R   0.215627 0.903227 0.766689 0.106036
O9    O     O_R   0.112835 0.859977 0.726053 -0.351358
O10   O     O_R   0.282841 0.846058 0.848147 -0.351574
N4    N     N_R   0.780008 0.095164 0.234444 0.104640
O11   O     O_R   0.885318 0.139002 0.271669 -0.350030
O12   O     O_R   0.709002 0.151703 0.155306 -0.352286

loop_
_geom_bond_atom_site_label_1
_geom_bond_atom_site_label_2
_geom_bond_distance
_ccdc_geom_bond_type
C14   H8    1.082411 S    
C35   C36   1.423195 A    
C56   I2    2.133038 S    
C10   C21   1.483279 S    
Cu2   N1    2.013026 S    
N2    C44   1.351528 A    
C33   C39   1.388643 A    
C42   I4    2.130453 S    
C34   C40   1.388702 A    
C41   I3    2.130124 S    
C9    C22   1.483419 S    
C42   C44   1.394476 A    
O1    C1    1.295444 A    
C17   H9    1.085173 S    
C10   C12   1.405578 A    
C7    N3    1.446886 S    
C46   C48   1.420577 A    
C37   C39   1.385751 A    
C38   C40   1.385986 A    
C13   C15   1.392663 A    
C54   C56   1.395513 A    
C36   C37   1.418818 A    
C40   H12   1.084869 S    
O4    Cu1   1.940558 S    
C17   C22   1.385830 A    
N2    C46   1.358755 A    
C54   H26   1.077284 S    
H2    C16   1.082508 S    
C53   H25   1.078157 S    
C51   C52   1.421330 A    
C29   C31   1.402103 A    
C55   I1    2.132908 S    
C25   H17   1.084018 S    
C30   C32   1.401943 A    
C28   H15   1.083149 S    
C27   H16   1.083148 S    
C31   C35   1.426018 A    
C48   C52   1.434482 A    
C25   C27   1.391975 A    
C1    C23   1.464643 S    
C25   C33   1.403991 A    
C29   H14   1.073848 S    
C2    C24   1.465390 S    
Cu1   Cu2   2.679787 S    
C30   H13   1.073662 S    
C41   C43   1.394594 A    
C18   C21   1.386051 A    
O2    C2    1.295914 A    
C5    C15   1.396556 A    
C42   C50   1.424300 A    
C41   C49   1.423523 A    
C32   C34   1.418553 A    
O5    C3    1.290932 A    
C45   C47   1.420752 A    
C46   H21   1.077223 S    
C11   C13   1.394740 A    
C26   C28   1.392037 A    
C45   H22   1.076463 S    
C39   H11   1.084840 S    
C14   C16   1.392473 A    
C53   C55   1.394584 A    
C3    C20   1.447539 S    
C18   C20   1.400214 A    
C52   C53   1.406756 A    
C48   C50   1.426449 A    
C47   C49   1.426325 A    
C23   C29   1.396581 A    
C5    C7    1.410922 A    
C31   C33   1.418779 A    
C17   C19   1.399842 A    
O7    Cu2   1.964463 S    
C26   H18   1.083805 S    
C6    C16   1.396225 A    
N3    O9    1.300918 A    
O6    C4    1.290981 A    
C26   C34   1.403985 A    
N4    O12   1.301286 A    
O7    C3    1.290137 A    
C49   C55   1.416608 A    
O3    Cu2   1.940558 S    
O8    C4    1.290107 A    
C43   H24   1.081929 S    
O4    C2    1.295029 A    
N3    O10   1.301428 A    
C12   C14   1.394565 A    
C7    C9    1.424361 A    
C8    C10   1.423531 A    
O1    Cu1   1.954730 S    
N1    C45   1.359230 A    
C24   C30   1.397188 A    
O6    Cu2   1.957947 S    
C6    C8    1.410322 A    
C38   H20   1.075721 S    
O3    C1    1.295103 A    
O8    Cu1   1.964463 S    
Cu1   N2    2.013026 S    
C11   H5    1.083808 S    
C12   H6    1.083467 S    
C8    N4    1.446002 S    
C4    C19   1.447633 S    
C18   H10   1.085209 S    
C13   H7    1.082729 S    
N1    C43   1.351649 A    
C50   C56   1.417658 A    
C20   C22   1.411612 A    
C5    H3    1.082656 S    
C6    H4    1.082391 S    
C9    C11   1.405925 A    
N4    O11   1.300767 A    
O2    Cu2   1.954731 S    
C44   H23   1.081913 S    
C47   C51   1.435913 A    
C32   C36   1.425963 A    
O5    Cu1   1.957946 S    
C51   C54   1.407231 A    
C19   C21   1.411642 A    
C35   C38   1.418756 A    
C37   H19   1.075710 S    
C23   C27   1.399268 A    
H1    C15   1.083016 S    
C24   C28   1.399384 A    
