data_str_m3_o11_o29_f0_pcu.sym.151
_audit_creation_date              2012-12-10T17:13:34-0500
_audit_creation_method            fapswitch 2.2
_symmetry_space_group_name_H-M    P1
_symmetry_Int_Tables_number       1
_space_group_crystal_system       triclinic
_cell_length_a                    27.620018
_cell_length_b                    10.672545
_cell_length_c                    10.118302
_cell_angle_alpha                 91.460843
_cell_angle_beta                  90.398672
_cell_angle_gamma                 90.99274
_cell_volume                      2981.13276457

loop_
_atom_site_label
_atom_site_type_symbol
_atom_type_description
_atom_site_fract_x
_atom_site_fract_y
_atom_site_fract_z
_atom_type_partial_charge
C1    C     C_R   0.499074 0.263215 0.497623 0.985179
C2    C     C_R   0.975134 0.407459 0.398186 0.040501
C3    C     C_R   0.974563 0.628128 0.473314 -0.035683
C4    C     C_R   0.406155 0.500595 0.499467 0.938833
C5    C     C_R   0.949490 0.515065 0.439449 0.060098
C6    C     C_R   0.949982 0.291824 0.387273 -0.044839
C7    C     C_R   0.899965 0.284979 0.400496 -0.063639
C8    C     C_R   0.873893 0.393302 0.429699 -0.050602
C9    C     C_R   0.898721 0.508570 0.450562 -0.054510
C10   C     C_R   0.872920 0.616889 0.484616 -0.084357
C11   C     C_R   0.822685 0.607863 0.498190 0.682905
C12   C     C_R   0.279003 0.547427 0.378992 0.431032
C13   C     C_R   0.823467 0.389351 0.440579 0.668882
C14   C     C_R   0.724042 0.447857 0.593862 0.413658
C15   C     C_R   0.673607 0.447617 0.598420 -0.140066
C16   C     C_R   0.504186 0.736736 0.502220 0.975321
C17   C     C_R   0.670295 0.539041 0.382137 -0.203168
C18   C     C_R   0.720368 0.534487 0.372242 0.432825
C19   C     C_R   0.747556 0.491504 0.479987 0.004080
C20   C     C_R   0.025800 0.417143 0.381037 -0.080726
C21   C     C_R   0.050660 0.517857 0.447757 0.072844
C22   C     C_R   0.024800 0.620916 0.498809 0.015353
C23   C     C_R   0.252541 0.509117 0.489962 0.157542
C24   C     C_R   0.053077 0.329294 0.305899 0.305100
C25   C     C_R   0.098280 0.701878 0.609811 0.437388
C26   C     C_R   0.947707 0.740369 0.486819 0.323312
C27   C     C_R   0.897413 0.732351 0.498238 -0.162513
C28   C     C_R   0.593877 0.499427 0.499748 0.994083
C29   C     C_R   0.048518 0.706000 0.585969 -0.159570
C30   C     C_2   0.533995 0.937614 0.418369 0.426683
C31   C     C_2   0.515809 0.867315 0.513836 -0.364236
C32   C     C_2   0.536989 0.070207 0.449725 0.190281
C33   C     C_2   0.496383 0.131123 0.485878 0.075723
C34   C     C_R   0.101317 0.514579 0.465069 -0.087691
C35   C     C_2   0.536097 0.533169 0.933601 0.431613
C36   C     C_2   0.538119 0.495904 0.074672 -0.009209
C37   C     C_R   0.177170 0.412465 0.421683 0.628320
C38   C     C_R   0.177069 0.604763 0.547837 0.630101
C39   C     C_R   0.276478 0.470890 0.603946 -0.121546
C40   C     C_R   0.326721 0.468969 0.608061 -0.142531
C41   C     C_R   0.329357 0.543065 0.383257 -0.239950
C42   C     C_R   0.127119 0.415726 0.405445 -0.071493
C43   C     C_R   0.103054 0.326242 0.324368 -0.100757
C44   C     C_R   0.125967 0.608849 0.542646 -0.158094
C45   C     C_R   0.353366 0.503924 0.497229 -0.088738
C46   C     C_R   0.646726 0.497067 0.495272 -0.162733
H1    H     H_    0.349949 0.571642 0.298187 0.203928
H2    H     H_    0.877255 0.817757 0.512811 0.222216
H3    H     H_    0.724074 0.621686 0.025385 0.419589
H4    H     H_    0.027524 0.772936 0.641419 0.239652
H5    H     H_    0.584232 0.966977 0.088497 0.403122
H6    H     H_    0.509730 0.910123 0.611147 0.184746
H7    H     H_    0.669503 0.076511 0.452646 0.410788
H8    H     H_    0.305341 0.608571 0.084254 0.375786
H9    H     H_    0.364583 0.145411 0.459586 0.407612
H10   H     H_    0.632498 0.764730 0.986734 0.406154
H11   H     H_    0.405550 0.257862 0.812122 0.391836
H12   H     H_    0.649553 0.575175 0.300797 0.247582
H13   H     H_    0.572698 0.473465 0.118865 0.193608
H14   H     H_    0.123490 0.256710 0.269572 0.236225
H15   H     H_    0.741371 0.356318 0.936337 0.421947
H16   H     H_    0.881924 0.194356 0.389417 0.224740
H17   H     H_    0.985453 0.390258 0.089392 0.368874
H18   H     H_    0.472810 0.553745 0.111699 0.233051
H19   H     H_    0.655284 0.406453 0.680953 0.261801
H20   H     H_    0.968943 0.205184 0.373658 0.238635
H21   H     H_    0.344621 0.438642 0.696962 0.212110
H22   H     H_    0.255954 0.442180 0.689161 0.190440
H23   H     H_    0.093622 0.944280 0.873219 0.420684
H24   H     H_    0.947886 0.977729 0.642053 0.368102
N1    N     N_R   0.200903 0.508049 0.487738 -0.357783
N2    N     N_R   0.799164 0.495716 0.474569 -0.331142
N3    N     N_2   0.500520 0.501330 0.852150 -0.016186
N4    N     N_2   0.500540 0.501360 0.147810 -0.162070
O1    O     O_R   0.499990 0.319060 0.613040 -0.549072
O2    O     O_R   0.571240 0.499960 0.613080 -0.576496
O3    O     O_R   0.571250 0.500000 0.386950 -0.618456
O4    O     O_2   0.202308 0.315748 0.369945 -0.484969
O5    O     O_2   0.152423 0.743952 0.829060 -0.200903
O6    O     O_2   0.152618 0.908083 0.662977 -0.182511
O7    O     O_3   0.077109 0.883957 0.811217 -0.503087
O8    O     O_2   0.020351 0.883611 0.389210 -0.191905
O9    O     O_2   0.938320 0.963749 0.375545 -0.274401
O10   O     O_3   0.980780 0.970434 0.604577 -0.503688
O11   O     O_2   0.769962 0.712633 0.247321 -0.224540
O12   O     O_2   0.798759 0.280988 0.415785 -0.483477
O13   O     O_2   0.786747 0.494806 0.183195 -0.275986
O14   O     O_3   0.706218 0.590115 0.102661 -0.499479
O15   O     O_2   0.588700 0.776707 0.282424 -0.259423
O16   O     O_2   0.511452 0.834639 0.180791 -0.246302
O17   O     O_3   0.582214 0.997630 0.181442 -0.444331
O18   O     O_2   0.602040 0.231700 0.351195 -0.267826
O19   O     O_2   0.601505 0.208263 0.591936 -0.337851
O20   O     O_3   0.638210 0.029821 0.447412 -0.450242
O21   O     O_2   0.227589 0.493101 0.158830 -0.250520
O22   O     O_2   0.211066 0.692061 0.272961 -0.206860
O23   O     O_2   0.203371 0.697655 0.607304 -0.423081
O24   O     O_3   0.290259 0.675890 0.138238 -0.469867
O25   O     O_2   0.431506 0.979005 0.355637 -0.237101
O26   O     O_2   0.423951 0.000009 0.596785 -0.282185
O27   O     O_3   0.397120 0.185475 0.454790 -0.540879
O28   O     O_2   0.627395 0.546428 0.852554 -0.283816
O29   O     O_2   0.573707 0.709302 0.771965 -0.277992
O30   O     O_3   0.602372 0.721886 0.015202 -0.494903
O31   O     O_2   0.476590 0.297803 0.991955 -0.260806
O32   O     O_2   0.415528 0.461365 0.970064 -0.328793
O33   O     O_3   0.430405 0.313403 0.772963 -0.475493
O34   O     O_2   0.797347 0.710096 0.534197 -0.482867
O35   O     O_2   0.776784 0.267054 0.698317 -0.226475
O36   O     O_2   0.797721 0.483485 0.765774 -0.272592
O37   O     O_3   0.720053 0.381915 0.863052 -0.485090
O38   O     O_2   0.065676 0.246749 0.055986 -0.242197
O39   O     O_2   0.021340 0.108656 0.202076 -0.170625
O40   O     O_3   0.977237 0.302752 0.112193 -0.494062
O41   O     O_R   0.500010 0.319100 0.386900 -0.578545
O42   O     O_R   0.428750 0.500000 0.613050 -0.567521
O43   O     O_R   0.428760 0.500040 0.386920 -0.610055
O44   O     O_R   0.499990 0.680900 0.613100 -0.590211
O45   O     O_R   0.500010 0.680940 0.386960 -0.564733
S1    S     S_3+6 0.122074 0.811109 0.730279 0.134630
S2    S     S_3+6 0.756698 0.393803 0.731710 0.091700
S3    S     S_3+6 0.029528 0.243089 0.166314 0.080062
S4    S     S_3+6 0.972734 0.892034 0.459597 0.056081
S5    S     S_3+6 0.747869 0.584203 0.224361 0.084830
S6    S     S_3+6 0.554081 0.881659 0.262156 0.144696
S7    S     S_3+6 0.595754 0.140448 0.460683 0.064958
S8    S     S_3+6 0.250155 0.602071 0.235120 0.104753
S9    S     S_3+6 0.436277 0.067952 0.472808 0.051678
S10   S     S_3+6 0.585598 0.628573 0.886378 0.068923
S11   S     S_3+6 0.455779 0.393146 0.901484 0.115442
Zn1   Zn    Zn3+2 0.499990 0.499970 0.650990 1.166357
Zn2   Zn    Zn3+2 0.500010 0.500030 0.349010 1.117051

loop_
_geom_bond_atom_site_label_1
_geom_bond_atom_site_label_2
_ccdc_geom_bond_type
C10   C27   A    
C27   H2    S    
O6    S1    D    
C8    C13   A    
C22   C29   A    
N4    Zn2   S    
O37   S2    S    
C39   H22   S    
C35   C36   S    
C34   C42   A    
O28   S10   D    
C31   H6    S    
O14   S5    S    
C36   H13   S    
N3    Zn1   S    
C1    C33   S    
C7    C8    A    
C12   S8    S    
O15   S6    D    
O10   S4    S    
C38   C44   A    
C12   C23   A    
C28   C46   S    
C26   C27   A    
O33   S11   S    
O36   S2    D    
C30   C31   D    
O2    Zn1   S    
C15   H19   S    
O27   S9    S    
O11   S5    D    
C18   C19   A    
C32   S7    S    
C37   C42   A    
O43   Zn2   S    
O19   S7    D    
O44   Zn1   S    
H5    O17   S    
N3    S11   S    
H17   O40   S    
O39   S3    D    
C20   C24   A    
C8    C9    A    
C40   H21   S    
C13   O12   S    
H24   O10   S    
C9    C10   A    
C35   S10   S    
C17   H12   S    
C29   H4    S    
C30   S6    S    
C14   S2    S    
C21   C22   A    
H3    O14   S    
C19   N2    S    
C2    C6    A    
C38   O23   S    
C25   C44   A    
O1    Zn1   S    
O45   Zn2   S    
O41   Zn2   S    
O20   S7    S    
C25   C29   A    
C40   C45   A    
C2    C20   A    
C4    C45   S    
C1    O1    A    
C23   N1    S    
C34   C44   A    
C17   C46   A    
H10   O30   S    
C16   O45   A    
C39   C40   A    
C11   N2    A    
C21   C34   A    
C33   S9    S    
O22   S8    D    
C16   C31   S    
O3    Zn2   S    
C7    H16   S    
O38   S3    D    
C12   C41   A    
C16   O44   A    
O7    S1    S    
O5    S1    D    
C24   S3    S    
C17   C18   A    
C41   H1    S    
C28   O3    A    
O29   S10   D    
O25   S9    D    
C36   N4    D    
C43   H14   S    
O24   S8    S    
H11   O33   S    
O30   S10   S    
C37   N1    A    
C4    O43   A    
C2    C5    A    
C26   S4    S    
H15   O37   S    
C25   S1    S    
O8    S4    D    
O32   S11   D    
C38   N1    A    
C35   N3    D    
C41   C45   A    
O17   S6    S    
H7    O20   S    
O26   S9    D    
C14   C19   A    
C4    O42   A    
C3    C26   A    
C5    C9    A    
C3    C5    A    
O18   S7    D    
C6    C7    A    
C13   N2    A    
C37   O4    S    
H9    O27   S    
C32   C33   D    
C30   C32   S    
O35   S2    D    
O13   S5    D    
O42   Zn1   S    
C23   C39   A    
O16   S6    D    
H23   O7    S    
C10   C11   A    
O31   S11   D    
O40   S3    S    
O21   S8    D    
C6    H20   S    
C20   C21   A    
C42   C43   A    
C11   O34   S    
C24   C43   A    
H18   N4    S    
C14   C15   A    
H8    O24   S    
C3    C22   A    
C1    O41   A    
C15   C46   A    
O9    S4    D    
C18   S5    S    
C28   O2    A    
