data_str_m3_o14_o16_f0_pcu.sym.201
_audit_creation_date              2012-12-10T17:42:40-0500
_audit_creation_method            fapswitch 2.2
_symmetry_space_group_name_H-M    P1
_symmetry_Int_Tables_number       1
_space_group_crystal_system       triclinic
_cell_length_a                    9.885855
_cell_length_b                    10.679829
_cell_length_c                    12.989532
_cell_angle_alpha                 91.118278
_cell_angle_beta                  71.944141
_cell_angle_gamma                 89.79636
_cell_volume                      1303.57395937

loop_
_atom_site_label
_atom_site_type_symbol
_atom_type_description
_atom_site_fract_x
_atom_site_fract_y
_atom_site_fract_z
_atom_type_partial_charge
C1    C     C_R   0.501947 0.740384 0.492803 0.871436
C2    C     C_R   0.460591 0.378924 0.968327 0.059782
C3    C     C_R   0.498727 0.392575 0.855643 0.058916
C4    C     C_R   0.564086 0.413905 0.019192 0.058859
C5    C     C_R   0.705981 0.439204 0.954658 0.121124
C6    C     C_R   0.747346 0.409003 0.844325 -0.221329
C7    C     C_R   0.644509 0.381399 0.795781 -0.188790
C8    C     C_R   0.526292 0.441065 0.129726 -0.267356
C9    C     C_R   0.761657 0.522691 0.112100 0.037848
C10   C     C_R   0.390501 0.419864 0.808400 -0.156094
C11   C     C_R   0.264395 0.892762 0.456312 -0.163346
C12   C     C_R   0.425283 0.478288 0.700980 0.872963
C13   C     C_R   0.132358 0.952851 0.482542 -0.185073
C14   C     C_R   0.106570 0.059800 0.548669 -0.122394
C15   C     C_R   0.217100 0.114949 0.578925 0.145994
C16   C     C_R   0.357766 0.063636 0.537308 0.067409
C17   C     C_R   0.374257 0.942000 0.493426 0.073806
C18   C     C_R   0.499894 0.875055 0.490227 -0.120211
C19   C     C_R   0.616847 0.937215 0.505219 -0.221708
C20   C     C_R   0.610903 0.064214 0.521949 -0.208092
C21   C     C_R   0.484193 0.128822 0.532577 -0.138239
C22   C     C_R   0.803943 0.668775 0.637555 -0.205322
C23   C     C_R   0.494392 0.261148 0.512843 0.870050
C24   C     C_R   0.848066 0.755368 0.701498 -0.214954
C25   C     C_R   0.988305 0.756099 0.701652 0.139244
C26   C     C_R   0.084166 0.667358 0.637976 -0.190601
C27   C     C_R   0.044483 0.582477 0.568193 0.119878
C28   C     C_R   0.899948 0.582868 0.567943 0.165207
C29   C     C_R   0.955099 0.420496 0.435294 -0.147832
C30   C     C_R   0.098368 0.420522 0.435341 -0.133997
C31   C     C_R   0.577839 0.501022 0.295514 0.892793
C32   C     C_R   0.801278 0.499369 0.000084 0.087346
C33   C     C_R   0.624554 0.488574 0.177443 -0.140018
C34   C     C_R   0.250202 0.389004 0.864949 -0.303244
C35   C     C_R   0.216803 0.337912 0.968484 0.131029
C36   C     C_R   0.320848 0.335866 0.022378 0.082832
H1    H     H_    0.047784 0.912656 0.456339 0.146337
H2    H     H_    0.772167 0.822405 0.751522 0.158634
H3    H     H_    0.188560 0.668018 0.644571 0.212094
H4    H     H_    0.680880 0.354811 0.710876 0.185284
N1    N     N_R   0.856860 0.501200 0.500990 -0.117646
N2    N     N_R   0.142450 0.501280 0.501020 -0.121883
O1    O     O_R   0.385310 0.683220 0.500000 -0.639109
O2    O     O_R   0.614640 0.683250 0.500010 -0.633890
O3    O     O_R   0.328400 0.499950 0.653610 -0.641433
O4    O     O_R   0.557730 0.499970 0.653620 -0.638024
O5    O     O_R   0.385360 0.316750 0.499990 -0.622997
O6    O     O_R   0.614690 0.316780 0.500000 -0.625785
O7    O     O_R   0.442270 0.500030 0.346380 -0.612115
O8    O     O_R   0.671600 0.500050 0.346390 -0.614128
Zn1   Zn    Zn3+2 0.346880 0.499980 0.499990 0.910424
Zn2   Zn    Zn3+2 0.653120 0.500020 0.500010 0.911734
N3    N     N_3   0.859474 0.586930 0.155981 -0.478254
H5    H     H_    0.807812 0.664145 0.202591 0.195079
H6    H     H_    0.894559 0.525861 0.204402 0.205930
H7    H     H_    0.279629 0.809482 0.405244 0.169735
H8    H     H_    0.000006 0.099203 0.577637 0.135967
N4    N     N_3   0.179343 0.209073 0.663704 -0.462355
H9    H     H_    0.265781 0.229395 0.690932 0.184081
H10   H     H_    0.146916 0.290272 0.633996 0.211744
H11   H     H_    0.706908 0.111943 0.523381 0.164136
H12   H     H_    0.922917 0.355693 0.382426 0.145104
H13   H     H_    0.693951 0.673149 0.644951 0.223268
N5    N     N_3   0.033006 0.850101 0.764444 -0.439443
H14   H     H_    0.977795 0.836634 0.846076 0.175654
H15   H     H_    0.141295 0.839687 0.755504 0.181587
H16   H     H_    0.857617 0.413011 0.794287 0.169284
H17   H     H_    0.174103 0.355491 0.382790 0.154217
N6    N     N_3   0.932153 0.548261 0.930873 -0.480820
H18   H     H_    0.013485 0.525459 0.962681 0.204143
H19   H     H_    0.922749 0.645748 0.935056 0.197369
H20   H     H_    0.417859 0.431706 0.179867 0.197738
H21   H     H_    0.168183 0.399156 0.826485 0.177468
N7    N     N_3   0.289324 0.275929 0.124908 -0.478734
H22   H     H_    0.260808 0.183288 0.115238 0.210101
H23   H     H_    0.201886 0.321672 0.179590 0.168577
N8    N     N_3   0.078138 0.287473 0.019632 -0.465614
H24   H     H_    0.025649 0.347540 0.084195 0.177803
H25   H     H_    0.018026 0.286065 0.966070 0.200084
H26   H     H_    0.714366 0.888373 0.502126 0.170734

loop_
_geom_bond_atom_site_label_1
_geom_bond_atom_site_label_2
_ccdc_geom_bond_type
C16   C21   A    
C35   C36   A    
C4    C8    A    
N3    H5    S    
C1    C18   S    
N7    H23   S    
C34   C35   A    
C3    C7    A    
C5    C6    A    
C26   H3    S    
O3    Zn1   S    
N4    H10   S    
C15   C16   A    
O4    Zn2   S    
C28   N1    A    
C18   C19   A    
C20   H11   S    
N6    H19   S    
C9    C32   A    
C22   H13   S    
C1    O1    A    
C11   C17   A    
C19   C20   A    
C16   C17   A    
O7    Zn1   S    
C24   H2    S    
C7    H4    S    
C31   C33   S    
N1    Zn2   S    
C13   H1    S    
N2    Zn1   S    
C5    C32   A    
O2    Zn2   S    
N8    H25   S    
C22   C28   A    
C13   C14   A    
C9    C33   A    
C19   H26   S    
C31   O7    A    
N3    H6    S    
C8    H20   S    
C23   O5    A    
N7    H22   S    
C24   C25   A    
C12   O4    A    
C12   O3    A    
O5    Zn1   S    
N4    H9    S    
N8    H24   S    
C35   N8    S    
C25   N5    S    
N5    H15   S    
C2    C4    A    
C29   C30   A    
C1    O2    A    
O8    Zn2   S    
C17   C18   A    
C26   C27   A    
C10   C34   A    
C32   N6    S    
C10   C12   S    
C6    H16   S    
C21   C23   S    
C15   N4    S    
C22   C24   A    
C9    N3    S    
C31   O8    A    
C2    C36   A    
C14   H8    S    
C29   H12   S    
C36   N7    S    
C23   O6    A    
C29   N1    A    
C4    C5    A    
C6    C7    A    
N5    H14   S    
C2    C3    A    
C25   C26   A    
C3    C10   A    
C11   C13   A    
C27   N2    A    
O1    Zn1   S    
C8    C33   A    
N6    H18   S    
C34   H21   S    
O6    Zn2   S    
C20   C21   A    
C27   C28   A    
C14   C15   A    
C30   N2    A    
C30   H17   S    
C11   H7    S    
