data_str_m12_o9_o24_f0_bcu.sym.37
_audit_creation_date              2012-12-11T17:47:28-0500
_audit_creation_method            fapswitch 2.2
_symmetry_space_group_name_H-M    P1
_symmetry_Int_Tables_number       1
_space_group_crystal_system       triclinic
_cell_length_a                    14.781196
_cell_length_b                    15.035298
_cell_length_c                    15.268848
_cell_angle_alpha                 111.481329
_cell_angle_beta                  108.156334
_cell_angle_gamma                 108.361226
_cell_volume                      2623.37916737

loop_
_atom_site_label
_atom_site_type_symbol
_atom_type_description
_atom_site_fract_x
_atom_site_fract_y
_atom_site_fract_z
_atom_type_partial_charge
Br1   Br    Br    0.748735 0.543071 0.367891 -0.527558
Br2   Br    Br    0.250010 0.456893 0.631111 -0.528099
Br3   Br    Br    0.401485 0.277617 0.770427 -0.554990
Br4   Br    Br    0.598485 0.722304 0.228450 -0.554580
Br5   Br    Br    0.019460 0.730175 0.389844 -0.552354
Br6   Br    Br    0.979582 0.269833 0.609341 -0.554062
C1    C     C_R   0.919663 0.200972 0.003352 -0.111713
C2    C     C_R   0.899450 0.995442 0.976968 -0.245349
C3    C     C_R   0.093435 0.991174 0.710163 -0.002179
C4    C     C_R   0.906875 0.009009 0.290230 -0.001101
C5    C     C_R   0.047516 0.997674 0.778150 -0.244655
C6    C     C_R   0.952898 0.002603 0.222334 -0.243954
C7    C     C_R   0.602649 0.317991 0.204260 -0.164038
C8    C     C_R   0.396291 0.681851 0.795033 -0.164314
C9    C     C_R   0.708560 0.391541 0.290000 0.334008
C10   C     C_R   0.290330 0.608432 0.709342 0.334196
C11   C     C_R   0.781120 0.352539 0.319698 0.019441
C12   C     C_R   0.080562 0.799154 0.996873 -0.111814
C13   C     C_R   0.217817 0.647572 0.679938 0.019673
C14   C     C_R   0.745242 0.239736 0.264107 -0.210665
C15   C     C_R   0.253801 0.760387 0.735741 -0.210899
C16   C     C_R   0.303015 0.797645 0.210746 -0.140285
C17   C     C_R   0.697257 0.202089 0.789522 -0.140634
C18   C     C_R   0.639654 0.167141 0.177999 -0.121570
C19   C     C_R   0.359439 0.832850 0.821798 -0.121671
C20   C     C_R   0.568488 0.206278 0.147926 -0.130398
C21   C     C_R   0.430550 0.793571 0.851600 -0.130109
C22   C     C_R   0.918998 0.425440 0.504076 -0.189125
C23   C     C_R   0.308421 0.854833 0.306918 0.049311
C24   C     C_R   0.079864 0.574827 0.495668 -0.189145
C25   C     C_R   0.023712 0.497146 0.592352 0.127654
C26   C     C_R   0.975169 0.503079 0.407360 0.127605
C27   C     C_R   0.105426 0.572552 0.589096 0.062858
C28   C     C_R   0.893447 0.427686 0.410621 0.062960
C29   C     C_R   0.113927 0.053274 0.889983 0.076162
C30   C     C_R   0.886569 0.946983 0.110488 0.075573
C31   C     C_R   0.273249 0.092821 0.863911 -0.057829
C32   C     C_R   0.727125 0.907188 0.136350 -0.058293
C33   C     C_R   0.268407 0.174661 0.410016 -0.193546
C34   C     C_R   0.691926 0.144650 0.693476 0.049062
C35   C     C_R   0.732472 0.825392 0.591146 -0.194581
C36   C     C_R   0.333883 0.124840 0.411962 -0.123756
C37   C     C_R   0.667001 0.875219 0.589162 -0.123611
C38   C     C_R   0.332440 0.062045 0.460996 0.037299
C39   C     C_R   0.667905 0.937367 0.539450 0.036794
C40   C     C_R   0.226469 0.408059 0.961895 -0.060671
C41   C     C_R   0.773571 0.591923 0.037467 -0.060626
C42   C     C_R   0.262421 0.046651 0.504846 -0.308965
C43   C     C_R   0.737415 0.952152 0.494986 -0.309188
C44   C     C_R   0.196052 0.095510 0.501633 0.912368
C45   C     C_R   0.327989 0.500289 0.029287 0.197117
C46   C     C_R   0.803765 0.903273 0.498208 0.913271
C47   C     C_R   0.201029 0.161560 0.456517 -0.235626
C48   C     C_R   0.799321 0.837858 0.544020 -0.236107
C49   C     C_R   0.508459 0.091056 0.578627 -0.211495
C50   C     C_R   0.491832 0.908289 0.421811 -0.211463
C51   C     C_R   0.592439 0.064455 0.597975 0.034653
C52   C     C_R   0.407869 0.934907 0.402477 0.034570
C53   C     C_R   0.584902 0.972703 0.519987 0.061690
C54   C     C_R   0.415398 0.026650 0.480466 0.061434
C55   C     C_R   0.206193 0.037940 0.753043 -0.028694
C56   C     C_R   0.672065 0.499705 0.969737 0.196644
C57   C     C_R   0.794099 0.962120 0.247238 -0.028215
C58   C     C_R   0.937238 0.957073 0.041906 0.064144
C59   C     C_R   0.063330 0.043281 0.958647 0.063976
C60   C     C_R   0.227732 0.101717 0.932394 -0.093516
C61   C     C_R   0.772748 0.898407 0.067964 -0.093880
C62   C     C_R   0.034333 0.952134 0.055608 0.057686
C63   C     C_R   0.966218 0.048195 0.944936 0.057641
C64   C     C_R   0.005406 0.591488 0.303667 0.312278
C65   C     C_R   0.993997 0.408538 0.696062 0.313093
C66   C     C_3   0.460044 0.408049 0.906383 0.269642
C67   C     C_R   0.960429 0.500402 0.309897 0.008077
C68   C     C_3   0.539897 0.591951 0.092403 0.269536
C69   C     C_3   0.425834 0.496882 0.918626 -0.414872
C70   C     C_3   0.574087 0.503116 0.080151 -0.414618
C71   C     C_3   0.421265 0.501192 0.019796 -0.221454
C72   C     C_3   0.578679 0.498810 0.978981 -0.221062
C73   C     C_3   0.454291 0.413101 0.006546 0.738453
C74   C     C_3   0.545653 0.586910 0.992239 0.738165
C75   C     C_R   0.316101 0.591959 0.053302 -0.129412
C76   C     C_R   0.683945 0.408047 0.946054 -0.129655
C77   C     C_R   0.923141 0.408282 0.214396 -0.188303
C78   C     C_R   0.038595 0.499684 0.689776 0.007570
C79   C     C_R   0.076279 0.591784 0.785452 -0.188368
C80   C     C_R   0.213551 0.797808 0.304524 -0.099717
C81   C     C_R   0.786635 0.201842 0.695715 -0.099418
C82   C     C_R   0.011470 0.203053 0.911588 -0.129195
C83   C     C_R   0.988791 0.797085 0.088650 -0.129336
C84   C     C_R   0.960279 0.143004 0.946999 0.059199
C85   C     C_R   0.040121 0.857215 0.053382 0.059109
C86   C     C_R   0.101112 0.004892 0.023579 -0.245282
F1    F     F_    0.405765 0.326292 0.017684 -0.735747
F2    F     F_    0.594157 0.673721 0.981090 -0.735897
F3    F     F_    0.129525 0.081758 0.545354 -0.659345
F4    F     F_    0.869793 0.916431 0.453890 -0.658308
H1    H     H_    0.869796 0.175839 0.037560 0.093332
H2    H     H_    0.452547 0.652335 0.816886 0.204945
H3    H     H_    0.799636 0.208328 0.286725 0.147412
H4    H     H_    0.199447 0.791902 0.713338 0.147231
H5    H     H_    0.612918 0.080494 0.134805 0.111127
H6    H     H_    0.386252 0.919504 0.865166 0.111062
H7    H     H_    0.855555 0.370308 0.509291 0.146383
H8    H     H_    0.143338 0.629942 0.490470 0.146235
H9    H     H_    0.960178 0.957715 0.744252 0.134989
H10   H     H_    0.040248 0.042683 0.256311 0.134765
H11   H     H_    0.361424 0.822995 0.184593 0.107162
H12   H     H_    0.130506 0.824327 0.962745 0.093277
H13   H     H_    0.638973 0.176744 0.815809 0.107065
H14   H     H_    0.281130 0.143692 0.018157 0.142159
H15   H     H_    0.719421 0.856429 0.982186 0.143081
H16   H     H_    0.151573 0.201483 0.456175 0.191020
H17   H     H_    0.848805 0.797965 0.544438 0.190995
H18   H     H_    0.271009 0.224695 0.373857 0.169848
H19   H     H_    0.730291 0.775860 0.627845 0.169773
H20   H     H_    0.388575 0.138491 0.379011 0.132760
H21   H     H_    0.612717 0.862056 0.622618 0.132728
H22   H     H_    0.261537 0.999135 0.543670 0.154779
H23   H     H_    0.041726 0.947837 0.624089 0.203850
H24   H     H_    0.737916 0.999221 0.455702 0.155045
H25   H     H_    0.517455 0.165108 0.638520 0.177044
H26   H     H_    0.482823 0.834251 0.361883 0.177017
H27   H     H_    0.175325 0.000456 0.035020 0.115140
H28   H     H_    0.825204 0.999816 0.965482 0.115146
H29   H     H_    0.362996 0.495119 0.854062 0.231524
H30   H     H_    0.636888 0.504849 0.144725 0.231653
H31   H     H_    0.208713 0.324247 0.918425 0.158337
H32   H     H_    0.791268 0.675746 0.080689 0.158280
H33   H     H_    0.378767 0.675280 0.091516 0.140743
H34   H     H_    0.958506 0.052375 0.376319 0.203485
H35   H     H_    0.621189 0.324701 0.907538 0.140956
H36   H     H_    0.880106 0.323573 0.190651 0.130318
H37   H     H_    0.119147 0.676506 0.809176 0.130356
H38   H     H_    0.192101 0.823101 0.366931 0.153464
H39   H     H_    0.808163 0.176312 0.633404 0.153820
H40   H     H_    0.040804 0.179137 0.855449 0.134958
H41   H     H_    0.959585 0.821047 0.144900 0.135219
H42   H     H_    0.241670 0.030861 0.700414 0.149866
H43   H     H_    0.758545 0.969149 0.299799 0.149738
H44   H     H_    0.360610 0.127662 0.896678 0.155352
H45   H     H_    0.639747 0.872248 0.103491 0.155724
H46   H     H_    0.486483 0.149910 0.081666 0.119517
H47   H     H_    0.512591 0.849830 0.917832 0.119889
H48   H     H_    0.546354 0.347405 0.182193 0.205118
N1    N     N_R   0.947560 0.293820 0.002910 -0.042915
N2    N     N_R   0.789450 0.443190 0.997090 -0.056380
N3    N     N_R   0.945970 0.443180 0.152110 -0.057549
N4    N     N_R   0.054030 0.556820 0.847890 -0.057559
N5    N     N_R   0.151530 0.706170 0.208880 -0.043428
N6    N     N_R   0.848470 0.293830 0.791120 -0.043492
N7    N     N_R   0.004980 0.293810 0.946140 -0.045069
N8    N     N_R   0.995020 0.706190 0.053860 -0.045094
N9    N     N_R   0.052440 0.706180 0.997090 -0.042938
N10   N     N_R   0.208960 0.706170 0.152110 -0.042577
N11   N     N_R   0.791040 0.293830 0.847890 -0.042560
N12   N     N_R   0.154330 0.443160 0.946140 -0.055454
N13   N     N_R   0.845670 0.556840 0.053860 -0.055236
N14   N     N_R   0.002190 0.556820 0.208880 -0.074944
N15   N     N_R   0.997810 0.443180 0.791120 -0.074913
N16   N     N_R   0.210550 0.556810 0.002910 -0.056405
Ni1   Ni    Ni4+2 0.869690 0.369690 0.000000 0.214076
Ni2   Ni    Ni4+2 0.130310 0.630310 0.000000 0.214087
Ni3   Ni    Ni4+2 0.001390 0.369680 0.869810 0.263386
Ni4   Ni    Ni4+2 0.998610 0.630320 0.130190 0.263680

loop_
_geom_bond_atom_site_label_1
_geom_bond_atom_site_label_2
_ccdc_geom_bond_type
C59   C86   A    
C24   C26   A    
C49   H25   S    
C16   C23   A    
C17   N11   A    
C82   N7    A    
C70   H30   S    
C4    C57   A    
C79   N4    A    
C62   C85   S    
C41   C56   A    
C45   C71   S    
C30   C61   A    
C41   H32   S    
N2    N13   A    
N11   Ni1   S    
N6    Ni3   S    
C2    C63   A    
C68   C70   S    
C3    C55   A    
C12   C85   A    
C58   C62   A    
C34   C81   A    
C13   C15   A    
C70   C72   S    
C73   F1    S    
C66   C73   S    
C41   N13   A    
C72   C74   S    
C44   F3    S    
C51   C53   A    
C43   H24   S    
C29   C59   S    
C52   C54   A    
C17   C34   A    
C48   H17   S    
C56   C72   S    
C11   C14   A    
C18   H5    S    
C7    H48   S    
C66   C72   S    
C80   H38   S    
C83   N8    A    
C14   C18   A    
N12   Ni3   S    
C31   H44   S    
C5    H9    S    
C21   H47   S    
C70   C73   S    
Br1   C9    S    
C8    C21   A    
C6    C30   A    
Br2   C10   S    
C69   C74   S    
C45   C75   A    
Br4   C68   S    
N14   Ni4   S    
C33   H18   S    
C42   C44   A    
C56   C76   A    
C22   C28   A    
C75   N16   A    
C68   C74   S    
C49   C54   A    
C35   C37   A    
C36   C38   A    
C35   H19   S    
C66   C69   S    
C76   N2    A    
C46   C48   A    
C8    H2    S    
C33   C36   A    
C71   C73   S    
Br6   C65   S    
C17   H13   S    
N2    Ni1   S    
C44   C47   A    
C81   H39   S    
C40   H31   S    
N12   N16   A    
C78   C79   A    
C82   H40   S    
C79   H37   S    
C13   C27   S    
C86   H27   S    
C26   C67   S    
C15   H4    S    
C2    H28   S    
C42   H22   S    
C29   C60   A    
C1    C84   A    
C40   C45   A    
C81   N6    A    
C25   C78   S    
C64   N14   A    
N4    N15   A    
C26   C28   A    
C65   C78   A    
N5    N10   A    
C4    H34   S    
Br5   C64   S    
C37   C39   A    
C75   H33   S    
C7    C9    A    
C39   C43   A    
C43   C46   A    
C31   C60   A    
C68   C71   S    
C64   C67   A    
C25   C27   A    
N5    Ni4   S    
N1    N7    A    
C60   H14   S    
C69   C71   S    
N13   Ni4   S    
C23   C80   A    
N8    Ni4   S    
C12   N9    A    
C4    C6    A    
C2    C58   A    
C77   N3    A    
C47   H16   S    
C61   H15   S    
C37   H21   S    
C55   H42   S    
N7    Ni3   S    
N6    N11   A    
C3    C5    A    
N3    Ni1   S    
C3    H23   S    
C32   H45   S    
N15   Ni3   S    
C7    C20   A    
C80   N5    A    
C83   C85   A    
C11   C28   S    
C74   F2    S    
C63   C84   S    
C40   N12   A    
C23   C52   S    
C32   C57   A    
C16   N10   A    
C36   H20   S    
C9    C11   A    
C15   C19   A    
C39   C53   S    
C34   C51   S    
C1    H1    S    
C24   C27   A    
C57   H43   S    
N10   Ni2   S    
C22   C25   A    
C18   C20   A    
C82   C84   A    
C50   H26   S    
C31   C55   A    
C19   C21   A    
C65   N15   A    
C83   H41   S    
C50   C53   A    
N9    Ni2   S    
N4    Ni2   S    
C49   C51   A    
Br3   C66   S    
C77   H36   S    
C30   C58   S    
C6    H10   S    
C22   H7    S    
C33   C47   A    
C14   H3    S    
N1    Ni1   S    
C38   C54   S    
C10   C13   A    
C59   C63   A    
C5    C29   A    
C62   C86   A    
C50   C52   A    
C46   F4    S    
C8    C10   A    
C19   H6    S    
C12   H12   S    
C35   C48   A    
C38   C42   A    
C32   C61   A    
C24   H8    S    
N8    N9    A    
C69   H29   S    
C76   H35   S    
C20   H46   S    
N3    N14   A    
C67   C77   A    
C16   H11   S    
N16   Ni2   S    
C1    N1    A    
