data_str_m12_o9_o22_f0_bcu.sym.67
_audit_creation_date              2012-12-11T17:45:32-0500
_audit_creation_method            fapswitch 2.2
_symmetry_space_group_name_H-M    P1
_symmetry_Int_Tables_number       1
_space_group_crystal_system       triclinic
_cell_length_a                    14.941912
_cell_length_b                    14.904104
_cell_length_c                    15.125103
_cell_angle_alpha                 110.309698
_cell_angle_beta                  109.292486
_cell_angle_gamma                 108.711331
_cell_volume                      2595.72699952

loop_
_atom_site_label
_atom_site_type_symbol
_atom_type_description
_atom_site_fract_x
_atom_site_fract_y
_atom_site_fract_z
_atom_type_partial_charge
C1    C     C_R   0.976672 0.251309 0.064223 -0.126844
C2    C     C_R   0.324327 0.783067 0.326296 0.052055
C3    C     C_R   0.297531 0.497947 0.927811 0.032853
C4    C     C_R   0.943449 0.501414 0.304021 0.058801
C5    C     C_R   0.686969 0.407890 0.930088 -0.161907
C6    C     C_R   0.023813 0.593144 0.782003 -0.103059
C7    C     C_R   0.793560 0.196626 0.701296 -0.148101
C8    C     C_R   0.998540 0.802156 0.094836 -0.114038
C9    C     C_R   0.089437 0.804535 0.004649 -0.151150
C10   C     C_R   0.705656 0.193968 0.794142 -0.136210
C11   C     C_R   0.776860 0.591719 0.022497 -0.102157
C12   C     C_R   0.314992 0.756342 0.224269 -0.135693
C13   C     C_R   0.942700 0.409652 0.685579 -0.132794
C14   C     C_R   0.674634 0.499452 0.944882 0.048018
C15   C     C_R   0.960766 0.504233 0.679044 0.043366
C16   C     C_R   0.704642 0.129298 0.701533 0.070346
C17   C     C_R   0.056409 0.867024 0.065867 0.068443
C18   C     C_R   0.614760 0.270787 0.096995 -0.118231
C19   C     C_R   0.694613 0.357826 0.201754 -0.149615
C20   C     C_R   0.743865 0.336963 0.283537 0.115575
C21   C     C_R   0.704402 0.227479 0.260556 -0.156911
C22   C     C_R   0.620266 0.140893 0.156850 -0.118616
C23   C     C_R   0.206938 0.407654 0.900921 -0.151958
C24   C     C_R   0.576511 0.162556 0.074743 -0.093768
C25   C     C_R   0.851525 0.432421 0.485389 -0.247433
C26   C     C_R   0.946508 0.513538 0.584577 0.077214
C27   C     C_R   0.032155 0.596321 0.590260 0.012671
C28   C     C_R   0.021995 0.592207 0.495724 -0.235088
C29   C     C_R   0.931231 0.507707 0.395971 0.071310
C30   C     C_R   0.842385 0.427826 0.389020 0.024747
C31   C     C_R   0.161093 0.785876 0.753428 -0.209310
C32   C     C_R   0.264588 0.865434 0.842879 -0.116104
C33   C     C_R   0.349193 0.840846 0.865444 -0.096257
C34   C     C_R   0.997354 0.591972 0.299256 -0.167040
C35   C     C_R   0.330500 0.736883 0.798822 -0.128695
C36   C     C_R   0.226288 0.655745 0.711374 -0.134856
C37   C     C_R   0.140483 0.679470 0.688552 0.125453
C38   C     C_R   0.205124 0.984282 0.480923 -0.292322
C39   C     C_R   0.298910 0.979893 0.487945 -0.170526
C40   C     C_R   0.334400 0.921821 0.533451 0.115168
C41   C     C_R   0.280498 0.876111 0.580038 -0.282273
C42   C     C_R   0.186183 0.880138 0.572061 -0.198210
C43   C     C_R   0.146012 0.930984 0.519926 0.577632
C44   C     C_R   0.524795 0.977315 0.624370 -0.232855
C45   C     C_R   0.298070 0.590009 0.992715 -0.143614
C46   C     C_R   0.621215 0.013404 0.620331 0.053215
C47   C     C_R   0.622505 0.949316 0.526532 0.033052
C48   C     C_R   0.523659 0.864322 0.434105 -0.240599
C49   C     C_R   0.425100 0.849400 0.431673 0.059175
C50   C     C_R   0.426592 0.907500 0.529371 0.040487
C51   C     C_R   0.732850 0.024026 0.451831 -0.172971
C52   C     C_R   0.835134 0.079517 0.463979 -0.224362
C53   C     C_R   0.926440 0.086289 0.538610 0.128190
C54   C     C_R   0.914459 0.034252 0.598644 -0.117403
C55   C     C_R   0.812514 0.980568 0.588318 -0.185623
C56   C     C_R   0.912868 0.409020 0.211810 -0.136019
C57   C     C_R   0.721899 0.978464 0.517426 0.118218
C58   C     C_3   0.470337 0.382153 0.843447 -0.493813
C59   C     C_3   0.365468 0.384309 0.833404 -0.409619
C60   C     C_3   0.576808 0.527773 0.041309 -0.422561
C61   C     C_3   0.550562 0.578754 0.891792 0.397258
C62   C     C_3   0.571055 0.498288 0.929723 0.249783
C63   C     C_3   0.393641 0.497318 0.921829 0.344356
C64   C     C_3   0.472649 0.524426 0.035686 -0.385096
C65   C     C_3   0.449762 0.584208 0.896080 -0.531737
C66   C     C_R   0.181343 0.058001 0.810685 -0.132764
C67   C     C_R   0.220162 0.745224 0.311758 -0.117406
C68   C     C_R   0.139098 0.056845 0.880049 -0.198092
C69   C     C_R   0.202056 0.138120 0.990777 0.113658
C70   C     C_R   0.306704 0.221171 0.031031 -0.146220
C71   C     C_R   0.348422 0.221659 0.961122 -0.142201
C72   C     C_R   0.286863 0.139042 0.851542 -0.110973
C73   C     C_R   0.167706 0.040302 0.083285 -0.226068
C74   C     C_R   0.091622 0.984645 0.106150 0.053458
C75   C     C_R   0.042651 0.040266 0.151837 0.022849
C76   C     C_R   0.068698 0.144316 0.165571 -0.228216
C77   C     C_R   0.105377 0.172889 0.100227 0.052992
C78   C     C_R   0.070441 0.254521 0.975414 -0.140404
C79   C     C_R   0.163845 0.124547 0.065313 0.028343
C80   C     C_R   0.843182 0.962536 0.076430 -0.122215
C81   C     C_R   0.751058 0.931812 0.088095 -0.116741
C82   C     C_R   0.756634 0.920765 0.177594 0.123168
C83   C     C_R   0.855493 0.943022 0.256429 -0.180998
C84   C     C_R   0.949658 0.982026 0.248994 -0.211922
C85   C     C_R   0.943356 0.987693 0.156728 0.114638
C86   C     C_R   0.056627 0.227679 0.051116 0.058080
H1    H     H_    0.942696 0.238946 0.114287 0.094390
H2    H     H_    0.046136 0.677280 0.806706 0.113557
H3    H     H_    0.826843 0.176699 0.649854 0.131347
H4    H     H_    0.978937 0.827912 0.157936 0.106424
H5    H     H_    0.148038 0.832837 0.980304 0.100036
H6    H     H_    0.659502 0.166965 0.830460 0.087117
H7    H     H_    0.797529 0.676818 0.060020 0.140329
H8    H     H_    0.898041 0.325539 0.619499 0.104837
H9    H     H_    0.513978 0.095736 0.993513 0.101850
H10   H     H_    0.584834 0.287283 0.032376 0.094365
H11   H     H_    0.722841 0.441178 0.217193 0.115985
H12   H     H_    0.379520 0.772536 0.204616 0.105725
H13   H     H_    0.741102 0.208682 0.321496 0.106444
H14   H     H_    0.591237 0.056884 0.139379 0.110822
H15   H     H_    0.786291 0.370914 0.483214 0.130008
H16   H     H_    0.091670 0.650123 0.499860 0.134019
H17   H     H_    0.096334 0.806218 0.735718 0.118958
H18   H     H_    0.279549 0.946306 0.894369 0.133861
H19   H     H_    0.429581 0.902432 0.933950 0.094348
H20   H     H_    0.397514 0.720218 0.814508 0.119131
H21   H     H_    0.212868 0.575383 0.660261 0.111206
H22   H     H_    0.174698 0.322595 0.842789 0.104488
H23   H     H_    0.177978 0.027485 0.443622 0.123500
H24   H     H_    0.341688 0.018139 0.454348 0.136722
H25   H     H_    0.308142 0.832840 0.617292 0.160581
H26   H     H_    0.141391 0.840280 0.602770 0.147587
H27   H     H_    0.521550 0.019761 0.696357 0.125285
H28   H     H_    0.524010 0.817578 0.361233 0.136001
H29   H     H_    0.664396 0.025363 0.398724 0.133307
H30   H     H_    0.843538 0.119776 0.417459 0.134819
H31   H     H_    0.984565 0.039292 0.656735 0.139863
H32   H     H_    0.020160 0.676036 0.351499 0.121785
H33   H     H_    0.805614 0.947012 0.640323 0.125798
H34   H     H_    0.475106 0.320739 0.867436 0.172482
H35   H     H_    0.466409 0.354419 0.763139 0.165780
H36   H     H_    0.314874 0.368839 0.751275 0.172201
H37   H     H_    0.317910 0.316674 0.841024 0.178928
H38   H     H_    0.589754 0.468829 0.066100 0.164690
H39   H     H_    0.433650 0.462110 0.054909 0.166466
H40   H     H_    0.532344 0.545247 0.805931 0.097436
H41   H     H_    0.391133 0.566501 0.815933 0.141939
H42   H     H_    0.353470 0.674701 0.022725 0.104269
H43   H     H_    0.474385 0.667900 0.957998 0.179590
H44   H     H_    0.646742 0.610650 0.106725 0.156334
H45   H     H_    0.493624 0.605637 0.099547 0.164641
H46   H     H_    0.320146 0.138773 0.797900 0.119949
H47   H     H_    0.132963 0.994801 0.725958 0.154366
H48   H     H_    0.058585 0.991115 0.848400 0.123963
H49   H     H_    0.356533 0.283523 0.116403 0.118047
H50   H     H_    0.428265 0.286629 0.992077 0.114052
H51   H     H_    0.215227 0.006574 0.058770 0.125370
H52   H     H_    0.035216 0.187983 0.205136 0.128984
H53   H     H_    0.861413 0.324358 0.185157 0.113830
H54   H     H_    0.837632 0.970897 0.006721 0.119227
H55   H     H_    0.674971 0.914406 0.026235 0.122633
H56   H     H_    0.859906 0.931103 0.323926 0.147500
H57   H     H_    0.026767 0.005416 0.313489 0.115750
H58   H     H_    0.195020 0.742011 0.369714 0.123927
H59   H     H_    0.126198 0.250581 0.946292 0.126096
H60   H     H_    0.625471 0.322334 0.878616 0.102888
N1    N     N_R   0.947080 0.293830 0.002870 -0.040880
N2    N     N_R   0.054040 0.556820 0.847890 -0.040455
N3    N     N_R   0.848290 0.293830 0.791110 -0.041775
N4    N     N_R   0.995680 0.706170 0.053910 -0.042961
N5    N     N_R   0.052920 0.706170 0.997130 -0.041086
N6    N     N_R   0.791050 0.293830 0.847890 -0.037427
N7    N     N_R   0.846330 0.556820 0.053910 -0.049556
N8    N     N_R   0.997640 0.443180 0.791110 -0.040245
N9    N     N_R   0.208950 0.706170 0.152110 -0.040703
N10   N     N_R   0.153670 0.443180 0.946090 -0.038694
N11   N     N_R   0.002360 0.556820 0.208890 -0.040722
N12   N     N_R   0.210070 0.556820 0.002870 -0.036148
N13   N     N_R   0.945960 0.443180 0.152110 -0.038541
N14   N     N_R   0.151710 0.706170 0.208890 -0.045148
N15   N     N_R   0.004320 0.293830 0.946090 -0.042286
N16   N     N_R   0.789930 0.443180 0.997130 -0.038044
Ni1   Ni    Ni4+2 0.869690 0.369690 0.000000 0.212089
Ni2   Ni    Ni4+2 0.130310 0.630310 0.000000 0.220567
Ni3   Ni    Ni4+2 0.000970 0.369690 0.869780 0.215992
Ni4   Ni    Ni4+2 0.999030 0.630310 0.130220 0.213214
O1    O     O_3   0.048249 0.925230 0.506581 -0.795289
H61   H     H_    0.025528 0.953635 0.457925 0.306506
C87   C     C_1   0.032597 0.149342 0.555619 -0.002119
N17   N     N_1   0.117829 0.199891 0.569013 -0.104414
O2    O     O_3   0.641131 0.684098 0.951329 -0.772397
H62   H     H_    0.656598 0.714296 0.027306 0.318644
C88   C     C_1   0.659616 0.881980 0.185433 -0.037338
N18   N     N_1   0.581214 0.850215 0.190904 -0.121529

loop_
_geom_bond_atom_site_label_1
_geom_bond_atom_site_label_2
_ccdc_geom_bond_type
C34   H32   S    
C66   C68   A    
O2    H62   S    
C63   C65   S    
C41   C42   A    
C58   C62   S    
N7    Ni4   S    
C18   H10   S    
C73   C74   A    
C54   C55   A    
C3    C23   A    
C35   C36   A    
C2    C12   A    
C9    H5    S    
C81   C82   A    
C19   H11   S    
C20   C30   S    
C88   N18   T    
C26   C27   A    
C80   C85   A    
C18   C24   A    
C65   H41   S    
C28   C29   A    
C56   N13   A    
C38   C39   A    
C21   H13   S    
C11   C14   A    
C45   H42   S    
C14   C62   S    
C1    C86   A    
C6    H2    S    
C60   C62   S    
C18   C19   A    
C87   N17   T    
C1    H1    S    
C60   H38   S    
C42   H26   S    
C78   H59   S    
C10   N6    A    
C6    C15   A    
C7    N3    A    
C75   C85   S    
C39   H24   S    
C66   C72   A    
C83   C84   A    
C68   C69   A    
C82   C88   S    
N8    Ni3   S    
C67   N14   A    
C51   C57   A    
N14   Ni4   S    
C12   H12   S    
C4    C29   S    
C53   C87   S    
C78   C86   A    
C59   H36   S    
C81   H55   S    
C32   H18   S    
C10   H6    S    
N11   N13   A    
C23   N10   A    
C4    C56   A    
C36   H21   S    
C61   C62   S    
N2    N8    A    
C25   H15   S    
C67   H58   S    
C44   C46   A    
C72   H46   S    
C52   H30   S    
C59   H37   S    
C4    C34   A    
C22   H14   S    
C74   C75   A    
C51   C52   A    
N2    Ni2   S    
C33   H19   S    
C76   C77   A    
C2    C67   A    
N1    N15   A    
C24   H9    S    
C16   C46   S    
O1    H61   S    
C10   C16   A    
C56   H53   S    
C15   C26   S    
C55   H33   S    
N12   Ni2   S    
C84   H57   S    
C58   C59   S    
C80   H54   S    
C3    C45   A    
C51   H29   S    
C31   C37   A    
C31   H17   S    
C8    N4    A    
C75   C76   A    
C29   C30   A    
C2    C49   S    
C28   H16   S    
C47   C57   S    
C66   H47   S    
C6    N2    A    
C47   C48   A    
C64   H45   S    
C58   H34   S    
C73   C79   A    
C77   C79   A    
N3    Ni3   S    
C69   C79   S    
C84   C85   A    
C38   H23   S    
C5    C14   A    
C61   H40   S    
C61   O2    S    
C9    C17   A    
C48   C49   A    
C77   C86   S    
C64   H39   S    
C76   H52   S    
C55   C57   A    
C70   H49   S    
C49   C50   A    
C22   C24   A    
N3    N6    A    
C8    H4    S    
C42   C43   A    
C12   N9    A    
C60   H44   S    
C71   H50   S    
C70   C71   A    
C52   C53   A    
C48   H28   S    
N16   Ni1   S    
C44   C50   A    
C25   C30   A    
C46   C47   A    
C36   C37   A    
C58   H35   S    
C5    H60   S    
N9    N14   A    
C31   C32   A    
C7    C16   A    
C45   N12   A    
C80   C81   A    
N11   Ni4   S    
C44   H27   S    
C83   H56   S    
C65   H43   S    
C53   C54   A    
C3    C63   S    
N9    Ni2   S    
C13   H8    S    
C59   C63   S    
C8    C17   A    
N7    N16   A    
C60   C64   S    
C32   C33   A    
C19   C20   A    
C13   C15   A    
C25   C26   A    
C38   C43   A    
C35   H20   S    
N1    Ni1   S    
C5    N16   A    
C43   O1    S    
C11   H7    S    
C17   C74   S    
C73   H51   S    
N10   Ni3   S    
C27   C37   S    
C40   C50   S    
C23   H22   S    
N10   N12   A    
C7    H3    S    
C33   C35   A    
C68   H48   S    
N13   Ni1   S    
C69   C70   A    
C13   N8    A    
N6    Ni1   S    
C1    N1    A    
C11   N7    A    
C63   C64   S    
C39   C40   A    
C34   N11   A    
C61   C65   S    
C71   C72   A    
C20   C21   A    
C78   N15   A    
C9    N5    A    
N5    Ni2   S    
C41   H25   S    
C54   H31   S    
C27   C28   A    
N4    N5    A    
C40   C41   A    
C82   C83   A    
C21   C22   A    
N15   Ni3   S    
N4    Ni4   S    
