data_str_m3_o40_o40_f0_fof.sym.43
_audit_creation_date              2012-12-10T16:37:24-0500
_audit_creation_method            fapswitch 2.2
_symmetry_space_group_name_H-M    P1
_symmetry_Int_Tables_number       1
_space_group_crystal_system       triclinic
_cell_length_a                    16.7424
_cell_length_b                    16.862669
_cell_length_c                    16.787368
_cell_angle_alpha                 65.475481
_cell_angle_beta                  65.713106
_cell_angle_gamma                 65.728995
_cell_volume                      3761.58388068

loop_
_atom_site_label
_atom_site_type_symbol
_atom_type_description
_atom_site_fract_x
_atom_site_fract_y
_atom_site_fract_z
_atom_type_partial_charge
C1    C     C_R   0.468259 0.908737 0.701457 -0.212972
C2    C     C_R   0.389483 0.644024 0.114587 -0.270622
C3    C     C_R   0.907947 0.598387 0.361856 -0.225078
C4    C     C_R   0.092169 0.403083 0.636341 -0.271780
C5    C     C_R   0.983827 0.175226 0.428730 0.965657
C6    C     C_R   0.016553 0.824795 0.571054 0.907836
C7    C     C_R   0.161735 0.424741 0.006829 0.970173
C8    C     C_R   0.823056 0.569636 0.020402 0.904022
C9    C     C_R   0.438304 0.961017 0.179504 0.915393
C10   C     C_R   0.570964 0.015786 0.825184 0.940624
C11   C     C_R   0.559609 0.821067 0.043596 0.927463
C12   C     C_R   0.600042 0.948532 0.333031 -0.279291
C13   C     C_R   0.429281 0.174280 0.985880 0.943784
C14   C     C_R   0.040842 0.560884 0.820490 0.959151
C15   C     C_R   0.959003 0.439161 0.179454 0.893401
C16   C     C_R   0.820179 0.038322 0.561481 0.929599
C17   C     C_R   0.179701 0.959720 0.438946 0.918187
C18   C     C_R   0.518135 0.919122 0.743814 0.107011
C19   C     C_R   0.560346 0.920693 0.294152 0.125402
C20   C     C_R   0.923809 0.734151 0.522532 0.107991
C21   C     C_R   0.073895 0.266940 0.477469 0.096479
C22   C     C_R   0.719025 0.502863 0.958600 0.123247
C23   C     C_R   0.913659 0.689060 0.475488 -0.212838
C24   C     C_R   0.240022 0.498130 0.090726 0.095729
C25   C     C_R   0.303936 0.897592 0.563565 0.114487
C26   C     C_R   0.696717 0.067550 0.447746 0.112620
C27   C     C_R   0.519486 0.260315 0.045239 0.123856
C28   C     C_R   0.439811 0.692758 0.115269 0.102872
C29   C     C_R   0.898926 0.554039 0.313001 0.111710
C30   C     C_R   0.098552 0.447669 0.686926 0.101416
C31   C     C_R   0.558139 0.980534 0.553532 0.022659
C32   C     C_R   0.468935 0.944197 0.466933 0.016345
C33   C     C_R   0.009431 0.545992 0.548321 0.018457
C34   C     C_R   0.086793 0.312379 0.522456 -0.268775
C35   C     C_R   0.991247 0.455607 0.449384 0.012576
C36   C     C_R   0.529477 0.542627 0.045659 0.020833
C37   C     C_R   0.431074 0.439655 0.047782 0.020905
C38   C     C_R   0.590677 0.995154 0.458293 0.050106
C39   C     C_R   0.433532 0.932945 0.561689 0.021416
C40   C     C_R   0.048500 0.450532 0.566142 0.048723
C41   C     C_R   0.952669 0.551093 0.431200 0.021015
C42   C     C_R   0.432485 0.569681 0.078183 0.047974
C43   C     C_R   0.527057 0.407649 0.027454 0.026460
C44   C     C_R   0.552623 0.965959 0.417656 0.048349
C45   C     C_R   0.670007 0.447796 0.968939 -0.222029
C46   C     C_R   0.484098 0.942471 0.606303 0.023558
C47   C     C_R   0.382764 0.520641 0.073636 0.049620
C48   C     C_R   0.576201 0.464157 0.015907 0.021954
C49   C     C_R   0.041427 0.405521 0.514551 0.049880
C50   C     C_R   0.959857 0.596157 0.482688 0.023882
C51   C     C_R   0.576018 0.977149 0.692882 0.031583
C52   C     C_R   0.464909 0.929495 0.329471 0.068186
C53   C     C_R   0.986167 0.687623 0.575744 0.034081
C54   C     C_R   0.011831 0.313624 0.424420 0.071627
C55   C     C_R   0.677453 0.567088 0.008833 0.034423
C56   C     C_R   0.286537 0.546463 0.098078 -0.269427
C57   C     C_R   0.289298 0.424221 0.052822 0.076124
C58   C     C_R   0.333311 0.920617 0.466210 0.043514
C59   C     C_R   0.674604 0.040743 0.544456 0.085856
C60   C     C_R   0.431191 0.301425 0.030944 0.035221
C61   C     C_R   0.535811 0.670640 0.075358 0.083580
C62   C     C_R   0.938170 0.458548 0.330130 0.052908
C63   C     C_R   0.059621 0.542648 0.669713 0.084591
C64   C     C_R   0.610472 0.012161 0.732594 -0.133544
C65   C     C_R   0.410866 0.934433 0.279092 -0.107952
C66   C     C_R   0.016496 0.731068 0.610676 -0.124430
C67   C     C_R   0.351799 0.907578 0.608878 -0.221939
C68   C     C_R   0.981982 0.269665 0.389673 -0.115897
C69   C     C_R   0.726737 0.607329 0.026043 -0.132131
C70   C     C_R   0.248973 0.381529 0.026980 -0.114484
C71   C     C_R   0.280226 0.931222 0.411592 -0.141197
C72   C     C_R   0.721740 0.051590 0.592395 -0.113178
C73   C     C_R   0.386311 0.259370 0.009302 -0.137540
C74   C     C_R   0.590074 0.722454 0.065866 -0.105246
C75   C     C_R   0.938453 0.408432 0.278878 -0.130397
C76   C     C_R   0.059888 0.592188 0.721208 -0.116676
C77   C     C_R   0.681422 0.049673 0.681752 -0.312148
C78   C     C_R   0.658104 0.041013 0.406192 -0.285866
C79   C     C_R   0.321822 0.931287 0.321785 -0.308229
C80   C     C_R   0.053288 0.682562 0.682434 -0.316007
C81   C     C_R   0.945110 0.317971 0.317921 -0.306699
C82   C     C_R   0.681948 0.683744 0.054976 -0.312638
C83   C     C_R   0.297294 0.300015 0.008196 -0.315186
C84   C     C_R   0.602027 0.000621 0.596712 0.008795
C85   C     C_R   0.422030 0.931910 0.420843 0.004805
C86   C     C_R   0.019203 0.591846 0.597180 0.006033
C87   C     C_R   0.979830 0.409544 0.401860 0.001301
C88   C     C_R   0.580708 0.592940 0.044081 0.008525
C89   C     C_R   0.570100 0.316037 0.029881 -0.224240
C90   C     C_R   0.383954 0.389091 0.042663 0.012318
H1    H     H_    0.423856 0.865663 0.743764 0.149275
H2    H     H_    0.316692 0.664331 0.146320 0.138170
H3    H     H_    0.878298 0.671197 0.343352 0.143406
H4    H     H_    0.121746 0.330271 0.654953 0.138296
H5    H     H_    0.711441 0.069702 0.714157 0.194619
H6    H     H_    0.281393 0.937600 0.281761 0.196085
H7    H     H_    0.068218 0.717081 0.714409 0.197173
H8    H     H_    0.930796 0.283139 0.285787 0.195211
H9    H     H_    0.720303 0.718534 0.060931 0.198776
H10   H     H_    0.265357 0.267959 0.990168 0.199507
H11   H     H_    0.457955 0.877996 0.880112 0.226849
H12   H     H_    0.671348 0.946970 0.301304 0.138592
H13   H     H_    0.575750 0.851533 0.850484 0.190847
H14   H     H_    0.662009 0.909551 0.176660 0.184046
H15   H     H_    0.662060 0.811222 0.262238 0.180004
H16   H     H_    0.877118 0.870331 0.464942 0.221940
H17   H     H_    0.852185 0.838588 0.582081 0.185250
H18   H     H_    0.200021 0.178677 0.447738 0.176594
H19   H     H_    0.125707 0.135916 0.545890 0.202118
H20   H     H_    0.853651 0.443424 0.901963 0.214364
H21   H     H_    0.822944 0.560436 0.866923 0.193271
H22   H     H_    0.130432 0.505940 0.202399 0.179064
H23   H     H_    0.864279 0.728192 0.437546 0.148452
H24   H     H_    0.113508 0.587704 0.104809 0.192347
H25   H     H_    0.223004 0.822194 0.582416 0.195932
H26   H     H_    0.177946 0.890691 0.652174 0.205484
H27   H     H_    0.804917 0.099808 0.342087 0.186049
H28   H     H_    0.710538 0.188831 0.356486 0.177313
H29   H     H_    0.602586 0.128977 0.064390 0.206382
H30   H     H_    0.491274 0.140724 0.135242 0.214912
H31   H     H_    0.340445 0.807790 0.136547 0.190870
H32   H     H_    0.363970 0.727043 0.232203 0.178636
H33   H     H_    0.814052 0.566499 0.244642 0.188146
H34   H     H_    0.135870 0.272932 0.560711 0.138790
H35   H     H_    0.875276 0.643594 0.193145 0.203251
H36   H     H_    0.125269 0.343286 0.797959 0.190750
H37   H     H_    0.218890 0.367868 0.713707 0.180300
H38   H     H_    0.704094 0.397102 0.932608 0.151595
H39   H     H_    0.244608 0.603833 0.124138 0.135463
H40   H     H_    0.323562 0.893841 0.682135 0.143561
H41   H     H_    0.677523 0.061730 0.332184 0.146387
H42   H     H_    0.639460 0.284034 0.034869 0.143575
N1    N     N_3   0.520279 0.856897 0.833032 -0.443639
N2    N     N_3   0.393497 0.759454 0.163906 -0.445307
N3    N     N_3   0.839186 0.607224 0.255684 -0.462726
N4    N     N_3   0.152180 0.396601 0.749949 -0.429481
N5    N     N_3   0.619720 0.870858 0.229348 -0.426186
N6    N     N_3   0.858178 0.821247 0.526549 -0.447556
N7    N     N_3   0.132209 0.176387 0.477832 -0.430789
N8    N     N_3   0.802318 0.503246 0.884373 -0.443352
N9    N     N_3   0.143224 0.518244 0.132481 -0.415804
N10   N     N_3   0.237539 0.848168 0.619948 -0.450447
N11   N     N_3   0.751186 0.129041 0.391175 -0.432875
N12   N     N_3   0.546026 0.168702 0.102591 -0.452522
O1    O     O_R   0.982940 0.138950 0.510160 -0.617371
O2    O     O_R   0.982940 0.510160 0.138950 -0.646746
O3    O     O_R   0.861050 0.017060 0.489840 -0.636335
O4    O     O_R   0.138950 0.982940 0.510160 -0.642441
O5    O     O_R   0.867700 0.025880 0.612340 -0.627382
O6    O     O_R   0.132300 0.974120 0.387660 -0.624581
O7    O     O_R   0.025880 0.612340 0.867700 -0.626516
O8    O     O_R   0.974120 0.387660 0.132300 -0.636426
O9    O     O_R   0.612340 0.867700 0.025880 -0.636955
O10   O     O_R   0.387660 0.132300 0.974120 -0.620592
O11   O     O_R   0.387660 0.974120 0.132300 -0.638883
O12   O     O_R   0.017060 0.861050 0.489840 -0.640050
O13   O     O_R   0.612340 0.025880 0.867700 -0.621130
O14   O     O_R   0.132300 0.387660 0.974120 -0.636506
O15   O     O_R   0.867700 0.612340 0.025880 -0.639653
O16   O     O_R   0.974120 0.132300 0.387660 -0.635767
O17   O     O_R   0.025880 0.867700 0.612340 -0.642216
O18   O     O_R   0.138950 0.510160 0.982940 -0.614451
O19   O     O_R   0.861050 0.489840 0.017060 -0.641547
O20   O     O_R   0.510160 0.982940 0.138950 -0.643378
O21   O     O_R   0.489840 0.017060 0.861050 -0.633305
O22   O     O_R   0.489840 0.861050 0.017060 -0.646477
O23   O     O_R   0.510160 0.138950 0.982940 -0.643358
O24   O     O_R   0.017060 0.489840 0.861050 -0.628806
Zn1   Zn    Zn3+2 0.004880 0.004880 0.583590 0.915368
Zn2   Zn    Zn3+2 0.995120 0.995120 0.416410 0.912492
Zn3   Zn    Zn3+2 0.004880 0.583590 0.004880 0.908613
Zn4   Zn    Zn3+2 0.995120 0.416410 0.995120 0.909220
Zn5   Zn    Zn3+2 0.583590 0.004880 0.004880 0.903916
Zn6   Zn    Zn3+2 0.416410 0.995120 0.995120 0.912436

loop_
_geom_bond_atom_site_label_1
_geom_bond_atom_site_label_2
_ccdc_geom_bond_type
C15   C75   S    
C65   C79   A    
C22   N8    S    
C80   H7    S    
C64   C77   A    
C36   C42   A    
C25   N10   S    
H30   N12   S    
C78   H41   S    
C7    C70   S    
C71   C79   A    
C7    O14   A    
O6    Zn2   S    
C36   C88   A    
C38   C44   A    
C1    C18   A    
C26   C78   A    
C89   H42   S    
O15   Zn3   S    
C37   C90   A    
C16   O3    A    
C28   N2    S    
C68   C81   A    
C52   C85   A    
H27   N11   S    
C27   C60   A    
C54   C87   A    
O8    Zn4   S    
C1    C46   A    
H16   N6    S    
C54   C68   A    
C81   H8    S    
C45   H38   S    
C40   C49   A    
O9    Zn5   S    
C60   C73   A    
O7    Zn3   S    
H14   N5    S    
C18   N1    S    
C82   H9    S    
C32   C39   A    
C20   N6    S    
C55   C88   A    
C3    C29   A    
H32   N2    S    
C69   C82   A    
C35   C87   A    
C19   C52   A    
O18   Zn3   S    
C17   O6    A    
C24   C57   A    
C31   C46   A    
C16   C72   S    
C14   O7    A    
C35   C49   A    
C11   O22   A    
C6    O17   A    
C36   C48   A    
C53   C86   A    
C57   C70   A    
C37   C47   A    
C43   C48   A    
C56   H39   S    
O3    Zn2   S    
C59   C72   A    
O23   Zn5   S    
O17   Zn1   S    
C28   C61   A    
H35   N3    S    
C15   O2    A    
H25   N10   S    
H36   N4    S    
C1    H1    S    
O2    Zn3   S    
H29   N12   S    
C74   C82   A    
C5    C68   S    
C35   C41   A    
C15   O8    A    
H21   N8    S    
O4    Zn1   S    
C32   C44   A    
C7    O18   A    
O1    Zn1   S    
O22   Zn6   S    
C33   C40   A    
C5    O1    A    
C57   C90   A    
O10   Zn6   S    
H24   N9    S    
C4    C40   A    
C17   O4    A    
H37   N4    S    
H28   N11   S    
C75   C81   A    
C23   C50   A    
C21   C34   A    
C38   C78   A    
O21   Zn6   S    
C8    O19   A    
C4    C30   A    
C31   C84   A    
H33   N3    S    
C25   C67   A    
C14   C76   S    
H22   N9    S    
C37   C43   A    
C9    O20   A    
C33   C86   A    
C12   H12   S    
C72   C77   A    
C70   C83   A    
C61   C88   A    
C23   H23   S    
C20   C23   A    
O24   Zn4   S    
C24   N9    S    
C19   N5    S    
C5    O16   A    
C27   N12   S    
C8    C69   S    
O20   Zn5   S    
C3    H3    S    
C43   C89   A    
C59   C84   A    
C2    H2    S    
O19   Zn4   S    
C10   O13   A    
C16   O5    A    
C39   C46   A    
C4    H4    S    
O11   Zn6   S    
C29   N3    S    
C13   C73   S    
C17   C71   S    
C60   C90   A    
C83   H10   S    
C63   C86   A    
H31   N2    S    
O5    Zn1   S    
C62   C75   A    
C67   H40   S    
C25   C58   A    
C21   N7    S    
C14   O24   A    
C26   N11   S    
C58   C85   A    
C41   C50   A    
C26   C59   A    
C45   C48   A    
C29   C62   A    
C3    C41   A    
C34   C49   A    
C34   H34   S    
C39   C67   A    
C10   C64   S    
C51   C64   A    
C76   C80   A    
C20   C53   A    
C11   C74   S    
H26   N10   S    
H18   N7    S    
C22   C55   A    
H11   N1    S    
C18   C51   A    
C24   C56   A    
C66   C80   A    
C62   C87   A    
C30   N4    S    
C31   C38   A    
H19   N7    S    
C55   C69   A    
H17   N6    S    
H20   N8    S    
C33   C50   A    
C79   H6    S    
C12   C44   A    
C53   C66   A    
O14   Zn4   S    
C21   C54   A    
C2    C42   A    
C10   O21   A    
C32   C85   A    
C12   C19   A    
O12   Zn2   S    
C77   H5    S    
C27   C89   A    
C42   C47   A    
H13   N1    S    
C58   C71   A    
C9    C65   S    
C13   O10   A    
C13   O23   A    
C11   O9    A    
H15   N5    S    
C6    C66   S    
C22   C45   A    
C9    O11   A    
C63   C76   A    
O16   Zn2   S    
C2    C28   A    
C30   C63   A    
C8    O15   A    
C51   C84   A    
C73   C83   A    
C6    O12   A    
C52   C65   A    
C61   C74   A    
O13   Zn5   S    
C47   C56   A    
