data_str_m3_o16_o22_f0_pcu.sym.74
_audit_creation_date              2012-12-10T18:09:56-0500
_audit_creation_method            fapswitch 2.2
_symmetry_space_group_name_H-M    P1
_symmetry_Int_Tables_number       1
_space_group_crystal_system       triclinic
_cell_length_a                    10.721805
_cell_length_b                    12.601253
_cell_length_c                    13.214319
_cell_angle_alpha                 82.686222
_cell_angle_beta                  87.846276
_cell_angle_gamma                 101.885903
_cell_volume                      1729.12151756

loop_
_atom_site_label
_atom_site_type_symbol
_atom_type_description
_atom_site_fract_x
_atom_site_fract_y
_atom_site_fract_z
_atom_type_partial_charge
C1    C     C_R   0.483984 0.438499 0.691964 0.937565
C2    C     C_R   0.472070 0.450534 0.974254 -0.001157
C3    C     C_R   0.439256 0.469688 0.872669 0.034801
C4    C     C_R   0.742035 0.500864 0.496911 0.835678
C5    C     C_R   0.483031 0.535743 0.035956 0.079836
C6    C     C_R   0.433720 0.629470 0.003334 0.121111
C7    C     C_R   0.381820 0.639985 0.908924 -0.334450
C8    C     C_R   0.379231 0.559461 0.845420 0.028638
C9    C     C_R   0.542158 0.531344 0.129248 0.128179
C10   C     C_R   0.466005 0.691117 0.167784 -0.200493
C11   C     C_R   0.469106 0.398930 0.803324 -0.099490
C12   C     C_3   0.122329 0.502000 0.494721 0.084497
C13   C     C_R   0.334727 0.086012 0.343000 -0.065749
C14   C     C_R   0.648603 0.799107 0.628154 -0.069579
C15   C     C_R   0.698655 0.907083 0.642580 0.149362
C16   C     C_R   0.517006 0.561257 0.308785 0.866090
C17   C     C_R   0.660686 0.993185 0.580075 0.197662
C18   C     C_R   0.555375 0.967516 0.517776 -0.019996
C19   C     C_R   0.517437 0.856598 0.501300 0.151065
C20   C     C_R   0.487279 0.044848 0.469095 0.012771
C21   C     C_R   0.400621 0.012143 0.394155 0.056614
C22   C     C_R   0.379687 0.904959 0.371885 -0.257606
C23   C     C_3   0.080830 0.495867 0.383141 -0.128490
C24   C     C_R   0.432540 0.828567 0.427582 -0.166922
C25   C     C_R   0.494790 0.150556 0.496234 -0.125035
C26   C     C_R   0.354395 0.192881 0.368047 0.295488
C27   C     C_R   0.258355 0.500250 0.499916 0.912287
C28   C     C_3   0.900326 0.400497 0.563219 -0.483693
C29   C     C_3   0.042457 0.399288 0.563696 -0.420217
C30   C     C_3   0.935745 0.502879 0.377883 0.348231
C31   C     C_3   0.951849 0.604058 0.536797 -0.445176
C32   C     C_3   0.879538 0.501967 0.491698 0.161142
C33   C     C_3   0.917344 0.607406 0.308365 -0.829143
C34   C     C_3   0.094101 0.606624 0.533451 -0.372715
C35   C     C_2   0.171446 0.571505 0.300933 0.317581
C36   C     C_3   0.650216 0.472068 0.147044 -0.915193
C37   C     C_3   0.549720 0.226371 0.772827 -0.930691
C38   C     C_2   0.496185 0.152680 0.996330 0.461217
C39   C     C_2   0.291008 0.561764 0.763340 0.436822
C40   C     C_3   0.281903 0.269998 0.310465 -0.790682
C41   C     C_2   0.240229 0.049545 0.267494 0.404928
C42   C     C_3   0.748464 0.105038 0.567269 -0.949792
C43   C     C_3   0.796223 0.928671 0.720920 -0.902338
C44   C     C_3   0.866974 0.403008 0.328375 -0.920411
C45   C     C_R   0.430015 0.708663 0.068191 -0.174991
C46   C     C_R   0.515629 0.599018 0.200000 -0.087898
C47   C     C_R   0.500279 0.297152 0.842807 0.091167
C48   C     C_R   0.492034 0.265673 0.949721 0.043587
C49   C     C_R   0.481033 0.343592 0.013730 -0.197394
H1    H     H_    0.847736 0.323708 0.539475 0.204726
H2    H     H_    0.681912 0.732325 0.670784 0.157793
H3    H     H_    0.404941 0.747520 0.410500 0.242404
H4    H     H_    0.069888 0.395473 0.643466 0.252341
H5    H     H_    0.058266 0.322741 0.536424 0.185749
H6    H     H_    0.090557 0.413117 0.367161 0.091922
H7    H     H_    0.935289 0.682118 0.495961 0.194520
H8    H     H_    0.916157 0.600838 0.617717 0.184073
H9    H     H_    0.126124 0.611875 0.611629 0.191300
H10   H     H_    0.815975 0.614715 0.312233 0.211486
H11   H     H_    0.974969 0.683409 0.330481 0.261719
H12   H     H_    0.146149 0.682114 0.484432 0.221255
H13   H     H_    0.946223 0.604947 0.227182 0.242169
H14   H     H_    0.205844 0.538230 0.236077 0.082672
H15   H     H_    0.729303 0.525930 0.178928 0.239439
H16   H     H_    0.617895 0.395046 0.200375 0.266269
H17   H     H_    0.691694 0.453979 0.074610 0.253625
H18   H     H_    0.597651 0.165177 0.813525 0.217799
H19   H     H_    0.469592 0.182543 0.733095 0.261691
H20   H     H_    0.624618 0.277637 0.716676 0.241497
H21   H     H_    0.474714 0.084818 0.952442 0.059558
H22   H     H_    0.273470 0.639315 0.727883 0.038936
H23   H     H_    0.449684 0.746582 0.220538 0.195544
H24   H     H_    0.292380 0.350345 0.333122 0.262897
H25   H     H_    0.313737 0.284505 0.228246 0.248878
H26   H     H_    0.177833 0.233767 0.319514 0.199875
H27   H     H_    0.164977 0.977095 0.288836 0.057156
H28   H     H_    0.736579 0.154729 0.494239 0.242810
H29   H     H_    0.733383 0.147688 0.633667 0.243350
H30   H     H_    0.849831 0.097936 0.561544 0.249819
H31   H     H_    0.802928 0.852044 0.770260 0.232092
H32   H     H_    0.892139 0.964970 0.682677 0.245921
H33   H     H_    0.768579 0.985437 0.771129 0.255438
H34   H     H_    0.336418 0.708213 0.887137 0.139055
H35   H     H_    0.875809 0.324003 0.371957 0.233677
H36   H     H_    0.764661 0.402099 0.321698 0.273951
H37   H     H_    0.909938 0.406086 0.249882 0.242479
H38   H     H_    0.390646 0.779818 0.044429 0.160975
H39   H     H_    0.476169 0.319300 0.095270 0.204289
H40   H     H_    0.862173 0.401809 0.642572 0.177918
H41   H     H_    0.318252 0.877013 0.313371 0.191302
H42   H     H_    0.547350 0.177400 0.559223 0.169825
N1    N     N_R   0.433240 0.222190 0.444680 -0.114319
N2    N     N_R   0.566070 0.776970 0.554790 -0.154113
O1    O     O_R   0.468120 0.366740 0.627160 -0.595168
O2    O     O_2   0.521877 0.133618 0.085197 -0.555603
O3    O     O_2   0.232450 0.476509 0.738823 -0.641809
O4    O     O_2   0.247873 0.098126 0.180725 -0.546847
O5    O     O_R   0.510770 0.544830 0.662520 -0.634247
O6    O     O_R   0.663880 0.410950 0.482330 -0.626197
O7    O     O_R   0.706530 0.589040 0.517700 -0.627953
O8    O     O_R   0.489230 0.455170 0.337480 -0.619305
O9    O     O_R   0.531880 0.633260 0.372840 -0.632751
O10   O     O_R   0.293470 0.410960 0.482300 -0.644012
O11   O     O_R   0.336120 0.589050 0.517670 -0.635416
O12   O     O_2   0.204455 0.669360 0.304715 -0.632998
Zn1   Zn    Zn3+2 0.471520 0.381090 0.476390 0.933292
Zn2   Zn    Zn3+2 0.528480 0.618910 0.523610 0.930230

loop_
_geom_bond_atom_site_label_1
_geom_bond_atom_site_label_2
_ccdc_geom_bond_type
C24   H3    S    
C7    H34   S    
C38   H21   S    
C6    C45   A    
C37   H20   S    
C12   C29   S    
C11   C47   A    
C1    C11   S    
C13   C41   S    
C7    C8    A    
C12   C23   S    
C28   C29   S    
C45   H38   S    
C5    C6    A    
C36   H17   S    
C29   H5    S    
C26   N1    A    
C37   H19   S    
C27   O11   A    
C40   H24   S    
C18   C20   A    
C18   C19   A    
C17   C42   S    
C28   H1    S    
C31   C32   S    
C33   H13   S    
O7    Zn2   S    
C38   O2    D    
C10   C46   A    
C9    C36   S    
C28   H40   S    
C8    C39   S    
C31   H7    S    
C37   C47   S    
C14   N2    A    
C38   C48   S    
C19   N2    A    
C47   C48   A    
C9    C46   A    
C33   H10   S    
C21   C22   A    
C49   H39   S    
C30   C44   S    
C44   H37   S    
C25   H42   S    
C12   C27   S    
C23   C30   S    
C28   C32   S    
C3    C8    A    
C16   C46   S    
C36   H16   S    
C1    O1    A    
C43   H31   S    
C34   H12   S    
O5    Zn2   S    
C5    C9    A    
C35   O12   D    
C2    C49   A    
C14   H2    S    
C10   C45   A    
C17   C18   A    
C22   H41   S    
C31   C34   S    
C13   C21   A    
O9    Zn2   S    
C4    C32   S    
C16   O9    A    
C48   C49   A    
C42   H29   S    
C33   H11   S    
C23   C35   S    
C4    O7    A    
C43   H32   S    
C22   C24   A    
C13   C26   A    
C2    C5    A    
C12   C34   S    
C44   H36   S    
N1    Zn1   S    
O8    Zn1   S    
C15   C17   A    
O6    Zn1   S    
O1    Zn1   S    
C25   N1    A    
C30   C33   S    
C44   H35   S    
C1    O5    A    
C23   H6    S    
C6    C7    A    
C40   H26   S    
C31   H8    S    
C2    C3    A    
C15   C43   S    
N2    Zn2   S    
C41   H27   S    
C30   C32   S    
C26   C40   S    
C29   H4    S    
C37   H18   S    
C27   O10   A    
C40   H25   S    
C19   C24   A    
O10   Zn1   S    
C41   O4    D    
C39   O3    D    
C3    C11   A    
C16   O8    A    
C42   H30   S    
C20   C21   A    
C42   H28   S    
C20   C25   A    
C4    O6    A    
C34   H9    S    
C43   H33   S    
C39   H22   S    
C14   C15   A    
C35   H14   S    
C36   H15   S    
O11   Zn2   S    
C10   H23   S    
