data_str_m2_o41_o41_f0_fof.sym.14
_audit_creation_date              2013-03-05T15:41:13-0500
_audit_creation_method            fapswitch 2.2
_symmetry_space_group_name_H-M    P1
_symmetry_Int_Tables_number       1
_space_group_crystal_system       triclinic
_cell_length_a                    16.763201
_cell_length_b                    16.771229
_cell_length_c                    16.668383
_cell_angle_alpha                 68.093965
_cell_angle_beta                  68.295058
_cell_angle_gamma                 68.466009
_cell_volume                      3894.28456284

loop_
_atom_site_label
_atom_site_type_symbol
_atom_site_description
_atom_site_fract_x
_atom_site_fract_y
_atom_site_fract_z
_atom_type_partial_charge
O1    O     O_R   0.124540 0.978640 0.385460 -0.597945
O2    O     O_R   0.875460 0.021360 0.614540 -0.597979
O3    O     O_R   0.978640 0.385460 0.124540 -0.594935
O4    O     O_R   0.021360 0.614540 0.875460 -0.594934
O5    O     O_R   0.385460 0.124540 0.978640 -0.587951
O6    O     O_R   0.614540 0.875460 0.021360 -0.587952
O7    O     O_R   0.614540 0.021360 0.875460 -0.595740
O8    O     O_R   0.385460 0.978640 0.124540 -0.595735
O9    O     O_R   0.875460 0.614540 0.021360 -0.592567
O10   O     O_R   0.124540 0.385460 0.978640 -0.592514
O11   O     O_R   0.021360 0.875460 0.614540 -0.585567
O12   O     O_R   0.978640 0.124540 0.385460 -0.585596
C1    C     C_R   0.324994 0.945250 0.456964 0.064102
C2    C     C_R   0.674994 0.054815 0.543027 0.064108
C3    C     C_R   0.944345 0.454648 0.326693 0.065092
C4    C     C_R   0.055408 0.545390 0.673358 0.065032
C5    C     C_R   0.451285 0.323332 0.955328 0.030699
C6    C     C_R   0.548685 0.676645 0.044793 0.030606
C7    C     C_R   0.543825 0.055509 0.674201 0.061512
C8    C     C_R   0.456160 0.944565 0.325788 0.061500
C9    C     C_R   0.678414 0.547150 0.043475 0.011436
C10   C     C_R   0.321566 0.452834 0.956619 0.011358
C11   C     C_R   0.047636 0.677902 0.543999 0.007155
C12   C     C_R   0.952096 0.322139 0.456061 0.007141
Cu1   Cu    Cu3+1 0.995180 0.995180 0.424630 0.892361
Cu2   Cu    Cu3+1 0.004820 0.004820 0.575370 0.892369
Cu3   Cu    Cu3+1 0.995180 0.424630 0.995180 0.900150
Cu4   Cu    Cu3+1 0.004820 0.575370 0.004820 0.900130
Cu5   Cu    Cu3+1 0.424630 0.995180 0.995180 0.902213
Cu6   Cu    Cu3+1 0.575370 0.004820 0.004820 0.902207
C13   C     C_R   0.027155 0.828415 0.564891 0.817161
C14   C     C_R   0.972826 0.171585 0.435112 0.817151
C15   C     C_R   0.828672 0.565219 0.026252 0.811569
C16   C     C_R   0.171326 0.434781 0.973755 0.811539
C17   C     C_R   0.564945 0.027161 0.828113 0.819720
C18   C     C_R   0.435054 0.972844 0.171887 0.819663
C19   C     C_R   0.434329 0.171610 0.974119 0.805687
C20   C     C_R   0.565668 0.828389 0.025893 0.805649
C21   C     C_R   0.972024 0.435191 0.172080 0.818771
C22   C     C_R   0.027957 0.564814 0.827922 0.818744
C23   C     C_R   0.171824 0.973359 0.434862 0.823187
C24   C     C_R   0.828175 0.026646 0.565137 0.823141
O13   O     O_R   0.013780 0.867370 0.487190 -0.602202
O14   O     O_R   0.986220 0.132630 0.512810 -0.602189
O15   O     O_R   0.867370 0.487190 0.013780 -0.592077
O16   O     O_R   0.132630 0.512810 0.986220 -0.592101
O17   O     O_R   0.487190 0.013780 0.867370 -0.581025
O18   O     O_R   0.512810 0.986220 0.132630 -0.581044
O19   O     O_R   0.512810 0.132630 0.986220 -0.591892
O20   O     O_R   0.487190 0.867370 0.013780 -0.591863
O21   O     O_R   0.986220 0.512810 0.132630 -0.583894
O22   O     O_R   0.013780 0.487190 0.867370 -0.583879
O23   O     O_R   0.132630 0.986220 0.512810 -0.581319
O24   O     O_R   0.867370 0.013780 0.487190 -0.581329
C25   C     C_R   0.413222 0.953554 0.413959 -0.015565
C26   C     C_R   0.586758 0.046533 0.586026 -0.015544
C27   C     C_R   0.957145 0.411086 0.413616 0.001424
C28   C     C_R   0.042522 0.588975 0.586472 0.001341
C29   C     C_R   0.408967 0.410389 0.964908 0.011241
C30   C     C_R   0.590996 0.589581 0.035231 0.011268
H1    H     H_    0.270066 0.968722 0.269539 0.188499
H2    H     H_    0.729941 0.031252 0.730469 0.188506
H3    H     H_    0.965957 0.270174 0.270338 0.187976
H4    H     H_    0.034169 0.729792 0.729624 0.187950
H5    H     H_    0.268788 0.269665 0.967339 0.186627
H6    H     H_    0.731220 0.730346 0.032636 0.186633
C31   C     C_R   0.271194 0.954741 0.402486 -0.108383
C32   C     C_R   0.728803 0.045283 0.597512 -0.108365
C33   C     C_R   0.954129 0.401447 0.271996 -0.109468
C34   C     C_R   0.045793 0.598561 0.728013 -0.109295
C35   C     C_R   0.399371 0.270335 0.959601 -0.118655
C36   C     C_R   0.600617 0.729659 0.040449 -0.118678
C37   C     C_R   0.597813 0.045738 0.728395 -0.112072
C38   C     C_R   0.402183 0.954289 0.271603 -0.112024
C39   C     C_R   0.730563 0.599413 0.040576 -0.120601
C40   C     C_R   0.269430 0.400584 0.959462 -0.120576
C41   C     C_R   0.043951 0.729817 0.597406 -0.121274
C42   C     C_R   0.955955 0.270189 0.402607 -0.121252
C43   C     C_R   0.449123 0.069573 0.704568 0.112003
C44   C     C_R   0.550860 0.930520 0.295420 0.112055
C45   C     C_R   0.053767 0.710711 0.450125 0.113122
C46   C     C_R   0.945869 0.289339 0.549955 0.113047
C47   C     C_R   0.708719 0.453234 0.056492 0.117235
C48   C     C_R   0.291267 0.546751 0.943613 0.117220
C49   C     C_R   0.294604 0.931390 0.552210 0.106754
C50   C     C_R   0.705383 0.068689 0.447781 0.106740
C51   C     C_R   0.545402 0.295374 0.935360 0.121677
C52   C     C_R   0.454568 0.704615 0.064764 0.121631
C53   C     C_R   0.922038 0.549742 0.299436 0.111135
C54   C     C_R   0.077638 0.450299 0.700627 0.111176
C55   C     C_R   0.311318 0.958525 0.311335 -0.294022
C56   C     C_R   0.688683 0.041481 0.688668 -0.294038
C57   C     C_R   0.957874 0.310789 0.311774 -0.285592
C58   C     C_R   0.042122 0.689202 0.688217 -0.285618
C59   C     C_R   0.309232 0.310237 0.961542 -0.271702
C60   C     C_R   0.690765 0.689764 0.038476 -0.271708
C61   C     C_R   0.668019 0.033946 0.408605 0.042622
C62   C     C_R   0.331956 0.966160 0.591373 0.042611
C63   C     C_R   0.047506 0.407410 0.662802 0.050306
C64   C     C_R   0.952046 0.592680 0.337330 0.050353
C65   C     C_R   0.411347 0.667004 0.035028 0.081839
C66   C     C_R   0.588608 0.332963 0.965136 0.081808
C67   C     C_R   0.590098 0.966034 0.331741 0.043933
C68   C     C_R   0.409872 0.034082 0.668235 0.043923
C69   C     C_R   0.327806 0.586183 0.978411 0.093784
C70   C     C_R   0.672156 0.413786 0.021738 0.093732
C71   C     C_R   0.984206 0.325478 0.586215 0.101140
C72   C     C_R   0.015305 0.674625 0.413939 0.101070
C73   C     C_R   0.711661 0.018191 0.323655 -0.206952
C74   C     C_R   0.288311 0.981923 0.676321 -0.206953
C75   C     C_R   0.041977 0.318845 0.703686 -0.223313
C76   C     C_R   0.957520 0.681264 0.296474 -0.223311
C77   C     C_R   0.324404 0.708948 0.025480 -0.209919
C78   C     C_R   0.675552 0.291017 0.974680 -0.209993
C79   C     C_R   0.674653 0.981929 0.287197 -0.205857
C80   C     C_R   0.325316 0.018191 0.712777 -0.205863
C81   C     C_R   0.284533 0.670621 0.994007 -0.203669
C82   C     C_R   0.715429 0.329348 0.006140 -0.203625
C83   C     C_R   0.008250 0.279358 0.667337 -0.196374
C84   C     C_R   0.991219 0.720761 0.332840 -0.196432
C85   C     C_R   0.544045 0.985466 0.414764 0.028749
C86   C     C_R   0.455923 0.014651 0.585210 0.028756
C87   C     C_R   0.994750 0.411790 0.541847 0.017123
C88   C     C_R   0.004763 0.588316 0.458310 0.017178
C89   C     C_R   0.412672 0.541881 0.992405 0.014386
C90   C     C_R   0.587277 0.458078 0.007770 0.014407
C91   C     C_R   0.585042 0.014702 0.455272 0.030214
C92   C     C_R   0.414928 0.985412 0.544703 0.030220
C93   C     C_R   0.456416 0.584641 0.015037 0.015907
C94   C     C_R   0.543533 0.415317 0.985143 0.015937
C95   C     C_R   0.021498 0.454404 0.582593 0.023866
C96   C     C_R   0.978027 0.545698 0.417557 0.023853
C97   C     C_R   0.458413 0.972257 0.458881 -0.062647
C98   C     C_R   0.541559 0.027853 0.541095 -0.062652
C99   C     C_R   0.974406 0.456956 0.458708 -0.059842
C100  C     C_R   0.025149 0.543137 0.541428 -0.059802
C101  C     C_R   0.455723 0.456625 0.979000 -0.054268
C102  C     C_R   0.544228 0.543335 0.021172 -0.054262
H7    H     H_    0.288848 0.030751 0.777615 0.127530
H8    H     H_    0.711120 0.969367 0.222359 0.127538
H9    H     H_    0.996907 0.788106 0.297963 0.135627
H10   H     H_    0.002559 0.212016 0.702219 0.135596
H11   H     H_    0.781213 0.293967 0.015570 0.133687
H12   H     H_    0.218759 0.706013 0.984555 0.133717
H13   H     H_    0.223706 0.969500 0.713392 0.127610
H14   H     H_    0.776267 0.030609 0.286585 0.127603
H15   H     H_    0.711214 0.226451 0.962425 0.132638
H16   H     H_    0.288744 0.773520 0.037725 0.132650
H17   H     H_    0.939849 0.718877 0.233934 0.131151
H18   H     H_    0.059662 0.281230 0.766221 0.131156
C103  C     C_3   0.386805 0.140832 0.753143 -0.370375
C104  C     C_3   0.425710 0.216456 0.738010 -0.810929
H19   H     H_    0.484950 0.193049 0.763183 0.231047
H20   H     H_    0.442938 0.252508 0.665531 0.250247
H21   H     H_    0.375552 0.263232 0.776234 0.231634
H22   H     H_    0.327195 0.174113 0.726643 0.184685
H23   H     H_    0.359872 0.111153 0.825686 0.224849
C105  C     C_3   0.613190 0.859228 0.246894 -0.370482
C106  C     C_3   0.574289 0.783582 0.262092 -0.810873
H24   H     H_    0.556983 0.747622 0.334593 0.250293
H25   H     H_    0.515101 0.806955 0.236844 0.231023
H26   H     H_    0.624484 0.736736 0.223973 0.231682
H27   H     H_    0.640123 0.888867 0.174341 0.224848
H28   H     H_    0.672797 0.825978 0.273400 0.184701
C107  C     C_3   0.120922 0.762939 0.385920 -0.343626
C108  C     C_3   0.194686 0.710994 0.323722 -0.902625
H29   H     H_    0.228549 0.645736 0.363103 0.267595
H30   H     H_    0.169702 0.700421 0.276451 0.266867
H31   H     H_    0.242180 0.751828 0.284369 0.254675
H32   H     H_    0.087759 0.827268 0.344694 0.212376
H33   H     H_    0.154875 0.776930 0.423266 0.205026
C109  C     C_3   0.878819 0.236957 0.614070 -0.343666
C110  C     C_3   0.804910 0.288775 0.676279 -0.902744
H34   H     H_    0.829743 0.299260 0.723718 0.266850
H35   H     H_    0.771081 0.354069 0.636916 0.267664
H36   H     H_    0.757432 0.247887 0.715420 0.254656
H37   H     H_    0.844993 0.222908 0.576650 0.205006
H38   H     H_    0.912036 0.172656 0.655287 0.212477
C111  C     C_3   0.743857 0.395539 0.137701 -0.349135
C112  C     C_3   0.668687 0.363121 0.215753 -0.871847
H39   H     H_    0.607820 0.419282 0.224390 0.259528
H40   H     H_    0.652802 0.310287 0.204108 0.259703
H41   H     H_    0.688825 0.336055 0.278633 0.249284
H42   H     H_    0.800250 0.337922 0.121902 0.196759
H43   H     H_    0.768026 0.433742 0.161415 0.198246
C113  C     C_3   0.256116 0.604472 0.862416 -0.349079
C114  C     C_3   0.331233 0.637047 0.784411 -0.871903
H44   H     H_    0.346972 0.689931 0.796127 0.259681
H45   H     H_    0.392180 0.580971 0.775752 0.259556
H46   H     H_    0.311119 0.664100 0.721517 0.249275
H47   H     H_    0.232055 0.566247 0.838615 0.198213
H48   H     H_    0.199645 0.662012 0.878274 0.196822
C115  C     C_3   0.244419 0.860932 0.615380 -0.362889
C116  C     C_3   0.256469 0.786095 0.576565 -0.821316
H49   H     H_    0.226734 0.809922 0.520058 0.230108
H50   H     H_    0.328315 0.752479 0.554168 0.247680
H51   H     H_    0.221705 0.736506 0.628899 0.233183
H52   H     H_    0.270998 0.826933 0.675174 0.189388
H53   H     H_    0.172963 0.891493 0.642896 0.224576
C117  C     C_3   0.755589 0.139133 0.384625 -0.362934
C118  C     C_3   0.743557 0.213950 0.423458 -0.821309
H54   H     H_    0.671716 0.247583 0.445849 0.247680
H55   H     H_    0.773283 0.190098 0.479974 0.230067
H56   H     H_    0.778341 0.263530 0.371137 0.233230
H57   H     H_    0.827042 0.108559 0.357113 0.224590
H58   H     H_    0.729016 0.173155 0.324827 0.189419
C119  C     C_3   0.594920 0.266804 0.849587 -0.364812
C120  C     C_3   0.588223 0.348600 0.768086 -0.869953
H59   H     H_    0.517594 0.386994 0.772035 0.258174
H60   H     H_    0.625782 0.392809 0.764679 0.267295
H61   H     H_    0.615070 0.327487 0.705396 0.245559
H62   H     H_    0.665169 0.231333 0.848782 0.188321
H63   H     H_    0.567091 0.220587 0.841871 0.207582
C121  C     C_3   0.405053 0.733284 0.150483 -0.364521
C122  C     C_3   0.411553 0.651530 0.232042 -0.870150
H64   H     H_    0.373958 0.607379 0.235383 0.267308
H65   H     H_    0.482149 0.613053 0.228210 0.258170
H66   H     H_    0.384623 0.672697 0.294708 0.245616
H67   H     H_    0.433005 0.779409 0.158208 0.207484
H68   H     H_    0.334847 0.768911 0.151202 0.188190
C123  C     C_3   0.846175 0.605194 0.254705 -0.388026
C124  C     C_3   0.774249 0.557608 0.279501 -0.822931
H69   H     H_    0.798717 0.501909 0.248916 0.228226
H70   H     H_    0.750171 0.532371 0.353598 0.255941
H71   H     H_    0.717259 0.604294 0.253469 0.234043
H72   H     H_    0.810988 0.666221 0.278353 0.192645
H73   H     H_    0.871065 0.629733 0.180998 0.230088
C125  C     C_3   0.153586 0.394785 0.745224 -0.387897
C126  C     C_3   0.225548 0.442345 0.720372 -0.822865
H74   H     H_    0.249359 0.467868 0.646280 0.255923
H75   H     H_    0.201215 0.497831 0.751232 0.228191
H76   H     H_    0.282702 0.395547 0.746062 0.234082
H77   H     H_    0.128787 0.370183 0.818939 0.230001
H78   H     H_    0.188712 0.333800 0.721499 0.192624

loop_
_geom_bond_atom_site_label_1
_geom_bond_atom_site_label_2
_geom_bond_distance
_ccdc_geom_bond_type
C7    C26   1.415609 A    
O10   Cu3   1.963944 S    
C11   C28   1.412080 A    
C2    C26   1.418872 A    
Cu2   O23   1.968402 S    
C107  H33   1.111581 S    
C107  C108  1.515824 S    
C62   C74   1.407524 A    
O5    C19   1.297943 A    
C45   C107  1.520888 S    
C65   C93   1.407490 A    
C15   O15   1.287102 A    
C118  H54   1.110738 S    
C72   C84   1.408179 A    
C116  H50   1.110739 S    
C73   H14   1.082904 S    
C91   C98   1.404475 A    
C71   C87   1.402113 A    
C61   C91   1.409231 A    
C17   O17   1.285204 A    
Cu1   O13   1.965022 S    
C103  H22   1.112752 S    
C52   C65   1.415248 A    
C118  H55   1.102468 S    
Cu2   O14   1.965021 S    
C23   C31   1.497500 S    
C110  H34   1.109256 S    
Cu3   O22   1.953865 S    
C4    C54   1.427219 A    
Cu4   O16   1.971921 S    
C117  H57   1.107346 S    
C52   C121  1.517904 S    
Cu5   O17   1.956379 S    
O8    Cu5   1.948739 S    
C103  H23   1.107150 S    
C77   H16   1.082226 S    
Cu6   O18   1.956378 S    
C34   C58   1.401341 A    
C78   H15   1.082215 S    
C85   C91   1.416409 A    
C126  H76   1.103603 S    
C33   C57   1.401363 A    
C121  H67   1.104351 S    
C122  H65   1.111391 S    
C40   C59   1.406425 A    
C53   C123  1.534188 S    
Cu4   O21   1.953864 S    
C116  H51   1.109360 S    
C35   C59   1.403471 A    
C90   C94   1.409508 A    
C42   C57   1.402788 A    
C109  H38   1.111000 S    
C115  H52   1.111256 S    
C41   C58   1.402775 A    
C119  H63   1.104154 S    
C19   O19   1.290485 A    
C88   C96   1.412728 A    
C75   C83   1.397481 A    
O8    C18   1.300834 A    
C113  H47   1.108596 S    
C50   C61   1.418654 A    
C12   C46   1.428929 A    
C86   C98   1.407670 A    
C114  H46   1.101265 S    
C49   C62   1.418669 A    
C32   C56   1.402982 A    
C21   O21   1.287075 A    
C68   C80   1.408074 A    
C48   C113  1.519738 S    
C15   C39   1.486612 S    
C13   O13   1.276874 A    
C90   C102  1.405981 A    
C93   C102  1.402523 A    
O4    C22   1.302362 A    
C120  H59   1.111341 S    
H2    C56   1.083229 S    
C112  H39   1.111746 S    
C103  C104  1.531146 S    
C106  H25   1.102473 S    
C18   O18   1.285191 A    
C16   O16   1.287061 A    
C10   C40   1.426388 A    
C74   H13   1.082903 S    
C125  H78   1.112064 S    
C115  C116  1.535526 S    
C112  H41   1.101260 S    
C105  H28   1.112754 S    
C80   H7    1.082944 S    
Cu3   O15   1.971922 S    
C62   C92   1.409224 A    
C116  H49   1.102483 S    
C45   C72   1.411470 A    
O11   C13   1.299343 A    
O7    Cu6   1.948741 S    
O12   C14   1.299271 A    
O1    Cu1   1.962628 S    
C3    C27   1.415642 A    
C69   C81   1.407234 A    
C72   C88   1.402069 A    
C8    C25   1.415608 A    
C71   C83   1.408166 A    
C125  C126  1.534024 S    
O4    Cu4   1.947385 S    
C126  H74   1.110901 S    
C112  H40   1.110633 S    
C39   C60   1.406416 A    
C13   C41   1.486539 S    
O5    Cu5   1.963623 S    
Cu5   O20   1.971045 S    
C110  H35   1.111047 S    
C6    C36   1.423778 A    
C3    C33   1.429395 A    
C20   C36   1.495688 S    
C8    C44   1.432432 A    
C44   C67   1.416034 A    
C119  C120  1.532696 S    
C113  H48   1.109915 S    
C9    C47   1.423088 A    
C7    C37   1.430825 A    
C108  H30   1.109291 S    
C4    C34   1.429405 A    
Cu1   O24   1.968402 S    
C2    C50   1.430842 A    
C9    C30   1.408232 A    
O2    Cu2   1.962628 S    
C82   H11   1.082187 S    
C122  H66   1.109574 S    
C10   C29   1.408227 A    
C76   C84   1.397472 A    
C88   C100  1.409671 A    
C121  C122  1.532646 S    
C117  C118  1.535510 S    
C53   C64   1.418044 A    
C124  H71   1.103634 S    
C28   C100  1.412898 A    
Cu1   Cu2   2.643478 S    
C22   O22   1.287037 A    
C70   C90   1.403759 A    
C123  H72   1.112080 S    
C6    C52   1.415899 A    
C87   C99   1.409666 A    
C10   C48   1.423114 A    
C38   C55   1.404731 A    
C67   C79   1.408071 A    
C122  H64   1.111027 S    
C123  C124  1.534005 S    
C66   C78   1.407007 A    
C24   C32   1.497507 S    
C3    C53   1.427226 A    
C51   C66   1.415233 A    
C61   C73   1.407518 A    
C44   C105  1.534580 S    
C106  H24   1.110675 S    
C104  H21   1.104910 S    
Cu5   Cu6   2.656450 S    
C63   C75   1.406525 A    
C81   H12   1.082176 S    
C31   C55   1.402979 A    
C48   C69   1.412554 A    
C14   O14   1.276936 A    
C106  H26   1.104865 S    
C8    C38   1.430835 A    
O10   C16   1.297954 A    
C4    C28   1.415615 A    
C46   C71   1.411456 A    
C11   C41   1.432674 A    
C7    C43   1.432438 A    
C23   O23   1.280604 A    
C125  H77   1.105715 S    
C78   C82   1.400486 A    
C18   C38   1.491842 S    
C105  H27   1.107153 S    
O9    C15   1.297933 A    
C46   C109  1.520875 S    
C77   C81   1.400529 A    
C6    C30   1.410801 A    
O6    Cu6   1.963623 S    
Cu6   O19   1.971046 S    
C5    C29   1.410794 A    
C64   C76   1.406525 A    
C19   C35   1.495677 S    
C120  H61   1.109548 S    
C105  C106  1.531108 S    
C118  H56   1.109360 S    
C43   C68   1.416058 A    
C16   C40   1.486596 S    
C67   C85   1.406724 A    
C75   H18   1.083030 S    
C74   C80   1.398438 A    
C54   C63   1.417983 A    
C109  C110  1.515654 S    
C43   C103  1.534602 S    
C111  H42   1.109917 S    
C1    C31   1.433785 A    
C110  H36   1.100950 S    
C12   C42   1.432619 A    
C107  H32   1.110994 S    
C123  H73   1.105669 S    
C17   C37   1.491834 S    
C117  H58   1.111264 S    
C11   C45   1.428935 A    
C87   C95   1.412726 A    
C124  H70   1.110888 S    
C5    C51   1.415898 A    
O7    C17   1.300811 A    
C84   H9    1.082054 S    
C66   C94   1.407471 A    
C37   C56   1.404741 A    
C104  H20   1.110671 S    
C12   C27   1.412057 A    
O1    C23   1.300391 A    
C26   C98   1.414972 A    
C119  H62   1.104898 S    
C64   C96   1.411180 A    
C5    C35   1.423788 A    
C20   O20   1.290510 A    
C47   C111  1.519712 S    
H6    C60   1.083134 S    
H3    C57   1.083250 S    
C22   C34   1.495215 S    
O11   Cu2   1.960961 S    
C47   C70   1.412533 A    
C69   C89   1.403744 A    
O12   Cu1   1.960961 S    
C89   C101  1.405985 A    
C95   C100  1.401092 A    
O3    Cu3   1.947383 S    
H4    C58   1.083261 S    
C114  H44   1.110641 S    
C126  H75   1.104641 S    
C115  H53   1.107349 S    
C92   C97   1.404478 A    
C24   O24   1.280624 A    
C49   C115  1.535880 S    
C108  H29   1.111039 S    
O2    C24   1.300375 A    
C96   C99   1.401085 A    
C21   C33   1.495255 S    
C111  H43   1.108552 S    
C51   C119  1.517900 S    
C54   C125  1.534184 S    
C109  H37   1.111502 S    
C86   C92   1.416418 A    
C124  H69   1.104614 S    
C65   C77   1.407013 A    
C25   C97   1.414986 A    
C114  H45   1.111744 S    
C73   C79   1.398427 A    
C14   C42   1.486521 S    
C111  C112  1.529249 S    
C36   C60   1.403482 A    
C89   C93   1.409543 A    
H5    C59   1.083110 S    
C68   C86   1.406738 A    
C79   H8    1.082947 S    
C108  H31   1.100867 S    
C120  H60   1.110942 S    
C9    C39   1.426354 A    
C1    C49   1.430856 A    
Cu3   Cu4   2.658086 S    
C83   H10   1.082032 S    
C2    C32   1.433766 A    
C76   H17   1.083021 S    
C27   C99   1.412860 A    
C121  H68   1.104935 S    
C104  H19   1.102461 S    
C63   C95   1.411146 A    
C85   C97   1.407674 A    
C113  C114  1.529248 S    
C94   C101  1.402532 A    
O6    C20   1.297916 A    
C29   C101  1.410319 A    
C70   C82   1.407242 A    
O3    C21   1.302343 A    
H1    C55   1.083229 S    
O9    Cu4   1.963944 S    
C50   C117  1.535871 S    
C1    C25   1.418870 A    
C30   C102  1.410312 A    
