data_str_m3_o14_o22_f0_pcu.sym.53
_audit_creation_date              2012-12-10T17:47:45-0500
_audit_creation_method            fapswitch 2.2
_symmetry_space_group_name_H-M    P1
_symmetry_Int_Tables_number       1
_space_group_crystal_system       triclinic
_cell_length_a                    10.648796
_cell_length_b                    10.688201
_cell_length_c                    9.916429
_cell_angle_alpha                 89.481956
_cell_angle_beta                  90.318998
_cell_angle_gamma                 91.567419
_cell_volume                      1128.16856113

loop_
_atom_site_label
_atom_site_type_symbol
_atom_type_description
_atom_site_fract_x
_atom_site_fract_y
_atom_site_fract_z
_atom_type_partial_charge
C1    C     C_R   0.503552 0.260982 0.500874 0.857343
C2    C     C_R   0.601432 0.066604 0.575440 0.112906
C3    C     C_R   0.507694 0.129108 0.503238 -0.110145
C4    C     C_R   0.257906 0.497492 0.499567 0.840040
C5    C     C_R   0.412767 0.066523 0.433010 -0.254423
C6    C     C_R   0.406856 0.937979 0.430887 -0.020513
C7    C     C_R   0.502706 0.872539 0.498858 -0.193966
C8    C     C_R   0.335171 0.336374 0.140512 -0.160673
C9    C     C_R   0.254258 0.255416 0.070666 -0.197179
C10   C     C_R   0.254790 0.254865 0.931082 -0.195903
C11   C     C_R   0.336191 0.335328 0.860601 -0.157425
C12   C     C_3   0.879082 0.498272 0.497333 0.144201
C13   C     C_R   0.419133 0.418995 0.927994 0.168561
C14   C     C_R   0.418890 0.419289 0.072542 0.180128
C15   C     C_R   0.577682 0.577182 0.071205 -0.094679
C16   C     C_R   0.498092 0.739559 0.499416 0.892705
C17   C     C_R   0.577594 0.577213 0.928095 -0.115973
C18   C     C_R   0.742219 0.497725 0.499706 0.799764
C19   C     C_3   0.069806 0.390103 0.590844 -0.433513
C20   C     C_3   0.926064 0.393866 0.593683 -0.439835
C21   C     C_3   0.077640 0.623509 0.553005 -0.372051
C22   C     C_3   0.070397 0.476640 0.352931 -0.387500
C23   C     C_3   0.933347 0.628538 0.543781 -0.067291
C24   C     C_3   0.121674 0.496812 0.498693 0.146985
C25   C     C_2   0.294231 0.879211 0.363789 0.859472
C26   C     C_3   0.927500 0.468553 0.353635 -0.392370
C27   C     C_R   0.697079 0.131508 0.648391 -0.220145
C28   C     C_R   0.790123 0.067343 0.716827 -0.192844
C29   C     C_R   0.790307 0.937143 0.713850 0.178036
C30   C     C_R   0.696671 0.871940 0.642155 -0.159509
C31   C     C_R   0.600197 0.935635 0.572310 0.044547
H1    H     H_    0.106500 0.400288 0.695562 0.186556
H2    H     H_    0.329185 0.331309 0.247397 0.193027
H3    H     H_    0.190830 0.192697 0.125392 0.160012
H4    H     H_    0.191736 0.191743 0.876867 0.147787
H5    H     H_    0.331284 0.329230 0.753701 0.202114
H6    H     H_    0.641027 0.640334 0.874105 0.147661
H7    H     H_    0.887450 0.301408 0.561010 0.174198
H8    H     H_    0.894508 0.409947 0.698808 0.183676
H9    H     H_    0.107601 0.634813 0.660100 0.166347
H10   H     H_    0.897120 0.647824 0.646325 0.168828
H11   H     H_    0.101909 0.555550 0.286029 0.206705
H12   H     H_    0.890536 0.533891 0.276002 0.176370
H13   H     H_    0.106471 0.388621 0.310412 0.169348
H14   H     H_    0.895126 0.372646 0.323964 0.182640
H15   H     H_    0.800504 0.728410 0.435635 0.175001
H16   H     H_    0.941480 0.725755 0.360786 0.195862
H17   H     H_    0.883245 0.894093 0.885110 0.178151
H18   H     H_    0.972791 0.899605 0.744881 0.198984
H19   H     H_    0.110248 0.893653 0.317179 0.335402
H20   H     H_    0.123046 0.702121 0.495618 0.191596
H21   H     H_    0.341122 0.119413 0.381136 0.169191
H22   H     H_    0.701599 0.232192 0.653510 0.164302
H23   H     H_    0.862458 0.119043 0.771812 0.135926
H24   H     H_    0.702266 0.771440 0.641748 0.153431
H25   H     H_    0.641199 0.640238 0.124688 0.139556
H26   H     H_    0.099801 0.297867 0.552941 0.172590
N1    N     N_R   0.498810 0.498800 0.142780 -0.115210
N2    N     N_R   0.498760 0.498720 0.857170 -0.123136
N3    N     N_3   0.897115 0.732202 0.454079 -0.451485
N4    N     N_3   0.885631 0.869802 0.783277 -0.488681
O1    O     O_R   0.500000 0.316780 0.614690 -0.642422
O2    O     O_R   0.179430 0.939659 0.368846 -0.831496
O3    O     O_R   0.499990 0.316750 0.385360 -0.634802
O4    O     O_R   0.314800 0.499990 0.614670 -0.645650
O5    O     O_R   0.314790 0.499970 0.385330 -0.615942
O6    O     O_R   0.500010 0.683250 0.614640 -0.623362
O7    O     O_R   0.500000 0.683220 0.385310 -0.563283
O8    O     O_R   0.685210 0.500030 0.614670 -0.640206
O9    O     O_R   0.685200 0.500010 0.385330 -0.629504
O10   O     O_2   0.301121 0.782222 0.300503 -0.616217
Zn1   Zn    Zn3+2 0.500010 0.500020 0.653130 0.925652
Zn2   Zn    Zn3+2 0.499990 0.499980 0.346870 0.961735

loop_
_geom_bond_atom_site_label_1
_geom_bond_atom_site_label_2
_ccdc_geom_bond_type
C18   O9    A    
O8    Zn1   S    
C8    C14   A    
O3    Zn2   S    
C27   H22   S    
C5    H21   S    
C6    C7    A    
C13   N2    A    
C8    C9    A    
O4    Zn1   S    
C20   H7    S    
C30   H24   S    
C25   O10   D    
C19   C20   S    
C23   H10   S    
N2    Zn1   S    
C2    C27   A    
C15   H25   S    
C12   C20   S    
O9    Zn2   S    
C19   C24   S    
O7    Zn2   S    
O1    Zn1   S    
C16   O6    A    
C17   H6    S    
C13   C14   A    
C19   H26   S    
C4    O5    A    
H19   O2    S    
C11   C13   A    
C12   C23   S    
H17   N4    S    
C22   H11   S    
C21   H9    S    
C17   N2    A    
C16   O7    A    
C19   H1    S    
C4    O4    A    
C9    H3    S    
C28   C29   A    
C26   H12   S    
C2    C3    A    
C29   N4    S    
C8    H2    S    
C21   C23   S    
C23   N3    S    
C25   O2    S    
C5    C6    A    
C4    C24   S    
C15   N1    A    
C22   C24   S    
C6    C25   S    
H18   N4    S    
C10   C11   A    
C29   C30   A    
C10   H4    S    
C1    O3    A    
C3    C5    A    
C21   H20   S    
C7    C31   A    
N1    Zn2   S    
C1    O1    A    
O6    Zn1   S    
C9    C10   A    
C21   C24   S    
C12   C18   S    
C27   C28   A    
C15   C17   A    
C20   H8    S    
C28   H23   S    
C30   C31   A    
C7    C16   S    
C22   C26   S    
C26   H14   S    
H15   N3    S    
H16   N3    S    
O5    Zn2   S    
C18   O8    A    
C22   H13   S    
C14   N1    A    
C12   C26   S    
C2    C31   A    
C1    C3    S    
C11   H5    S    
