data_str_m4_o4_o4_f0_acs.sym.51
_audit_creation_date              2012-12-11T15:52:23-0500
_audit_creation_method            fapswitch 2.2
_symmetry_space_group_name_H-M    P1
_symmetry_Int_Tables_number       1
_space_group_crystal_system       triclinic
_cell_length_a                    10.965489
_cell_length_b                    11.007753
_cell_length_c                    18.840193
_cell_angle_alpha                 90.166678
_cell_angle_beta                  89.734675
_cell_angle_gamma                 119.897369
_cell_volume                      1971.45154469

loop_
_atom_site_label
_atom_site_type_symbol
_atom_type_description
_atom_site_fract_x
_atom_site_fract_y
_atom_site_fract_z
_atom_type_partial_charge
C1    C     C_R   0.519145 0.458262 0.147844 0.543458
C2    C     C_3   0.941029 0.702878 0.471410 -0.264577
C3    C     C_3   0.750973 0.051105 0.463180 -0.264939
C4    C     C_3   0.322190 0.232663 0.465425 -0.261703
C5    C     C_R   0.517082 0.457242 0.353169 0.545115
C6    C     C_R   0.541805 0.059164 0.353184 0.540163
C7    C     C_R   0.935708 0.480049 0.354773 0.544484
C8    C     C_R   0.455073 0.521296 0.644694 0.539393
C9    C     C_R   0.061298 0.541743 0.646446 0.543297
C10   C     C_R   0.453079 0.874042 0.638745 0.561787
C11   C     C_R   0.478304 0.925327 0.934996 -0.020242
C12   C     C_R   0.541121 0.059154 0.148367 0.542082
C13   C     C_R   0.033682 0.531392 0.930585 -0.018888
C14   C     C_R   0.467628 0.499208 0.930083 -0.017975
C15   C     C_R   0.009283 0.504106 0.079232 -0.009413
C16   C     C_R   0.495052 0.984010 0.081276 -0.007763
C17   C     C_R   0.495187 0.501434 0.078782 -0.009656
C18   C     C_R   0.402770 0.983336 0.964457 0.020671
C19   C     C_R   0.990788 0.402904 0.962212 0.016084
C20   C     C_R   0.596670 0.580382 0.961596 0.013481
C21   C     C_R   0.974687 0.388741 0.034983 0.028093
C22   C     C_R   0.413347 0.014714 0.035963 0.028069
C23   C     C_R   0.939784 0.480615 0.147950 0.541219
C24   C     C_R   0.611019 0.580003 0.034350 0.026460
C25   C     C_R   0.561676 0.912439 0.053365 -0.069364
C26   C     C_R   0.075133 0.638905 0.048956 -0.072891
C27   C     C_R   0.359853 0.431631 0.048550 -0.072989
C28   C     C_R   0.073112 0.651099 0.974876 -0.066735
C29   C     C_R   0.565969 0.897842 0.979466 -0.075508
C30   C     C_R   0.347434 0.418594 0.974383 -0.063486
C31   C     C_3   0.414394 0.120715 0.945140 -0.259392
C32   C     C_3   0.855880 0.269690 0.949477 -0.272574
C33   C     C_3   0.726288 0.572137 0.948272 -0.276908
C34   C     C_R   0.451713 0.520304 0.854894 0.540298
C35   C     C_3   0.840124 0.252696 0.029079 -0.232736
C36   C     C_3   0.419874 0.151618 0.023578 -0.242894
C37   C     C_3   0.744832 0.576513 0.027809 -0.232053
C38   C     C_R   0.461705 0.902701 0.562874 0.015017
C39   C     C_R   0.996025 0.494706 0.577617 0.017219
C40   C     C_R   0.479045 0.510098 0.570097 0.016681
C41   C     C_R   0.971250 0.491739 0.429358 0.020243
C42   C     C_R   0.497181 0.978012 0.418685 0.017716
C43   C     C_R   0.485876 0.493519 0.422096 0.021725
C44   C     C_R   0.579137 0.920820 0.525331 0.016588
C45   C     C_R   0.068767 0.548223 0.855052 0.537786
C46   C     C_R   0.925956 0.556246 0.545524 0.016079
C47   C     C_R   0.373512 0.396458 0.533899 0.027438
C48   C     C_R   0.918506 0.557749 0.473023 0.041293
C49   C     C_R   0.595728 0.955385 0.454703 0.029480
C50   C     C_R   0.376233 0.387570 0.461799 0.023890
C51   C     C_R   0.369196 0.941016 0.452716 -0.171821
C52   C     C_R   0.018531 0.408117 0.461475 -0.177967
C53   C     C_R   0.577595 0.619834 0.456018 -0.159426
C54   C     C_R   0.031078 0.409568 0.535515 -0.164772
C55   C     C_R   0.351959 0.903888 0.524915 -0.160545
C56   C     C_R   0.458426 0.883441 0.860550 0.554837
C57   C     C_R   0.575774 0.627034 0.530338 -0.163890
C58   C     C_1   0.640535 0.870149 0.098912 0.224101
C59   C     C_1   0.123316 0.762391 0.093582 0.223397
C60   C     C_1   0.235635 0.357099 0.093165 0.224193
C61   C     C_1   0.084595 0.779122 0.946966 0.230966
C62   C     C_1   0.683030 0.888340 0.949763 0.233581
C63   C     C_1   0.218040 0.304201 0.946063 0.239471
C64   C     C_3   0.731983 0.015112 0.541033 -0.268559
C65   C     C_3   0.939647 0.698232 0.551795 -0.274778
C66   C     C_3   0.317927 0.243919 0.545222 -0.278603
Cr1   Cr    Cr6+3 0.769160 0.541570 0.250690 1.049490
Cr2   Cr    Cr6+3 0.458430 0.227590 0.250690 1.046145
Cr3   Cr    Cr6+3 0.772410 0.230840 0.250690 1.047157
Cr4   Cr    Cr6+3 0.541570 0.769160 0.749310 1.031816
Cr5   Cr    Cr6+3 0.227590 0.458430 0.749310 1.033833
Cr6   Cr    Cr6+3 0.230840 0.772410 0.749310 1.033332
H1    H     H_    0.319273 0.109567 0.918800 0.192982
H2    H     H_    0.850886 0.163659 0.049076 0.186334
H3    H     H_    0.323768 0.150264 0.043584 0.183363
H4    H     H_    0.835720 0.675756 0.046961 0.185161
H5    H     H_    0.288795 0.952825 0.425779 0.120265
H6    H     H_    0.049419 0.345738 0.429634 0.130741
H7    H     H_    0.655109 0.708436 0.425832 0.122832
H8    H     H_    0.080053 0.354605 0.558681 0.147100
H9    H     H_    0.258656 0.887218 0.552129 0.129661
H10   H     H_    0.650387 0.722083 0.556743 0.128825
H11   H     H_    0.786854 0.958338 0.557910 0.127381
H12   H     H_    0.871159 0.188168 0.923031 0.195829
H13   H     H_    0.038050 0.780344 0.575653 0.154949
H14   H     H_    0.209256 0.190513 0.567224 0.140054
H15   H     H_    0.851703 0.707870 0.448290 0.148616
H16   H     H_    0.782785 0.162208 0.453085 0.166189
H17   H     H_    0.401959 0.205097 0.447560 0.166422
H18   H     H_    0.751842 0.105659 0.575269 0.162242
H19   H     H_    0.844133 0.691733 0.575792 0.135080
H20   H     H_    0.393637 0.221319 0.573095 0.148722
H21   H     H_    0.045175 0.779354 0.448821 0.133464
H22   H     H_    0.813625 0.011971 0.434667 0.135320
H23   H     H_    0.808039 0.665759 0.920179 0.192526
H24   H     H_    0.216217 0.170206 0.441295 0.133672
H25   H     H_    0.748196 0.258332 0.049740 0.124630
H26   H     H_    0.520871 0.243392 0.040292 0.118139
H27   H     H_    0.736555 0.478908 0.049295 0.123970
H28   H     H_    0.514214 0.191843 0.916917 0.124129
H29   H     H_    0.774386 0.287289 0.924475 0.117309
H30   H     H_    0.703604 0.470699 0.924149 0.115240
N1    N     N_1   0.704018 0.837750 0.135473 -0.269172
N2    N     N_1   0.159309 0.859466 0.129749 -0.269185
N3    N     N_1   0.137818 0.296786 0.129256 -0.270832
N4    N     N_1   0.089613 0.879380 0.924745 -0.268414
N5    N     N_1   0.779089 0.885720 0.925889 -0.266253
N6    N     N_1   0.116499 0.210898 0.923437 -0.269919
O1    O     O_R   0.911480 0.572650 0.170990 -0.508695
O2    O     O_R   0.528970 0.640340 0.824320 -0.496780
O3    O     O_R   0.111370 0.471030 0.824320 -0.485188
O4    O     O_R   0.359660 0.888630 0.824320 -0.481539
O5    O     O_R   0.909980 0.572450 0.331530 -0.513374
O6    O     O_R   0.427550 0.337530 0.331530 -0.519617
O7    O     O_R   0.662470 0.090020 0.331530 -0.516943
O8    O     O_R   0.572450 0.909980 0.668470 -0.514749
O9    O     O_R   0.337530 0.427550 0.668470 -0.514553
O10   O     O_R   0.090020 0.662470 0.668470 -0.532375
O11   O     O_R   0.638950 0.528780 0.324500 -0.503255
O12   O     O_R   0.427350 0.338830 0.170990 -0.507923
O13   O     O_R   0.471220 0.110170 0.324500 -0.509310
O14   O     O_R   0.889830 0.361050 0.324500 -0.506101
O15   O     O_R   0.528780 0.638950 0.675500 -0.522768
O16   O     O_R   0.110170 0.471220 0.675500 -0.508644
O17   O     O_R   0.361050 0.889830 0.675500 -0.501187
O18   O     O_3   0.666667 0.333333 0.250560 -0.270093
O19   O     O_3   0.333333 0.666667 0.749440 -0.299324
O20   O     O_R   0.661170 0.088520 0.170990 -0.511780
O21   O     O_R   0.572650 0.911480 0.829010 -0.498389
O22   O     O_R   0.338830 0.427350 0.829010 -0.504668
O23   O     O_R   0.088520 0.661170 0.829010 -0.511397
O24   O     O_R   0.640340 0.528970 0.175680 -0.484902
O25   O     O_R   0.471030 0.111370 0.175680 -0.483185
O26   O     O_R   0.888630 0.359660 0.175680 -0.485213

loop_
_geom_bond_atom_site_label_1
_geom_bond_atom_site_label_2
_ccdc_geom_bond_type
C44   C49   A    
Cr4   O19   S    
C40   C47   A    
C4    C66   S    
Cr6   O4    S    
C35   H2    S    
Cr3   O26   S    
C5    O6    A    
Cr1   O24   S    
C32   H29   S    
C64   H18   S    
C1    O24   A    
C3    C49   S    
C11   C18   A    
C3    C64   S    
C44   C64   S    
C5    O11   A    
C59   N2    T    
Cr2   O25   S    
C53   H7    S    
C66   H14   S    
C27   C60   S    
C31   C36   S    
C31   H1    S    
C39   C54   A    
C9    C39   S    
C9    O16   A    
Cr4   O2    S    
C4    H24   S    
Cr4   O15   S    
C43   C53   A    
C38   C55   A    
C20   C24   A    
Cr3   O20   S    
C52   C54   A    
Cr5   O3    S    
C13   C28   A    
C55   H9    S    
C10   O17   A    
C26   C59   S    
C47   C66   S    
C56   O21   A    
C42   C51   A    
C28   C61   S    
C2    C65   S    
C15   C23   S    
C5    C43   S    
C30   C63   S    
C27   C30   A    
C9    O10   A    
Cr5   O19   S    
C14   C30   A    
C52   H6    S    
C19   C32   S    
C33   H23   S    
C18   C31   S    
Cr1   O1    S    
C8    O9    A    
C47   C50   A    
C54   H8    S    
C25   C29   A    
C23   O1    A    
C46   C48   A    
C17   C24   A    
Cr5   O9    S    
Cr6   O19   S    
C33   H30   S    
C17   C27   A    
C32   C35   S    
C12   C16   S    
Cr5   O16   S    
C46   C65   S    
Cr1   O18   S    
C13   C19   A    
C15   C26   A    
C66   H20   S    
C62   N5    T    
Cr4   O8    S    
Cr4   O21   S    
C33   C37   S    
C4    C50   S    
C1    O12   A    
C51   H5    S    
C64   H11   S    
C38   C44   A    
C36   H3    S    
C14   C20   A    
C24   C37   S    
C2    H15   S    
C8    O15   A    
C31   H28   S    
C61   N4    T    
C11   C29   A    
C39   C46   A    
C21   C35   S    
C20   C33   S    
C37   H4    S    
Cr3   O18   S    
C45   O23   A    
C12   O25   A    
C34   O2    A    
C25   C58   S    
C7    O14   A    
Cr2   O18   S    
C37   H27   S    
C10   O8    A    
Cr6   O23   S    
C4    H17   S    
C16   C25   A    
C65   H19   S    
C29   C62   S    
Cr3   O7    S    
C16   C22   A    
C40   C57   A    
C41   C52   A    
C23   O26   A    
C19   C21   A    
C3    H16   S    
C18   C22   A    
C26   C28   A    
C2    H21   S    
C32   H12   S    
C53   C57   A    
Cr2   O13   S    
C14   C34   S    
C45   O3    A    
C43   C50   A    
C65   H13   S    
C12   O20   A    
C22   C36   S    
C1    C17   S    
Cr6   O17   S    
C10   C38   S    
C2    C48   S    
C7    O5    A    
Cr1   O5    S    
Cr2   O12   S    
Cr5   O22   S    
C13   C45   S    
Cr3   O14   S    
C41   C48   A    
C3    H22   S    
C51   C55   A    
C7    C41   S    
C6    O7    A    
C60   N3    T    
C42   C49   A    
C15   C21   A    
C34   O22   A    
C6    C42   S    
Cr6   O10   S    
C57   H10   S    
C36   H26   S    
C58   N1    T    
C8    C40   S    
C6    O13   A    
C63   N6    T    
C35   H25   S    
Cr1   O11   S    
C56   O4    A    
C11   C56   S    
Cr2   O6    S    
