data_str_m2_o14_o14_f0_pcu.sym.111
_audit_creation_date              2012-12-10T17:17:49-0500
_audit_creation_method            fapswitch 2.2
_symmetry_space_group_name_H-M    P1
_symmetry_Int_Tables_number       1
_space_group_crystal_system       triclinic
_cell_length_a                    14.977705
_cell_length_b                    15.521301
_cell_length_c                    9.615581
_cell_angle_alpha                 90.22042
_cell_angle_beta                  89.990986
_cell_angle_gamma                 90.0
_cell_volume                      2235.35088883

loop_
_atom_site_label
_atom_site_type_symbol
_atom_type_description
_atom_site_fract_x
_atom_site_fract_y
_atom_site_fract_z
_atom_type_partial_charge
C1    C     C_R   0.379070 0.883603 0.499786 0.767886
C2    C     C_R   0.379066 0.116393 0.500266 0.767878
C3    C     C_R   0.879070 0.383603 0.499786 0.767886
C4    C     C_R   0.879066 0.616393 0.500266 0.767877
C5    C     C_R   0.318311 0.252225 0.583281 -0.195086
C6    C     C_R   0.318342 0.747772 0.416754 -0.195067
C7    C     C_R   0.818312 0.752225 0.583277 -0.195089
C8    C     C_R   0.818343 0.247771 0.416756 -0.195066
C9    C     C_R   0.754660 0.816379 0.582341 -0.206422
C10   C     C_R   0.754687 0.183621 0.417655 -0.206439
C11   C     C_R   0.254660 0.316379 0.582344 -0.206419
C12   C     C_R   0.254685 0.683622 0.417652 -0.206438
C13   C     C_R   0.678800 0.808108 0.499247 -0.093083
C14   C     C_R   0.678799 0.191891 0.500726 -0.093071
C15   C     C_R   0.178800 0.308109 0.499247 -0.093083
C16   C     C_R   0.178798 0.691891 0.500726 -0.093072
C17   C     C_R   0.664265 0.999703 0.143679 -0.132134
C18   C     C_R   0.164265 0.499703 0.143679 -0.132135
C19   C     C_R   0.744536 0.999859 0.071611 -0.208055
C20   C     C_R   0.244536 0.499859 0.071611 -0.208056
C21   C     C_R   0.744556 0.000143 0.928348 -0.208000
C22   C     C_R   0.244556 0.500143 0.928348 -0.208000
C23   C     C_R   0.664304 0.000299 0.856275 -0.132181
C24   C     C_R   0.164304 0.500299 0.856275 -0.132182
C25   C     C_R   0.580723 0.000079 0.925256 0.209796
C26   C     C_R   0.080723 0.500079 0.925256 0.209796
C27   C     C_R   0.580692 0.999922 0.074704 0.209801
C28   C     C_R   0.080692 0.499922 0.074704 0.209801
C29   C     C_R   0.423233 0.000012 0.073844 -0.053062
C30   C     C_R   0.923233 0.500012 0.073844 -0.053062
C31   C     C_R   0.616373 0.120724 0.500263 0.771828
C32   C     C_R   0.616374 0.879275 0.499692 0.771822
C33   C     C_R   0.116373 0.620725 0.500263 0.771828
C34   C     C_R   0.116374 0.379275 0.499692 0.771823
C35   C     C_R   0.423270 0.999988 0.926076 -0.052855
C36   C     C_R   0.923270 0.499988 0.926076 -0.052855
C37   C     C_R   0.211523 0.088249 0.349989 -0.185551
C38   C     C_R   0.211489 0.911734 0.650054 -0.185572
C39   C     C_R   0.711524 0.588249 0.349993 -0.185554
C40   C     C_R   0.711489 0.411734 0.650051 -0.185574
C41   C     C_R   0.132864 0.077173 0.274607 -0.132902
C42   C     C_R   0.132806 0.922806 0.725415 -0.132886
C43   C     C_R   0.632865 0.577175 0.274607 -0.132900
C44   C     C_R   0.632803 0.422808 0.725408 -0.132885
C45   C     C_R   0.569386 0.642508 0.271292 -0.144060
C46   C     C_R   0.569318 0.357478 0.728683 -0.144056
C47   C     C_R   0.069385 0.142506 0.271292 -0.144060
C48   C     C_R   0.069322 0.857476 0.728692 -0.144056
C49   C     C_R   0.583983 0.719107 0.343988 -0.176441
C50   C     C_R   0.583936 0.280884 0.655975 -0.176421
C51   C     C_R   0.083983 0.219107 0.343986 -0.176440
C52   C     C_R   0.083938 0.780883 0.655981 -0.176422
C53   C     C_R   0.663527 0.732213 0.420365 0.103060
C54   C     C_R   0.663505 0.267780 0.579623 0.103056
C55   C     C_R   0.163527 0.232212 0.420362 0.103057
C56   C     C_R   0.163506 0.767780 0.579626 0.103056
C57   C     C_R   0.228558 0.166099 0.422331 0.095371
C58   C     C_R   0.228543 0.833890 0.577696 0.095361
C59   C     C_R   0.728558 0.666099 0.422334 0.095374
C60   C     C_R   0.728542 0.333890 0.577694 0.095360
C61   C     C_R   0.307288 0.178711 0.501082 -0.098639
C62   C     C_R   0.307297 0.821279 0.498966 -0.098636
C63   C     C_R   0.807288 0.678711 0.501082 -0.098639
C64   C     C_R   0.807297 0.321279 0.498966 -0.098635
Cu1   Cu    Cu3+1 0.499990 0.000000 0.640660 0.929061
Cu2   Cu    Cu3+1 0.999990 0.500000 0.640660 0.929061
Cu3   Cu    Cu3+1 0.500010 0.000000 0.359340 0.929101
Cu4   Cu    Cu3+1 0.000010 0.500000 0.359340 0.929101
H1    H     H_    0.377433 0.260967 0.646403 0.141587
H2    H     H_    0.377483 0.739032 0.353646 0.141586
H3    H     H_    0.877434 0.760968 0.646396 0.141588
H4    H     H_    0.877485 0.239030 0.353650 0.141585
H5    H     H_    0.807286 0.000218 0.872277 0.142775
H6    H     H_    0.307286 0.500218 0.872277 0.142774
H7    H     H_    0.672166 0.000566 0.746747 0.193770
H8    H     H_    0.172166 0.500566 0.746747 0.193770
H9    H     H_    0.360280 0.999986 0.871058 0.135742
H10   H     H_    0.860280 0.499986 0.871058 0.135743
H11   H     H_    0.257399 0.034546 0.353303 0.137578
H12   H     H_    0.257370 0.965434 0.646771 0.137568
H13   H     H_    0.757399 0.534546 0.353306 0.137578
H14   H     H_    0.757370 0.465433 0.646770 0.137568
H15   H     H_    0.507969 0.633363 0.213735 0.129035
H16   H     H_    0.507881 0.366623 0.786217 0.129028
H17   H     H_    0.007966 0.133360 0.213739 0.129034
H18   H     H_    0.007885 0.866620 0.786229 0.129030
H19   H     H_    0.531693 0.766817 0.341448 0.150585
H20   H     H_    0.531642 0.233176 0.658483 0.150568
H21   H     H_    0.031693 0.266817 0.341446 0.150584
H22   H     H_    0.031644 0.733175 0.658489 0.150570
H23   H     H_    0.765715 0.873822 0.644442 0.137815
H24   H     H_    0.765757 0.126183 0.355543 0.137811
H25   H     H_    0.265715 0.373821 0.644447 0.137815
H26   H     H_    0.265755 0.626184 0.355538 0.137813
H27   H     H_    0.360220 0.000014 0.128830 0.135690
H28   H     H_    0.860220 0.500014 0.128829 0.135690
H29   H     H_    0.672124 0.999436 0.253194 0.193854
H30   H     H_    0.172124 0.499436 0.253194 0.193854
H31   H     H_    0.807253 0.999785 0.127689 0.142770
H32   H     H_    0.307253 0.499784 0.127689 0.142771
N1    N     N_R   0.501200 0.000000 0.147910 -0.200634
N2    N     N_R   0.001200 0.500000 0.147910 -0.200634
N3    N     N_R   0.501270 0.000000 0.852040 -0.200623
N4    N     N_R   0.001270 0.500000 0.852040 -0.200623
O1    O     O_R   0.409820 0.909830 0.618810 -0.573711
O2    O     O_R   0.409820 0.090170 0.618810 -0.589561
O3    O     O_R   0.909820 0.409830 0.618810 -0.573711
O4    O     O_R   0.909820 0.590170 0.618810 -0.589561
O5    O     O_R   0.409840 0.909830 0.381240 -0.589506
O6    O     O_R   0.409840 0.090170 0.381240 -0.573649
O7    O     O_R   0.909840 0.409830 0.381240 -0.589506
O8    O     O_R   0.909840 0.590170 0.381240 -0.573649
O9    O     O_R   0.590170 0.090170 0.618760 -0.603556
O10   O     O_R   0.590170 0.909830 0.618760 -0.586949
O11   O     O_R   0.090170 0.590170 0.618760 -0.603556
O12   O     O_R   0.090170 0.409830 0.618760 -0.586949
O13   O     O_R   0.590190 0.090180 0.381190 -0.587017
O14   O     O_R   0.590190 0.909820 0.381190 -0.603633
O15   O     O_R   0.090190 0.590180 0.381190 -0.587017
O16   O     O_R   0.090190 0.409820 0.381190 -0.603633
H33   H     H_    0.120687 0.017253 0.219824 0.133839
H34   H     H_    0.120615 0.982722 0.780212 0.133834
H35   H     H_    0.620689 0.517255 0.219822 0.133839
H36   H     H_    0.620612 0.482724 0.780203 0.133834

loop_
_geom_bond_atom_site_label_1
_geom_bond_atom_site_label_2
_ccdc_geom_bond_type
C58   C62   A    
Cu2   Cu4   S    
C40   C60   A    
Cu1   O10   S    
C49   H19   S    
C13   C32   S    
C52   H22   S    
C14   C31   S    
C1    C62   S    
C9    H23   S    
C53   C59   A    
C54   C60   A    
C3    C64   S    
C37   H11   S    
C4    C63   S    
C42   H34   S    
C50   C54   A    
Cu2   O12   S    
C47   H17   S    
C19   C21   A    
Cu4   N2    S    
C5    C11   A    
C35   N3    A    
Cu4   O15   S    
C6    C12   A    
C34   O12   A    
C21   H5    S    
C6    H2    S    
Cu4   O8    S    
C41   H33   S    
C9    C13   A    
C31   O13   A    
C5    H1    S    
C1    O5    A    
C38   C58   A    
C11   C15   A    
Cu3   O5    S    
C12   C16   A    
C3    O7    A    
Cu1   Cu3   S    
C30   H28   S    
Cu2   O3    S    
C15   C34   S    
C51   C55   A    
C2    C61   S    
C50   H20   S    
C26   N4    A    
C11   H25   S    
C4    O8    A    
C10   H24   S    
C12   H26   S    
C45   H15   S    
Cu1   O1    S    
C44   C46   A    
C13   C53   A    
C56   C58   A    
C34   O16   A    
C8    H4    S    
C33   O11   A    
Cu2   O11   S    
C29   N1    A    
C17   C27   A    
C40   H14   S    
C18   C28   A    
C39   H13   S    
C10   C14   A    
C32   O14   A    
C29   H27   S    
C19   H31   S    
C25   N3    A    
C48   H18   S    
C39   C43   A    
C3    O3    A    
C27   N1    A    
Cu4   O7    S    
C15   C55   A    
C16   C56   A    
Cu2   N4    S    
C16   C33   S    
C4    O4    A    
Cu3   O6    S    
C20   H32   S    
C45   C49   A    
C39   C59   A    
C30   N2    A    
C41   C47   A    
C5    C61   A    
C42   C48   A    
Cu3   O13   S    
C7    C63   A    
C8    C64   A    
C46   H16   S    
C8    C10   A    
C14   C54   A    
C20   C22   A    
C33   O15   A    
C21   C23   A    
C22   C24   A    
C59   C63   A    
Cu1   N3    S    
C40   C44   A    
C43   H35   S    
Cu1   O2    S    
C23   H7    S    
Cu3   N1    S    
C7    C9    A    
C46   C50   A    
C2    O6    A    
Cu1   O9    S    
C24   H8    S    
C24   C26   A    
Cu2   O4    S    
C47   C51   A    
C57   C61   A    
C25   C27   A    
C29   C35   A    
C26   C28   A    
C30   C36   A    
C60   C64   A    
C6    C62   A    
C55   C57   A    
C43   C45   A    
C36   H10   S    
Cu4   O16   S    
C7    H3    S    
C36   N4    A    
C38   H12   S    
C49   C53   A    
C17   C19   A    
C2    O2    A    
C18   C20   A    
C23   C25   A    
C37   C41   A    
Cu3   O14   S    
C37   C57   A    
C38   C42   A    
C28   N2    A    
C48   C52   A    
C35   H9    S    
C44   H36   S    
C22   H6    S    
C18   H30   S    
C32   O10   A    
C17   H29   S    
C31   O9    A    
C51   H21   S    
C52   C56   A    
C1    O1    A    
