data_str_m2_o16_o24_f0_pcu.sym.148
_audit_creation_date              2012-12-10T17:36:48-0500
_audit_creation_method            fapswitch 2.2
_symmetry_space_group_name_H-M    P1
_symmetry_Int_Tables_number       1
_space_group_crystal_system       triclinic
_cell_length_a                    10.62419
_cell_length_b                    12.388094
_cell_length_c                    13.226153
_cell_angle_alpha                 116.753802
_cell_angle_beta                  76.546839
_cell_angle_gamma                 101.674248
_cell_volume                      1502.15947488

loop_
_atom_site_label
_atom_site_type_symbol
_atom_type_description
_atom_site_fract_x
_atom_site_fract_y
_atom_site_fract_z
_atom_type_partial_charge
C1    C     C_R   0.511540 0.854783 0.286488 0.815510
C2    C     C_3   0.013297 0.902034 0.514099 -0.137861
C3    C     C_3   0.958265 0.899581 0.414587 -0.178392
C4    C     C_3   0.877371 0.002001 0.502314 0.009590
C5    C     C_R   0.293993 0.284927 0.018451 -0.146938
C6    C     C_R   0.437524 0.227304 0.834842 -0.135509
C7    C     C_R   0.606170 0.810120 0.083820 -0.145783
C8    C     C_R   0.643399 0.727153 0.972068 -0.145116
C9    C     C_R   0.599335 0.604238 0.937777 -0.129547
C10   C     C_R   0.508649 0.562323 0.013152 0.097530
C11   C     C_R   0.463861 0.649331 0.125013 0.076915
C12   C     C_R   0.740233 0.001315 0.501805 0.832169
C13   C     C_R   0.456893 0.437851 0.979647 0.089829
C14   C     C_R   0.353650 0.404807 0.053684 0.104028
C15   C     C_R   0.305272 0.492907 0.159884 -0.211126
C16   C     C_R   0.358435 0.613259 0.194618 -0.189288
C17   C     C_R   0.502230 0.345411 0.873615 -0.167446
C18   C     C_R   0.330098 0.196976 0.907383 -0.016340
C19   C     C_R   0.522927 0.771514 0.163225 -0.131125
C20   C     C_R   0.720373 0.360422 0.340789 -0.178895
C21   C     C_R   0.318950 0.758191 0.641712 0.084589
C22   C     C_R   0.285614 0.669804 0.683617 -0.321205
C23   C     C_R   0.474580 0.144856 0.713419 0.764386
C24   C     C_R   0.360797 0.573394 0.642206 0.006495
C25   C     C_R   0.462158 0.557441 0.545978 0.004977
C26   C     C_R   0.495369 0.655756 0.511044 0.259600
C27   C     C_R   0.533532 0.451714 0.483143 -0.023067
C28   C     C_R   0.644023 0.457107 0.400565 0.035878
C29   C     C_R   0.676855 0.558815 0.375855 -0.236295
C30   C     C_R   0.601479 0.652120 0.425998 -0.165043
C31   C     C_R   0.498200 0.339466 0.494215 0.006590
C32   C     C_R   0.686214 0.254226 0.359976 0.515047
C33   C     C_R   0.259457 0.999921 0.500325 0.751391
C34   C     C_3   0.986190 0.099450 0.489419 -0.088493
C35   C     C_3   0.069237 0.996961 0.401518 -0.128660
C36   C     C_3   0.122094 0.999504 0.500987 0.013543
C37   C     C_3   0.041211 0.101812 0.588829 -0.209240
C38   C     C_3   0.930109 0.004521 0.601861 -0.160415
Cu1   Cu    Cu3+1 0.529830 0.098270 0.475420 1.011856
Cu2   Cu    Cu3+1 0.470170 0.901730 0.524580 0.928681
H1    H     H_    0.128962 0.993839 0.319510 0.154348
H2    H     H_    0.586239 0.363404 0.817287 0.154034
H3    H     H_    0.646198 0.904088 0.108712 0.230724
H4    H     H_    0.634393 0.545473 0.850265 0.162627
H5    H     H_    0.709772 0.757915 0.912199 0.162189
H6    H     H_    0.311407 0.678294 0.274641 0.165321
H7    H     H_    0.760094 0.567056 0.313640 0.166270
H8    H     H_    0.407781 0.322774 0.544527 0.166320
H9    H     H_    0.261819 0.833449 0.677540 0.138728
H10   H     H_    0.972862 0.181540 0.481321 0.184479
H11   H     H_    0.205599 0.681515 0.754282 0.156081
H12   H     H_    0.630930 0.720712 0.395199 0.207176
H13   H     H_    0.078411 0.184471 0.660040 0.136394
H14   H     H_    0.870153 0.007714 0.683811 0.154805
H15   H     H_    0.026936 0.821040 0.524117 0.140679
H16   H     H_    0.921025 0.816890 0.343421 0.129638
H17   H     H_    0.223741 0.469127 0.215639 0.146170
H18   H     H_    0.211942 0.262440 0.074710 0.192585
N1    N     N_R   0.575030 0.246270 0.438190 -0.254103
N2    N     N_R   0.425760 0.754330 0.561190 -0.213875
O1    O     O_R   0.537510 0.972500 0.318130 -0.509368
O2    O     O_R   0.487140 0.806530 0.359650 -0.612898
O3    O     O_R   0.708330 0.082950 0.479220 -0.515116
O4    O     O_R   0.657960 0.916980 0.520740 -0.608051
O5    O     O_R   0.512860 0.193470 0.640350 -0.561398
O6    O     O_R   0.462490 0.027500 0.681870 -0.591135
O7    O     O_R   0.342040 0.083020 0.479260 -0.591605
O8    O     O_R   0.291670 0.917050 0.520780 -0.611651
S1    S     S_3+6 0.795532 0.137556 0.271767 0.002124
O9    O     O_2   0.798589 0.113398 0.149187 -0.282181
O10   O     O_2   0.929041 0.193523 0.301225 -0.372036
O11   O     O_3   0.774809 0.000285 0.272501 -0.538307
H19   H     H_    0.853927 0.961538 0.224307 0.357465
C39   C     C_2   0.838342 0.371531 0.257528 0.484487
H20   H     H_    0.934532 0.390034 0.280517 0.075460
O12   O     O_2   0.827360 0.360243 0.163270 -0.516610
C40   C     C_2   0.339657 0.506542 0.714403 0.316464
H21   H     H_    0.241753 0.486138 0.753922 0.072668
O13   O     O_2   0.431699 0.481569 0.737299 -0.562495
C41   C     C_2   0.244861 0.080498 0.865971 0.386411
H22   H     H_    0.234067 0.033455 0.776427 0.057654
O14   O     O_2   0.182213 0.038024 0.932300 -0.523294

loop_
_geom_bond_atom_site_label_1
_geom_bond_atom_site_label_2
_ccdc_geom_bond_type
Cu2   N2    S    
C34   C37   S    
Cu1   O5    S    
C35   C36   S    
C1    O2    A    
C21   H9    S    
C7    C8    A    
C40   H21   S    
C11   C19   A    
C29   C30   A    
C39   O12   D    
C5    H18   S    
C29   H7    S    
C23   O6    A    
C36   C37   S    
C2    H15   S    
C12   O4    A    
C15   C16   A    
C33   C36   S    
Cu2   O2    S    
C34   C35   S    
C3    H16   S    
C31   N1    A    
S1    O10   D    
C17   H2    S    
C8    H5    S    
C8    C9    A    
C7    H3    S    
C4    C12   S    
C9    C10   A    
C37   H13   S    
Cu2   O6    S    
C13   C14   A    
C15   H17   S    
Cu1   O1    S    
C40   O13   D    
C6    C18   A    
C4    C34   S    
C34   H10   S    
C1    C19   S    
C39   H20   S    
C27   C31   A    
C24   C25   A    
C21   N2    A    
C41   O14   D    
C16   H6    S    
Cu1   Cu2   S    
C12   O3    A    
O11   H19   S    
C5    C18   A    
C20   C28   A    
C25   C26   A    
S1    O11   S    
C37   C38   S    
C11   C16   A    
C2    C38   S    
C38   H14   S    
C3    C35   S    
Cu1   N1    S    
C20   C39   S    
C5    C14   A    
C4    C38   S    
C26   C30   A    
C7    C19   A    
C31   H8    S    
C22   C24   A    
C3    C4    S    
C33   O7    A    
C20   C32   A    
C2    C36   S    
C6    C17   A    
C30   H12   S    
C28   C29   A    
C9    H4    S    
Cu1   O7    S    
C41   H22   S    
C10   C13   A    
C1    O1    A    
C32   S1    S    
C25   C27   A    
Cu1   O3    S    
Cu2   O4    S    
C13   C17   A    
C23   O5    A    
C2    C3    S    
C6    C23   S    
S1    O9    D    
C35   H1    S    
C10   C11   A    
C24   C40   S    
C18   C41   S    
Cu2   O8    S    
C27   C28   A    
C14   C15   A    
C32   N1    A    
C21   C22   A    
C26   N2    A    
C33   O8    A    
C22   H11   S    
