data_str_m2_o14_o16_f0_pcu.sym.172
_audit_creation_date              2012-12-10T17:18:55-0500
_audit_creation_method            fapswitch 2.2
_symmetry_space_group_name_H-M    P1
_symmetry_Int_Tables_number       1
_space_group_crystal_system       triclinic
_cell_length_a                    9.578636
_cell_length_b                    10.856098
_cell_length_c                    13.49792
_cell_angle_alpha                 93.117069
_cell_angle_beta                  74.933035
_cell_angle_gamma                 89.284215
_cell_volume                      1352.82944442

loop_
_atom_site_label
_atom_site_type_symbol
_atom_type_description
_atom_site_fract_x
_atom_site_fract_y
_atom_site_fract_z
_atom_type_partial_charge
C1    C     C_R   0.499466 0.737784 0.495591 0.797111
C2    C     C_R   0.457269 0.575929 0.972762 0.049452
C3    C     C_R   0.500664 0.567810 0.864625 0.039116
C4    C     C_R   0.559042 0.544903 0.028219 -0.080521
C5    C     C_R   0.708262 0.533974 0.976535 0.067288
C6    C     C_R   0.753169 0.550223 0.871086 0.234142
C7    C     C_R   0.650265 0.570891 0.817352 -0.246689
C8    C     C_R   0.514975 0.511437 0.131277 0.390647
C9    C     C_R   0.766033 0.497593 0.136570 -0.297613
C10   C     C_R   0.392270 0.560375 0.809135 -0.155996
C11   C     C_R   0.230173 0.891267 0.495193 -0.181866
C12   C     C_R   0.425869 0.518025 0.698529 0.809093
C13   C     C_R   0.098745 0.956556 0.530895 -0.165778
C14   C     C_R   0.094657 0.073103 0.579277 -0.130479
C15   C     C_R   0.223363 0.129027 0.582788 -0.155684
C16   C     C_R   0.358742 0.068389 0.537502 0.096118
C17   C     C_R   0.360973 0.941693 0.508144 0.098165
C18   C     C_R   0.493814 0.872734 0.493023 -0.115039
C19   C     C_R   0.622673 0.934980 0.487294 -0.217266
C20   C     C_R   0.622378 0.062292 0.495692 -0.226066
C21   C     C_R   0.491824 0.130208 0.518727 -0.113550
C22   C     C_R   0.902774 0.318624 0.378205 -0.172686
C23   C     C_R   0.497103 0.263473 0.508541 0.787959
C24   C     C_R   0.993405 0.220267 0.329782 -0.242062
C25   C     C_R   0.136808 0.218840 0.331505 -0.193590
C26   C     C_R   0.190029 0.317557 0.379182 -0.087675
C27   C     C_R   0.097206 0.409522 0.441505 0.207317
C28   C     C_R   0.947714 0.409636 0.441434 0.206572
C29   C     C_R   0.906052 0.589448 0.551965 -0.083724
C30   C     C_R   0.053680 0.588713 0.552779 -0.085075
C31   C     C_R   0.575843 0.497321 0.300515 0.808411
C32   C     C_R   0.809762 0.507461 0.031263 -0.154787
C33   C     C_R   0.618657 0.501344 0.188044 -0.139330
C34   C     C_R   0.249990 0.597687 0.860665 -0.219106
C35   C     C_R   0.213996 0.637072 0.965060 0.274514
C36   C     C_R   0.315909 0.620683 0.021457 -0.195460
Cu1   Cu    Cu3+1 0.359340 0.500010 0.500010 0.927683
Cu2   Cu    Cu3+1 0.640660 0.499990 0.499990 0.921365
H1    H     H_    0.848252 0.484122 0.177251 0.183042
H2    H     H_    0.226454 0.804712 0.453202 0.174573
H3    H     H_    0.999702 0.915782 0.522170 0.128705
H4    H     H_    0.992171 0.121953 0.611094 0.134705
H5    H     H_    0.215178 0.219208 0.622265 0.156393
H6    H     H_    0.725135 0.107467 0.483592 0.172464
H7    H     H_    0.835245 0.664015 0.593234 0.121186
H8    H     H_    0.800775 0.321428 0.360733 0.200312
H9    H     H_    0.954452 0.149023 0.285218 0.153375
H10   H     H_    0.209691 0.146330 0.288253 0.143883
H11   H     H_    0.304794 0.321289 0.360642 0.194097
H12   H     H_    0.092101 0.660991 0.596507 0.134969
H13   H     H_    0.923778 0.496298 0.993328 0.207143
H14   H     H_    0.168303 0.600161 0.818752 0.183468
H15   H     H_    0.285207 0.647255 0.102766 0.178350
H16   H     H_    0.691872 0.595576 0.739798 0.177599
H17   H     H_    0.725269 0.885255 0.474060 0.161650
N1    N     N_R   0.852480 0.498790 0.499000 -0.196300
N2    N     N_R   0.148360 0.498710 0.498970 -0.200764
O1    O     O_R   0.381190 0.680360 0.500010 -0.598447
O2    O     O_R   0.618760 0.680340 0.500000 -0.586816
O3    O     O_R   0.323240 0.499990 0.650990 -0.595006
O4    O     O_R   0.560820 0.499960 0.650980 -0.583469
O5    O     O_R   0.381240 0.319660 0.500000 -0.614410
O6    O     O_R   0.618810 0.319640 0.499990 -0.597646
O7    O     O_R   0.439180 0.500040 0.349020 -0.551013
O8    O     O_R   0.676760 0.500010 0.349010 -0.606644
N3    N     N_2   0.901875 0.540785 0.817141 -0.444183
H18   H     H_    0.932509 0.607716 0.765120 0.234825
C37   C     C_3   0.948569 0.418037 0.772590 -0.703730
H19   H     H_    0.066608 0.415920 0.736534 0.244896
H20   H     H_    0.892146 0.391329 0.712661 0.235409
H21   H     H_    0.926202 0.349905 0.832903 0.226915
O9    O     O_3   0.374530 0.475596 0.172726 -0.586289
C38   C     C_3   0.353858 0.358334 0.127246 0.085848
H22   H     H_    0.373844 0.285750 0.176915 0.129626
H23   H     H_    0.427776 0.335582 0.049431 0.128323
C39   C     C_3   0.199432 0.351126 0.116559 -0.792826
H24   H     H_    0.189360 0.397290 0.047415 0.233057
H25   H     H_    0.170681 0.253116 0.107766 0.200848
H26   H     H_    0.122053 0.396666 0.184938 0.268168
N4    N     N_2   0.073040 0.685987 0.015248 -0.436260
H27   H     H_    0.050176 0.694862 0.094378 0.248807
C40   C     C_3   0.026155 0.792847 0.971536 -0.680242
H28   H     H_    0.914849 0.821590 0.016064 0.226309
H29   H     H_    0.023612 0.771289 0.890751 0.230680
H30   H     H_    0.099480 0.870591 0.974908 0.219513

loop_
_geom_bond_atom_site_label_1
_geom_bond_atom_site_label_2
_ccdc_geom_bond_type
N3    C37   S    
C16   C21   A    
C38   H22   S    
C19   C20   A    
C39   H26   S    
C4    C8    A    
C13   H3    S    
Cu1   O5    S    
C28   N1    A    
C26   C27   A    
Cu1   Cu2   S    
C39   H25   S    
C18   C19   A    
C3    C7    A    
C1    O2    A    
C5    C6    A    
C2    C36   A    
C15   C16   A    
C30   N2    A    
C35   N4    S    
C9    H1    S    
C34   C35   A    
C36   H15   S    
C9    C32   A    
C23   O5    A    
C35   C36   A    
C37   H19   S    
C31   C33   S    
Cu1   O1    S    
C14   H4    S    
C5    C32   A    
C23   O6    A    
N3    H18   S    
C30   H12   S    
C22   C28   A    
C13   C14   A    
C9    C33   A    
C38   H23   S    
C20   H6    S    
C8    O9    S    
C39   H24   S    
O9    C38   S    
N4    C40   S    
C27   N2    A    
C26   H11   S    
N4    H27   S    
C25   C26   A    
C29   H7    S    
C2    C4    A    
C32   H13   S    
C29   C30   A    
Cu2   O8    S    
C17   C18   A    
C1    C18   S    
C10   C34   A    
C24   C25   A    
C25   H10   S    
C10   C12   S    
C22   H8    S    
C40   H29   S    
C21   C23   S    
C38   C39   S    
C22   C24   A    
Cu1   O7    S    
Cu2   O6    S    
C19   H17   S    
C31   O8    A    
C11   C17   A    
C24   H9    S    
C31   O7    A    
C4    C5    A    
C6    C7    A    
C29   N1    A    
C40   H30   S    
C34   H14   S    
Cu2   O4    S    
C2    C3    A    
C15   H5    S    
C3    C10   A    
C1    O1    A    
C12   O4    A    
C11   C13   A    
C16   C17   A    
C37   H21   S    
C8    C33   A    
C11   H2    S    
Cu1   O3    S    
Cu2   O2    S    
C12   O3    A    
C6    N3    S    
Cu2   N1    S    
C20   C21   A    
C37   H20   S    
C40   H28   S    
C27   C28   A    
C14   C15   A    
C7    H16   S    
Cu1   N2    S    
