data_str_m12_o9_o12_f0_bcu.sym.131
_audit_creation_date              2012-12-11T17:41:21-0500
_audit_creation_method            fapswitch 2.2
_symmetry_space_group_name_H-M    P1
_symmetry_Int_Tables_number       1
_space_group_crystal_system       triclinic
_cell_length_a                    15.500275
_cell_length_b                    14.803007
_cell_length_c                    15.050722
_cell_angle_alpha                 109.649911
_cell_angle_beta                  121.399494
_cell_angle_gamma                 59.245191
_cell_volume                      2521.60594357

loop_
_atom_site_label
_atom_site_type_symbol
_atom_type_description
_atom_site_fract_x
_atom_site_fract_y
_atom_site_fract_z
_atom_type_partial_charge
C1    C     C_R   0.803217 0.936819 0.772699 -0.148406
C2    C     C_R   0.243601 0.007308 0.208986 -0.121557
C3    C     C_R   0.135787 0.272837 0.479027 0.156560
C4    C     C_R   0.786634 0.699466 0.432943 0.148260
C5    C     C_R   0.503331 0.325778 0.555385 0.062591
C6    C     C_R   0.498336 0.699565 0.568614 0.061608
C7    C     C_R   0.503775 0.031941 0.827118 0.053354
C8    C     C_R   0.504323 0.071910 0.206678 0.065016
C9    C     C_R   0.750183 0.700918 0.932699 0.578608
C10   C     C_R   0.272124 0.404166 0.191724 0.589812
C11   C     C_R   0.666317 0.800525 0.940714 -0.179310
C12   C     C_R   0.357532 0.317841 0.168458 -0.195677
C13   C     C_R   0.692010 0.887780 0.994947 0.023306
C14   C     C_R   0.333405 0.255850 0.071886 0.031574
C15   C     C_R   0.802815 0.874574 0.041666 -0.189152
C16   C     C_R   0.221851 0.282727 0.997802 -0.170636
C17   C     C_R   0.886284 0.776062 0.031513 -0.154963
C18   C     C_R   0.136268 0.369174 0.020348 -0.145371
C19   C     C_R   0.860494 0.689392 0.977477 -0.291926
C20   C     C_R   0.160869 0.429631 0.116773 -0.295919
C21   C     C_R   0.607236 0.014015 0.107870 -0.232085
C22   C     C_R   0.425555 0.144576 0.952675 -0.248351
C23   C     C_R   0.197846 0.273704 0.438768 -0.143403
C24   C     C_R   0.755664 0.708871 0.508517 -0.116784
C25   C     C_R   0.513759 0.090335 0.124190 0.043427
C26   C     C_R   0.511656 0.056330 0.931533 0.058346
C27   C     C_R   0.424980 0.162520 0.049650 0.065690
C28   C     C_R   0.604562 0.990982 0.010983 0.055095
C29   C     C_2   0.020343 0.344830 0.459359 -0.223856
C30   C     C_2   0.846934 0.601328 0.384163 -0.209790
C31   C     C_2   0.958527 0.414544 0.388493 -0.107878
C32   C     C_2   0.863427 0.508317 0.398079 -0.104260
C33   C     C_2   0.985231 0.950092 0.842426 -0.220641
C34   C     C_2   0.150916 0.881257 0.101289 -0.211583
C35   C     C_R   0.206744 0.891482 0.652960 -0.123897
C36   C     C_R   0.913731 0.268218 0.798477 -0.140033
C37   C     C_R   0.303575 0.800544 0.657930 -0.140159
C38   C     C_R   0.813045 0.336319 0.728443 -0.193594
C39   C     C_R   0.297781 0.714068 0.581876 0.105022
C40   C     C_R   0.712295 0.364518 0.730219 0.129313
C41   C     C_R   0.193189 0.719889 0.501751 -0.163473
C42   C     C_R   0.714431 0.322014 0.802425 -0.118903
C43   C     C_R   0.096547 0.810921 0.497373 -0.108558
C44   C     C_R   0.815418 0.254100 0.872421 -0.094224
C45   C     C_R   0.594377 0.230986 0.557040 -0.144236
C46   C     C_R   0.407103 0.781858 0.510482 -0.128728
C47   C     C_R   0.103318 0.896625 0.572837 -0.089966
C48   C     C_R   0.915032 0.228070 0.871103 -0.100592
C49   C     C_R   0.404215 0.519684 0.583146 -0.180781
C50   C     C_R   0.601508 0.535697 0.654319 -0.142404
C51   C     C_R   0.505200 0.429283 0.606495 0.041324
C52   C     C_R   0.499334 0.619703 0.607477 0.059871
C53   C     C_R   0.605426 0.442236 0.661119 0.015226
C54   C     C_R   0.400971 0.617385 0.588790 0.036219
C55   C     C_2   0.042257 0.882871 0.915040 -0.106969
C56   C     C_2   0.136867 0.893674 0.009888 -0.106859
C57   C     C_R   0.408591 0.044720 0.733071 -0.138151
C58   C     C_R   0.594027 0.018387 0.290487 -0.137280
C59   C     C_R   0.409256 0.306246 0.485169 -0.061324
C60   C     C_R   0.590896 0.710249 0.588854 -0.131008
C61   C     C_R   0.594286 0.977652 0.804984 -0.123053
C62   C     C_R   0.410116 0.088431 0.210667 -0.134066
C63   C     C_R   0.198462 0.183548 0.531490 -0.154064
C64   C     C_R   0.756305 0.800454 0.416617 -0.146087
C65   C     C_R   0.804798 0.028357 0.683590 -0.136512
C66   C     C_R   0.242285 0.914901 0.299404 -0.142863
C67   C     C_R   0.867881 0.974109 0.771422 0.155882
C68   C     C_R   0.211826 0.930886 0.199293 0.145832
H1    H     H_    0.830430 0.878912 0.820781 0.097219
H2    H     H_    0.230906 0.040968 0.147466 0.088764
H3    H     H_    0.106273 0.844969 0.103349 0.125318
H4    H     H_    0.020994 0.997217 0.843054 0.130210
H5    H     H_    0.926498 0.613286 0.971595 0.119937
H6    H     H_    0.093399 0.496049 0.132960 0.118641
H7    H     H_    0.581481 0.809519 0.906728 0.132576
H8    H     H_    0.443044 0.298772 0.226229 0.141117
H9    H     H_    0.824112 0.940802 0.085229 0.128656
H10   H     H_    0.200850 0.235806 0.923312 0.109856
H11   H     H_    0.971341 0.766540 0.066664 0.128633
H12   H     H_    0.050550 0.389127 0.963148 0.134095
H13   H     H_    0.676765 0.959076 0.165120 0.130708
H14   H     H_    0.358049 0.197623 0.892902 0.131314
H15   H     H_    0.822051 0.503815 0.435512 0.127308
H16   H     H_    0.988356 0.413215 0.336717 0.127965
H17   H     H_    0.889695 0.604889 0.347498 0.129865
H18   H     H_    0.989647 0.347704 0.511266 0.128014
H19   H     H_    0.028399 0.966972 0.569294 0.095352
H20   H     H_    0.993263 0.176736 0.926350 0.101168
H21   H     H_    0.169310 0.323996 0.382396 0.088279
H22   H     H_    0.768139 0.646470 0.541611 0.088571
H23   H     H_    0.211901 0.957875 0.711417 0.102666
H24   H     H_    0.990902 0.247160 0.796927 0.104079
H25   H     H_    0.383074 0.797550 0.720880 0.121905
H26   H     H_    0.813806 0.366733 0.672842 0.106721
H27   H     H_    0.186453 0.654579 0.442195 0.107817
H28   H     H_    0.638127 0.342811 0.805626 0.114819
H29   H     H_    0.016337 0.815041 0.435383 0.102941
H30   H     H_    0.816540 0.222235 0.928239 0.115467
H31   H     H_    0.327733 0.514003 0.558105 0.115031
H32   H     H_    0.678891 0.541344 0.684360 0.126682
H33   H     H_    0.681125 0.214957 0.597944 0.118881
H34   H     H_    0.320627 0.805548 0.487513 0.114575
H35   H     H_    0.323059 0.082411 0.721523 0.093548
H36   H     H_    0.679558 0.005291 0.320642 0.086676
H37   H     H_    0.323465 0.362233 0.461969 0.097420
H38   H     H_    0.675840 0.669571 0.643379 0.091232
H39   H     H_    0.680253 0.959118 0.857941 0.118929
H40   H     H_    0.324599 0.135522 0.161997 0.106510
H41   H     H_    0.168858 0.151198 0.559111 0.092790
H42   H     H_    0.768431 0.821745 0.363233 0.098679
H43   H     H_    0.836029 0.053981 0.651342 0.096460
H44   H     H_    0.228789 0.861302 0.319728 0.104141
H45   H     H_    0.180590 0.930281 0.006902 0.127433
H46   H     H_    0.008079 0.834760 0.915161 0.129407
N1    N     N_R   0.705410 0.966550 0.689210 -0.044683
N2    N     N_R   0.294590 0.033450 0.310790 -0.044962
N3    N     N_R   0.294590 0.188320 0.465660 -0.046625
N4    N     N_R   0.705410 0.811680 0.534340 -0.044654
N5    N     N_R   0.556610 0.157790 0.497330 -0.044532
N6    N     N_R   0.443390 0.842210 0.502670 -0.041026
N7    N     N_R   0.443390 0.997080 0.657540 -0.037890
N8    N     N_R   0.556610 0.002920 0.342460 -0.037069
N9    N     N_R   0.443390 0.203250 0.451380 -0.046268
N10   N     N_R   0.556610 0.796750 0.548620 -0.040117
N11   N     N_R   0.556610 0.951620 0.703500 -0.042063
N12   N     N_R   0.443390 0.048380 0.296500 -0.040013
N13   N     N_R   0.294590 0.131500 0.522480 -0.039653
N14   N     N_R   0.705410 0.868500 0.477520 -0.042757
N15   N     N_R   0.705410 0.023370 0.632390 -0.043989
N16   N     N_R   0.294590 0.976630 0.367610 -0.042764
Ni1   Ni    Ni4+2 0.629830 0.882720 0.617850 0.213621
Ni2   Ni    Ni4+2 0.370170 0.117280 0.382150 0.215782
Ni3   Ni    Ni4+2 0.629830 0.013030 0.487540 0.207630
Ni4   Ni    Ni4+2 0.370170 0.986970 0.512460 0.215665
O1    O     O_3   0.722372 0.616365 0.883041 -0.780050
H47   H     H_    0.790785 0.551789 0.885800 0.306534
O2    O     O_3   0.299965 0.461648 0.287914 -0.776565
H48   H     H_    0.230701 0.519084 0.292390 0.295467

loop_
_geom_bond_atom_site_label_1
_geom_bond_atom_site_label_2
_ccdc_geom_bond_type
C33   C55   D    
C66   C68   A    
C55   C56   S    
C34   C56   D    
N9    Ni2   S    
C3    C23   A    
N13   Ni4   S    
C35   C47   A    
C49   C51   A    
O1    H47   S    
C39   C41   A    
N1    Ni1   S    
C46   H34   S    
N5    Ni3   S    
C7    C26   S    
N4    N14   A    
C42   H28   S    
C22   H14   S    
C35   C37   A    
C2    C68   A    
C4    C24   A    
C39   C54   S    
C62   H40   S    
C49   C54   A    
C17   H11   S    
C60   N10   A    
C3    C29   S    
N3    Ni2   S    
C65   H43   S    
N4    Ni1   S    
C33   H4    S    
C8    C58   A    
C2    N2    A    
C9    C19   A    
C7    C61   A    
C10   C20   A    
C64   N14   A    
C50   C52   A    
C56   H45   S    
C48   H20   S    
C13   C28   S    
C10   O2    S    
C14   C27   S    
C18   C20   A    
C36   H24   S    
C40   C42   A    
C15   H9    S    
C38   C40   A    
C8    C25   S    
C41   C43   A    
N16   Ni4   S    
C42   C44   A    
C10   C12   A    
C52   C54   A    
C59   N9    A    
C57   H35   S    
C58   N8    A    
C50   C53   A    
C5    C59   A    
C46   N6    A    
C6    C60   A    
C19   H5    S    
C34   C68   S    
C62   N12   A    
C17   C19   A    
C65   C67   A    
C5    C45   A    
C1    H1    S    
C31   H16   S    
N10   Ni1   S    
C51   C53   A    
C47   H19   S    
N8    N12   A    
N8    Ni3   S    
N7    N11   A    
C49   H31   S    
C9    C11   A    
N11   Ni1   S    
C64   H42   S    
C31   C32   S    
N2    Ni2   S    
N12   Ni2   S    
C38   H26   S    
C23   H21   S    
C37   H25   S    
C59   H37   S    
C30   H17   S    
N3    N13   A    
C29   H18   S    
C45   H33   S    
N15   Ni3   S    
C9    O1    S    
C18   H12   S    
C21   C28   A    
C12   C14   A    
C44   H30   S    
C3    C63   A    
C22   C27   A    
C12   H8    S    
N7    Ni4   S    
C14   C16   A    
C58   H36   S    
C60   H38   S    
C33   C67   S    
N1    N15   A    
C15   C17   A    
C32   H15   S    
C21   C25   A    
C6    C46   A    
C26   C28   A    
C43   H29   S    
C21   H13   S    
N6    Ni4   S    
C24   H22   S    
C23   N3    A    
C65   N15   A    
C20   H6    S    
C55   H46   S    
N5    N9    A    
C25   C27   A    
O2    H48   S    
C4    C64   A    
C24   N4    A    
C6    C52   S    
C13   C15   A    
C29   C31   D    
C11   H7    S    
N14   Ni3   S    
C30   C32   D    
C11   C13   A    
C45   N5    A    
C41   H27   S    
C36   C38   A    
C1    C67   A    
C36   C48   A    
C16   H10   S    
C61   H39   S    
C4    C30   S    
C50   H32   S    
C57   N7    A    
C44   C48   A    
C37   C39   A    
N2    N16   A    
C16   C18   A    
C40   C53   S    
C22   C26   A    
C5    C51   S    
C61   N11   A    
C1    N1    A    
C66   H44   S    
C2    H2    S    
C43   C47   A    
C34   H3    S    
C7    C57   A    
C63   N13   A    
N6    N10   A    
C8    C62   A    
C63   H41   S    
C66   N16   A    
C35   H23   S    
