data_str_m4_o1_o22_f0_acs.sym.82
_audit_creation_date              2012-12-11T14:50:52-0500
_audit_creation_method            fapswitch 2.2
_symmetry_space_group_name_H-M    P1
_symmetry_Int_Tables_number       1
_space_group_crystal_system       triclinic
_cell_length_a                    10.90057
_cell_length_b                    10.919742
_cell_length_c                    18.859295
_cell_angle_alpha                 90.018909
_cell_angle_beta                  90.033935
_cell_angle_gamma                 60.245137
_cell_volume                      1948.8799229

loop_
_atom_site_label
_atom_site_type_symbol
_atom_type_description
_atom_site_fract_x
_atom_site_fract_y
_atom_site_fract_z
_atom_type_partial_charge
C1    C     C_R   0.238661 0.645362 0.610196 0.580569
C2    C     C_R   0.552323 0.217021 0.794348 -0.118267
C3    C     C_R   0.538864 0.225996 0.722030 -0.142209
C4    C     C_R   0.652513 0.619938 0.602059 0.565673
C5    C     C_R   0.655516 0.193085 0.678764 0.022111
C6    C     C_R   0.204065 0.548503 0.723365 -0.130166
C7    C     C_R   0.189342 0.557255 0.796848 -0.144989
C8    C     C_R   0.168875 0.678915 0.832264 0.059403
C9    C     C_R   0.167789 0.789077 0.793584 -0.137462
C10   C     C_R   0.177234 0.782346 0.720720 -0.158513
C11   C     C_R   0.196965 0.661554 0.684726 0.050415
C12   C     C_3   0.698146 0.532101 0.800059 -0.118320
C13   C     C_R   0.727404 0.524964 0.273405 -0.105193
C14   C     C_R   0.728500 0.534518 0.200474 -0.005964
C15   C     C_R   0.651671 0.668009 0.167693 -0.021677
C16   C     C_R   0.626401 0.231735 0.604180 0.539462
C17   C     C_R   0.564909 0.787193 0.209496 -0.145203
C18   C     C_R   0.562895 0.775401 0.283148 -0.153718
C19   C     C_R   0.647783 0.644478 0.315397 -0.011004
C20   C     C_R   0.510836 0.246202 0.278019 -0.101085
C21   C     C_R   0.522421 0.234651 0.205060 -0.022973
C22   C     C_R   0.658597 0.167118 0.174910 -0.060039
C23   C     C_3   0.697402 0.672730 0.813181 0.034682
C24   C     C_R   0.781030 0.127706 0.218838 -0.019083
C25   C     C_R   0.764066 0.141664 0.291431 -0.115659
C26   C     C_R   0.631593 0.197393 0.320633 -0.025063
C27   C     C_R   0.268451 0.693898 0.280166 -0.083365
C28   C     C_R   0.225469 0.647809 0.400127 0.548461
C29   C     C_R   0.246471 0.697450 0.208276 -0.100208
C30   C     C_R   0.145904 0.665699 0.182746 0.047294
C31   C     C_R   0.075002 0.619646 0.228382 -0.063298
C32   C     C_R   0.099245 0.613657 0.300701 -0.124229
C33   C     C_R   0.191408 0.656953 0.326431 0.034432
C34   C     C_3   0.669625 0.644405 0.677612 0.018983
C35   C     C_R   0.701484 0.103636 0.896559 0.549229
C36   C     C_R   0.722619 0.687884 0.888603 0.552635
C37   C     C_R   0.115881 0.708157 0.904850 0.555518
C38   C     C_R   0.676509 0.107944 0.103945 0.517391
C39   C     C_R   0.694233 0.689038 0.097029 0.532526
C40   C     C_R   0.640397 0.620889 0.390963 0.546427
C41   C     C_R   0.093196 0.708184 0.112387 0.545109
C42   C     C_R   0.613603 0.233820 0.394044 0.542868
C43   C     C_3   0.556887 0.799294 0.785470 -0.243562
C44   C     C_3   0.538960 0.780549 0.706090 -0.259016
C45   C     C_3   0.803158 0.658450 0.690193 -0.103855
C46   C     C_3   0.821227 0.670605 0.770644 -0.248786
C47   C     C_2   0.935783 0.537980 0.658813 0.225054
C48   C     C_2   0.821287 0.404373 0.160762 0.228725
C49   C     C_2   0.391570 0.296111 0.161491 0.243725
C50   C     C_2   0.928626 0.073567 0.193095 0.315792
C51   C     C_1   0.588805 0.522468 0.842040 0.182556
C52   C     C_3   0.679243 0.517082 0.720218 -0.224150
C53   C     C_R   0.788144 0.148903 0.709746 -0.155607
C54   C     C_R   0.803714 0.131197 0.783316 -0.150011
C55   C     C_R   0.685631 0.162070 0.825606 0.041682
Cr1   Cr    Cr6+3 0.392930 0.397900 0.502230 1.055238
Cr2   Cr    Cr6+3 0.398240 0.708600 0.501260 1.026345
Cr3   Cr    Cr6+3 0.708800 0.393470 0.496460 1.040901
Cr4   Cr    Cr6+3 0.937620 0.938540 0.007640 1.016299
Cr5   Cr    Cr6+3 0.625150 0.937450 0.994520 1.029371
Cr6   Cr    Cr6+3 0.937990 0.625080 0.001190 1.046179
H1    H     H_    0.557776 0.899993 0.793128 0.144063
H2    H     H_    0.152160 0.884657 0.819068 0.127043
H3    H     H_    0.465046 0.807991 0.815504 0.138696
H4    H     H_    0.173096 0.871085 0.692881 0.126316
H5    H     H_    0.787927 0.421305 0.297213 0.176928
H6    H     H_    0.506031 0.891026 0.185889 0.172688
H7    H     H_    0.496988 0.868004 0.314758 0.151531
H8    H     H_    0.406269 0.300018 0.301505 0.188238
H9    H     H_    0.854120 0.113063 0.325877 0.179935
H10   H     H_    0.344932 0.721153 0.299897 0.146799
H11   H     H_    0.441217 0.773983 0.698616 0.150804
H12   H     H_    0.770341 0.416361 0.701575 0.123278
H13   H     H_    0.301366 0.732747 0.173138 0.133388
H14   H     H_    0.995705 0.595962 0.208588 0.174432
H15   H     H_    0.043692 0.580079 0.336346 0.137288
H16   H     H_    0.525197 0.874550 0.676284 0.124895
H17   H     H_    0.825649 0.768759 0.781258 0.122020
H18   H     H_    0.785358 0.757790 0.664328 0.146300
H19   H     H_    0.802038 0.442334 0.816736 0.113927
H20   H     H_    0.582831 0.508842 0.709750 0.132894
H21   H     H_    0.982982 0.433453 0.682142 0.093125
H22   H     H_    0.784497 0.380101 0.112094 0.093364
H23   H     H_    0.923317 0.581301 0.789439 0.126249
H24   H     H_    0.393266 0.326396 0.106862 0.119424
H25   H     H_    0.950526 0.101116 0.141397 0.173897
H26   H     H_    0.878799 0.126726 0.677294 0.121477
H27   H     H_    0.907839 0.087841 0.806541 0.121668
H28   H     H_    0.459010 0.243040 0.825543 0.134892
H29   H     H_    0.435147 0.261125 0.700187 0.129539
H30   H     H_    0.220078 0.454081 0.696779 0.134185
H31   H     H_    0.188858 0.471562 0.825506 0.114714
N1    N     N_1   0.503512 0.514940 0.875191 -0.319588
O1    O     O_R   0.507430 0.255570 0.581420 -0.525195
O2    O     O_R   0.837200 0.593290 0.915250 -0.532220
O3    O     O_R   0.065330 0.635370 0.931590 -0.511978
O4    O     O_R   0.280190 0.527390 0.578910 -0.473467
O5    O     O_R   0.068300 0.828790 0.091860 -0.512437
O6    O     O_R   0.798730 0.057480 0.079370 -0.536907
O7    O     O_R   0.584680 0.080480 0.076790 -0.508029
O8    O     O_R   0.626790 0.809640 0.067050 -0.497458
O9    O     O_R   0.816010 0.596460 0.076500 -0.500388
O10   O     O_R   0.045680 0.638310 0.081070 -0.491593
O11   O     O_3   0.833590 0.833690 0.001120 -0.255102
O12   O     O_R   0.524460 0.695920 0.424060 -0.504797
O13   O     O_R   0.260310 0.739740 0.584580 -0.537491
O14   O     O_R   0.532250 0.695150 0.573830 -0.515154
O15   O     O_R   0.744930 0.503430 0.576380 -0.494055
O16   O     O_R   0.699250 0.276390 0.571950 -0.508751
O17   O     O_R   0.499020 0.256400 0.419850 -0.518613
O18   O     O_R   0.272400 0.528160 0.429140 -0.496993
O19   O     O_R   0.251910 0.740570 0.423020 -0.508542
O20   O     O_2   0.989774 0.556813 0.606309 -0.500246
O21   O     O_2   0.943012 0.328253 0.180195 -0.478755
O22   O     O_2   0.280616 0.313021 0.186089 -0.478272
O23   O     O_R   0.736530 0.504260 0.414810 -0.510687
O24   O     O_2   0.029707 0.002499 0.231480 -0.503641
O25   O     O_R   0.691460 0.277160 0.422180 -0.508727
O26   O     O_3   0.499990 0.499990 0.499980 -0.272178
O27   O     O_R   0.089490 0.825610 0.930610 -0.527811
O28   O     O_R   0.818370 0.054540 0.929880 -0.508946
O29   O     O_R   0.605870 0.077310 0.915530 -0.530250
O30   O     O_R   0.646440 0.806700 0.917570 -0.508109

loop_
_geom_bond_atom_site_label_1
_geom_bond_atom_site_label_2
_ccdc_geom_bond_type
Cr4   O28   S    
Cr2   O12   S    
Cr4   O27   S    
C27   C29   A    
C50   O24   D    
Cr4   O6    S    
C1    C11   S    
C21   C49   S    
Cr6   O3    S    
C7    C8    A    
C53   C54   A    
C27   C33   A    
Cr1   O1    S    
C4    O15   A    
C12   C23   S    
C3    H29   S    
Cr4   O11   S    
C5    C53   A    
C44   H16   S    
Cr6   O10   S    
C2    C55   A    
C30   C31   A    
Cr2   O19   S    
C18   H7    S    
C6    H30   S    
Cr3   O16   S    
Cr3   O25   S    
C23   C43   S    
C15   C17   A    
C18   C19   A    
C47   H21   S    
C2    H28   S    
C21   C22   A    
C8    C9    A    
C5    C16   S    
C43   H3    S    
C30   C41   S    
C44   H11   S    
C9    C10   A    
Cr1   O18   S    
C1    O13   A    
Cr2   O26   S    
Cr2   O13   S    
C23   C46   S    
C13   C14   A    
Cr3   O23   S    
Cr1   O4    S    
Cr1   O17   S    
C12   C52   S    
C16   O16   A    
C39   O8    A    
C13   H5    S    
C45   C47   S    
C28   O18   A    
C24   C50   S    
C4    O14   A    
C4    C34   S    
C17   H6    S    
C13   C19   A    
C35   C55   S    
C49   H24   S    
C35   O28   A    
C36   O30   A    
C34   C44   S    
C24   C25   A    
C38   O7    A    
C52   H12   S    
C10   C11   A    
C1    O4    A    
C6    C11   A    
C46   H17   S    
C42   O25   A    
C14   C48   S    
C29   H13   S    
C3    C5    A    
C25   C26   A    
C45   C46   S    
C28   O19   A    
C41   O10   A    
C37   O3    A    
Cr5   O30   S    
C43   C44   S    
C45   H18   S    
C29   C30   A    
C31   H14   S    
C31   C32   A    
C14   C15   A    
Cr6   O11   S    
C17   C18   A    
C53   H26   S    
C34   C45   S    
Cr5   O29   S    
C15   C39   S    
C51   N1    T    
C46   H23   S    
Cr2   O14   S    
C28   C33   S    
Cr1   O26   S    
C22   C24   A    
C20   H8    S    
C8    C37   S    
Cr5   O8    S    
C12   C51   S    
C27   H10   S    
C26   C42   S    
C39   O9    A    
C48   O21   D    
C10   H4    S    
C47   O20   D    
C54   C55   A    
C49   O22   D    
C9    H2    S    
C34   C52   S    
C35   O29   A    
C38   O6    A    
Cr5   O7    S    
C32   H15   S    
Cr6   O2    S    
C6    C7    A    
C16   O1    A    
C48   H22   S    
C32   C33   A    
Cr6   O9    S    
C42   O17   A    
C54   H27   S    
C36   O2    A    
C40   O23   A    
C37   O27   A    
C20   C26   A    
C7    H31   S    
C12   H19   S    
Cr3   O26   S    
C2    C3    A    
Cr3   O15   S    
C52   H20   S    
C19   C40   S    
C50   H25   S    
C20   C21   A    
C23   C36   S    
Cr4   O5    S    
C41   O5    A    
C25   H9    S    
Cr5   O11   S    
C43   H1    S    
C40   O12   A    
C22   C38   S    
