data_str_m3_o1_o14_f0_pcu.sym.40
_audit_creation_date              2012-12-10T18:45:09-0500
_audit_creation_method            fapswitch 2.2
_symmetry_space_group_name_H-M    P1
_symmetry_Int_Tables_number       1
_space_group_crystal_system       triclinic
_cell_length_a                    10.757276
_cell_length_b                    9.880327
_cell_length_c                    10.70402
_cell_angle_alpha                 89.326769
_cell_angle_beta                  92.59915
_cell_angle_gamma                 88.051061
_cell_volume                      1135.75259431

loop_
_atom_site_label
_atom_site_type_symbol
_atom_type_description
_atom_site_fract_x
_atom_site_fract_y
_atom_site_fract_z
_atom_type_partial_charge
C1    C     C_R   0.259577 0.502766 0.501953 0.844870
C2    C     C_R   0.495696 0.499486 0.739299 0.869773
C3    C     C_R   0.321000 0.688582 0.115678 -0.193859
C4    C     C_R   0.314674 0.675961 0.856305 -0.176335
C5    C     C_R   0.245415 0.779785 0.043451 -0.127019
C6    C     C_R   0.240776 0.772115 0.914325 -0.139359
C7    C     C_R   0.400464 0.590500 0.927143 0.098643
C8    C     C_R   0.402349 0.594895 0.058349 0.091996
C9    C     C_R   0.484205 0.503053 0.126911 -0.107212
C10   C     C_R   0.483199 0.498473 0.870662 -0.111209
C11   C     C_R   0.559643 0.408382 0.067846 -0.194145
C12   C     C_R   0.739223 0.498183 0.493610 0.880575
C13   C     C_R   0.559512 0.406444 0.940224 -0.203788
C14   C     C_R   0.068064 0.392656 0.542411 -0.212624
C15   C     C_R   0.940925 0.387492 0.535062 -0.215770
C16   C     C_R   0.870875 0.496446 0.482465 -0.078802
C17   C     C_R   0.125894 0.508799 0.502074 -0.080443
C18   C     C_R   0.852161 0.715724 0.357877 0.135908
C19   C     C_R   0.801814 0.682599 0.239191 -0.163224
C20   C     C_R   0.728799 0.778129 0.168759 -0.109256
C21   C     C_R   0.705930 0.907419 0.216022 -0.104843
C22   C     C_R   0.755088 0.941036 0.334265 -0.152137
C23   C     C_R   0.927045 0.611098 0.433407 -0.046123
C24   C     C_R   0.826484 0.845194 0.405865 -0.075126
C25   C     C_R   0.106276 0.760383 0.444622 0.158228
C26   C     C_R   0.131399 0.832979 0.554376 -0.116464
C27   C     C_R   0.152318 0.971600 0.548265 -0.181729
C28   C     C_R   0.145893 0.038909 0.432630 -0.090674
C29   C     C_R   0.123647 0.967056 0.322846 -0.110357
C30   C     C_R   0.104841 0.827913 0.328709 -0.203746
C31   C     C_R   0.055000 0.623348 0.454996 -0.052077
C32   C     C_R   0.561802 0.066884 0.594111 0.408102
C33   C     C_R   0.441480 0.073572 0.403993 0.404610
C34   C     C_R   0.558429 0.923934 0.595021 -0.102274
C35   C     C_R   0.443878 0.930552 0.403834 -0.066462
C36   C     C_R   0.493750 0.501225 0.260038 0.867797
H1    H     H_    0.621895 0.338198 0.120928 0.164615
H2    H     H_    0.398358 0.878446 0.327328 0.166135
H3    H     H_    0.818677 0.582636 0.201695 0.117421
H4    H     H_    0.689721 0.751780 0.077646 0.140241
H5    H     H_    0.649421 0.981296 0.161412 0.150817
H6    H     H_    0.736662 0.040927 0.371060 0.135618
H7    H     H_    0.861494 0.871539 0.498510 0.128901
H8    H     H_    0.127845 0.783417 0.644609 0.110961
H9    H     H_    0.169681 0.027520 0.633262 0.134374
H10   H     H_    0.158526 0.146695 0.427638 0.147241
H11   H     H_    0.117788 0.020116 0.233693 0.147186
H12   H     H_    0.622152 0.335678 0.895589 0.181686
H13   H     H_    0.079285 0.774120 0.244558 0.132377
H14   H     H_    0.655314 0.214852 0.657384 0.371744
H15   H     H_    0.346868 0.226764 0.335865 0.373767
H16   H     H_    0.313348 0.692204 0.215590 0.156259
H17   H     H_    0.302527 0.669230 0.756050 0.157613
H18   H     H_    0.188121 0.855677 0.086731 0.134931
H19   H     H_    0.178552 0.840049 0.859233 0.128885
H20   H     H_    0.121243 0.307200 0.583956 0.158114
H21   H     H_    0.897375 0.299695 0.573190 0.163668
H22   H     H_    0.606315 0.866197 0.670248 0.172130
N1    N     N_R   0.500000 0.857200 0.500000 -0.147234
N2    N     N_R   0.500000 0.142810 0.500000 -0.194776
O1    O     O_R   0.316770 0.614620 0.499990 -0.623428
O2    O     O_3   0.379032 0.139478 0.305156 -0.777785
O3    O     O_R   0.683230 0.614620 0.500010 -0.602307
O4    O     O_R   0.316800 0.385290 0.500000 -0.650054
O5    O     O_R   0.683200 0.385290 0.500000 -0.654946
O6    O     O_R   0.500010 0.614690 0.316770 -0.622921
O7    O     O_R   0.499990 0.614690 0.683230 -0.630450
O8    O     O_R   0.500040 0.385360 0.316770 -0.608403
O9    O     O_R   0.499960 0.385360 0.683230 -0.607940
O10   O     O_3   0.631129 0.125729 0.688284 -0.784941
Zn1   Zn    Zn3+2 0.500000 0.653120 0.500000 0.946867
Zn2   Zn    Zn3+2 0.500000 0.346880 0.500000 0.938188

loop_
_geom_bond_atom_site_label_1
_geom_bond_atom_site_label_2
_ccdc_geom_bond_type
C25   C31   S    
C7    C10   A    
C14   H20   S    
C3    H16   S    
C36   O8    A    
C11   H1    S    
C29   C30   A    
C18   C23   S    
C4    H17   S    
C9    C36   S    
O5    Zn2   S    
C15   H21   S    
C12   O5    A    
C36   O6    A    
C1    C17   S    
O6    Zn1   S    
C6    H19   S    
O8    Zn2   S    
O1    Zn1   S    
H14   O10   S    
C26   H8    S    
C7    C8    A    
C21   C22   A    
C33   N2    A    
C9    C11   A    
C14   C17   A    
C28   H10   S    
C26   C27   A    
C22   H6    S    
H15   O2    S    
C19   H3    S    
C29   H11   S    
C4    C7    A    
C18   C24   A    
C5    C6    A    
C22   C24   A    
C4    C6    A    
C28   C29   A    
C33   C35   A    
C30   H13   S    
O3    Zn1   S    
C18   C19   A    
C16   C23   A    
O7    Zn1   S    
O4    Zn2   S    
C34   N1    A    
C20   H4    S    
C21   H5    S    
C3    C8    A    
C27   H9    S    
N2    Zn2   S    
C15   C16   A    
C2    O9    A    
C1    O4    A    
C12   C16   S    
C5    H18   S    
C11   C13   A    
C35   H2    S    
C20   C21   A    
C8    C9    A    
C35   N1    A    
C2    O7    A    
N1    Zn1   S    
C27   C28   A    
C34   H22   S    
C24   H7    S    
C32   N2    A    
C14   C15   A    
C25   C30   A    
C32   O10   S    
O9    Zn2   S    
C23   C31   A    
C25   C26   A    
C12   O3    A    
C10   C13   A    
C2    C10   S    
C17   C31   A    
C19   C20   A    
C1    O1    A    
C33   O2    S    
C3    C5    A    
C13   H12   S    
C32   C34   A    
