data_str_m2_o10_o29_f0_pcu.sym.101
_audit_creation_date              2012-12-10T16:51:10-0500
_audit_creation_method            fapswitch 2.2
_symmetry_space_group_name_H-M    P1
_symmetry_Int_Tables_number       1
_space_group_crystal_system       triclinic
_cell_length_a                    27.866842
_cell_length_b                    8.805837
_cell_length_c                    7.648263
_cell_angle_alpha                 102.755625
_cell_angle_beta                  95.208591
_cell_angle_gamma                 93.987592
_cell_volume                      1815.16665409

loop_
_atom_site_label
_atom_site_type_symbol
_atom_type_description
_atom_site_fract_x
_atom_site_fract_y
_atom_site_fract_z
_atom_type_partial_charge
C1    C     C_R   0.498525 0.200628 0.453876 0.831657
C2    C     C_R   0.501497 0.799377 0.546127 0.832800
C3    C     C_R   0.103090 0.483970 0.535920 -0.189004
C4    C     C_R   0.897354 0.485217 0.507644 -0.183838
C5    C     C_R   0.124350 0.350661 0.451449 -0.164764
C6    C     C_R   0.875036 0.625955 0.533143 -0.184464
C7    C     C_R   0.095231 0.210414 0.383909 0.388107
C8    C     C_R   0.903972 0.767726 0.585806 0.426814
C9    C     C_R   0.133454 0.622301 0.613916 -0.047140
C10   C     C_R   0.867349 0.343362 0.466641 -0.099326
C11   C     C_R   0.354911 0.503423 0.504287 -0.135789
C12   C     C_R   0.644897 0.490756 0.496444 -0.135762
C13   C     C_R   0.970406 0.340077 0.483432 0.027924
C14   C     C_R   0.030621 0.627029 0.579744 0.065147
C15   C     C_R   0.978742 0.630497 0.566603 -0.099045
C16   C     C_R   0.022077 0.337511 0.479086 -0.078821
C17   C     C_R   0.949156 0.485556 0.519799 0.008168
C18   C     C_R   0.051584 0.482265 0.533352 0.012297
C19   C     C_R   0.938295 0.202505 0.448334 -0.271791
C20   C     C_R   0.063261 0.763614 0.632442 -0.327764
C21   C     C_R   0.888347 0.203004 0.430632 0.449854
C22   C     C_R   0.112872 0.761701 0.672310 0.374246
C23   C     C_R   0.407841 0.501251 0.500752 0.783968
C24   C     C_R   0.592115 0.497738 0.499232 0.781696
C25   C     C_R   0.045907 0.198870 0.413215 0.318447
C26   C     C_R   0.954452 0.771599 0.601652 0.311314
C27   C     C_2   0.497800 0.032646 0.428998 -0.362194
C28   C     C_2   0.502258 0.967372 0.571011 -0.363588
C29   C     C_R   0.174821 0.361447 0.438204 0.574149
C30   C     C_R   0.823940 0.620466 0.505285 0.568465
C31   C     C_R   0.184048 0.620327 0.617819 0.563170
C32   C     C_R   0.816708 0.345425 0.464573 0.556095
C33   C     C_R   0.273952 0.515145 0.361620 -0.188580
C34   C     C_R   0.724591 0.465597 0.639874 -0.207004
C35   C     C_R   0.324037 0.521223 0.353842 0.459896
C36   C     C_R   0.674619 0.465937 0.646119 0.460878
C37   C     C_R   0.334666 0.488608 0.662350 -0.290454
C38   C     C_R   0.666120 0.506420 0.340471 -0.291143
C39   C     C_R   0.284955 0.486036 0.669724 -0.112394
C40   C     C_R   0.715834 0.502694 0.334658 -0.111828
C41   C     C_R   0.254505 0.497950 0.519064 0.280655
C42   C     C_R   0.745118 0.483233 0.484760 0.279622
Cu1   Cu    Cu3+1 0.505380 0.517380 0.684380 1.035182
Cu2   Cu    Cu3+1 0.494620 0.482620 0.315620 1.035110
H1    H     H_    0.357183 0.477634 0.780575 0.190993
H2    H     H_    0.644385 0.522806 0.222970 0.190443
H3    H     H_    0.269991 0.473372 0.792141 0.162060
H4    H     H_    0.731668 0.515927 0.214055 0.156682
H5    H     H_    0.747571 0.451313 0.756151 0.142517
H6    H     H_    0.250124 0.524671 0.245225 0.146644
H7    H     H_    0.949381 0.089167 0.439174 0.282208
H8    H     H_    0.053642 0.877561 0.631472 0.252448
H9    H     H_    0.493532 0.961974 0.291779 0.207063
H10   H     H_    0.506533 0.038047 0.708230 0.206642
N1    N     N_R   0.203262 0.492808 0.525999 -0.466750
N2    N     N_R   0.796395 0.482727 0.481815 -0.463819
N3    N     N_2   0.486510 0.456430 0.038510 0.151109
N4    N     N_2   0.513490 0.543570 0.961490 0.152822
O1    O     O_R   0.503500 0.286120 0.619780 -0.532193
O2    O     O_R   0.496500 0.713880 0.380220 -0.532181
O3    O     O_R   0.494410 0.256780 0.308360 -0.595264
O4    O     O_R   0.505590 0.743220 0.691640 -0.594985
O5    O     O_R   0.434810 0.514700 0.655690 -0.577194
O6    O     O_R   0.565190 0.485300 0.344310 -0.576518
O7    O     O_R   0.425720 0.485350 0.344280 -0.569798
O8    O     O_R   0.574280 0.514650 0.655720 -0.569088
O9    O     O_2   0.195831 0.242064 0.341149 -0.520706
O10   O     O_2   0.801518 0.750351 0.501136 -0.511148
O11   O     O_2   0.787696 0.212244 0.445745 -0.498749
O12   O     O_2   0.214003 0.745476 0.708665 -0.501143
O13   O     O_3   0.468425 0.320070 0.926881 -0.490223
C43   C     C_3   0.422158 0.282006 0.972516 -0.113435
H11   H     H_    0.424234 0.226306 0.088869 0.168592
H12   H     H_    0.402136 0.195696 0.856406 0.123052
H13   H     H_    0.400975 0.385229 0.998933 0.184099
O14   O     O_3   0.531697 0.679753 0.073181 -0.488490
C44   C     C_3   0.578052 0.717037 0.027801 -0.119266
H14   H     H_    0.597970 0.804282 0.143299 0.120996
H15   H     H_    0.576133 0.771350 0.910325 0.167585
H16   H     H_    0.599234 0.613656 0.003308 0.183724
O15   O     O_3   0.113584 0.088587 0.270190 -0.625940
C45   C     C_3   0.131128 0.982601 0.367389 -0.170409
H17   H     H_    0.153057 0.902554 0.281748 0.160836
H18   H     H_    0.100682 0.909424 0.397660 0.196782
H19   H     H_    0.155298 0.043163 0.490024 0.235217
O16   O     O_3   0.883804 0.909041 0.610085 -0.477723
C46   C     C_3   0.864661 0.946381 0.777302 -0.186338
H20   H     H_    0.869088 0.856467 0.857926 0.081509
H21   H     H_    0.882050 0.061404 0.855334 0.125361
H22   H     H_    0.825746 0.963548 0.755722 0.228231
O17   O     O_3   0.655623 0.449549 0.802292 -0.600086
C47   C     C_3   0.648757 0.288909 0.799728 -0.306064
H23   H     H_    0.683863 0.236057 0.803425 0.168015
H24   H     H_    0.623815 0.224451 0.680249 0.163528
H25   H     H_    0.631835 0.275639 0.921980 0.190131
O18   O     O_3   0.342114 0.537274 0.195995 -0.599753
C48   C     C_3   0.346683 0.697392 0.194365 -0.305612
H26   H     H_    0.371128 0.766639 0.312658 0.161886
H27   H     H_    0.310727 0.744863 0.189375 0.172208
H28   H     H_    0.363059 0.710912 0.071146 0.193007
O19   O     O_3   0.859876 0.062697 0.388191 -0.468009
C49   C     C_3   0.851854 0.009949 0.199967 0.091999
H29   H     H_    0.886402 0.976839 0.147054 0.093003
H30   H     H_    0.837072 0.101349 0.135602 0.119081
C50   C     C_3   0.814933 0.867098 0.153882 -0.652913
H31   H     H_    0.783087 0.891352 0.229528 0.297516
H32   H     H_    0.831687 0.765317 0.188488 0.236166
H33   H     H_    0.801832 0.837203 0.008135 0.158275
O20   O     O_3   0.142051 0.901613 0.715911 -0.596150
C51   C     C_3   0.135010 0.991806 0.886426 0.150238
H34   H     H_    0.158163 0.952928 0.990970 0.210448
H35   H     H_    0.096878 0.983712 0.917016 0.133597
C52   C     C_3   0.150482 0.162616 0.893518 -0.725818
H36   H     H_    0.129605 0.201432 0.783276 0.204362
H37   H     H_    0.143575 0.237514 0.023957 0.248189
H38   H     H_    0.189659 0.177569 0.878062 0.255478
O21   O     O_3   0.024479 0.049930 0.401271 -0.558938
C53   C     C_3   0.008893 0.978178 0.220108 0.037404
H39   H     H_    0.040132 0.960442 0.142265 0.188987
H40   H     H_    0.983285 0.050623 0.164468 0.120485
C54   C     C_3   0.983106 0.816630 0.202750 -0.799943
H41   H     H_    0.948921 0.825541 0.266069 0.258918
H42   H     H_    0.973864 0.758379 0.058099 0.177835
H43   H     H_    0.007087 0.743570 0.265464 0.265470
O22   O     O_3   0.978004 0.918678 0.626836 -0.536029
C55   C     C_3   0.987453 0.985251 0.812371 0.067906
H44   H     H_    0.013386 0.917188 0.871228 0.110559
H45   H     H_    0.954697 0.983064 0.882096 0.132691
C56   C     C_3   0.009032 0.154036 0.844009 -0.774625
H46   H     H_    0.981348 0.227362 0.802543 0.255644
H47   H     H_    0.021513 0.201452 0.988992 0.182276
H48   H     H_    0.040573 0.160892 0.766941 0.261419

loop_
_geom_bond_atom_site_label_1
_geom_bond_atom_site_label_2
_ccdc_geom_bond_type
C46   H20   S    
O19   C49   S    
C8    C26   A    
C14   C18   A    
C34   C42   A    
C53   H40   S    
C26   O22   S    
C48   H26   S    
N4    O14   S    
C39   C41   A    
C35   O18   S    
Cu2   O6    S    
C56   H47   S    
C50   H32   S    
C55   H44   S    
C49   C50   S    
C19   C21   A    
C56   H46   S    
C1    O1    A    
C2    O2    A    
C9    C22   A    
C3    C18   A    
C40   H4    S    
C11   C23   S    
C11   C37   A    
C53   H39   S    
C41   N1    S    
C54   H43   S    
Cu1   N4    S    
C42   N2    S    
C29   O9    S    
C31   O12   S    
C12   C36   A    
C34   C36   A    
Cu1   O1    S    
C52   H38   S    
C21   O19   S    
C23   O5    A    
C24   O6    A    
Cu2   O7    S    
C43   H13   S    
C48   H27   S    
O15   C45   S    
C5    C29   A    
C44   H15   S    
C10   C21   A    
C50   H33   S    
C38   H2    S    
C13   C19   A    
Cu1   O5    S    
C14   C20   A    
O14   C44   S    
C43   H12   S    
O17   C47   S    
C5    C7    A    
C28   H10   S    
O16   C46   S    
C15   C26   A    
C6    C8    A    
C29   N1    A    
C55   C56   S    
C33   H6    S    
C44   H14   S    
C30   N2    A    
C47   H25   S    
C51   H34   S    
C1    O3    A    
C53   C54   S    
Cu1   Cu2   S    
C3    C9    A    
C19   H7    S    
Cu2   N3    S    
C22   O20   S    
O18   C48   S    
C47   H24   S    
C16   C18   A    
N3    O13   S    
C49   H30   S    
C51   C52   S    
C54   H41   S    
C4    C17   A    
C36   O17   S    
C4    C6    A    
C7    O15   S    
C20   C22   A    
C45   H18   S    
C46   H21   S    
O22   C55   S    
C46   H22   S    
C4    C10   A    
C48   H28   S    
C39   H3    S    
C52   H36   S    
C44   H16   S    
C16   C25   A    
C15   C17   A    
C34   H5    S    
C55   H45   S    
C6    C30   A    
C43   H11   S    
C3    C5    A    
C25   O21   S    
C27   H9    S    
C32   O11   S    
C24   O8    A    
Cu2   O3    S    
C45   H19   S    
C50   H31   S    
C12   C24   S    
C7    C25   A    
C13   C17   A    
C33   C41   A    
C56   H48   S    
C11   C35   A    
O13   C43   S    
C37   C39   A    
O21   C53   S    
C38   C40   A    
C23   O7    A    
N3    N4    D    
Cu2   O2    S    
Cu1   O8    S    
C40   C42   A    
C47   H23   S    
C33   C35   A    
C8    O16   S    
C12   C38   A    
C49   H29   S    
C51   H35   S    
C54   H42   S    
C9    C31   A    
C10   C32   A    
C20   H8    S    
C45   H17   S    
C13   C16   A    
C27   C28   D    
C1    C27   S    
C14   C15   A    
C2    C28   S    
C31   N1    A    
O20   C51   S    
C37   H1    S    
C32   N2    A    
C30   O10   S    
C2    O4    A    
Cu1   O4    S    
C52   H37   S    
