data_str_m4_o1_o14_f0_acs.sym.253
_audit_creation_date              2013-03-05T15:44:38-0500
_audit_creation_method            fapswitch 2.2
_symmetry_space_group_name_H-M    P1
_symmetry_Int_Tables_number       1
_space_group_crystal_system       triclinic
_cell_length_a                    18.943136
_cell_length_b                    10.889705
_cell_length_c                    18.833771
_cell_angle_alpha                 90.09901
_cell_angle_beta                  89.883446
_cell_angle_gamma                 90.232609
_cell_volume                      3885.08171587

loop_
_atom_site_label
_atom_site_type_symbol
_atom_site_description
_atom_site_fract_x
_atom_site_fract_y
_atom_site_fract_z
_atom_type_partial_charge
O1    O     O_R   0.787540 0.042690 0.170470 -0.535599
O2    O     O_R   0.212460 0.042690 0.829530 -0.550026
O3    O     O_R   0.287540 0.542690 0.170470 -0.536330
O4    O     O_R   0.712460 0.542690 0.829530 -0.550306
O5    O     O_R   0.765660 0.292160 0.175050 -0.500999
O6    O     O_R   0.234340 0.292160 0.824950 -0.502265
O7    O     O_R   0.265660 0.792160 0.175050 -0.506477
O8    O     O_R   0.734340 0.792160 0.824950 -0.501757
C1    C     C_R   0.730084 0.375966 0.145504 0.573597
C2    C     C_R   0.288274 0.330116 0.861515 0.561163
C3    C     C_R   0.230075 0.875924 0.145490 0.565200
C4    C     C_R   0.788285 0.830091 0.861513 0.561145
O9    O     O_R   0.670190 0.408980 0.168550 -0.488497
O10   O     O_R   0.329810 0.408980 0.831450 -0.454590
O11   O     O_R   0.170190 0.908980 0.168550 -0.491908
O12   O     O_R   0.829810 0.908980 0.831450 -0.453014
O13   O     O_R   0.556580 0.251450 0.175160 -0.511935
O14   O     O_R   0.443420 0.251450 0.824840 -0.536209
O15   O     O_R   0.056580 0.751450 0.175160 -0.516048
O16   O     O_R   0.943420 0.751450 0.824840 -0.536269
C5    C     C_R   0.530562 0.156200 0.147213 0.546515
C6    C     C_R   0.468011 0.155107 0.853835 0.517912
C7    C     C_R   0.030557 0.656206 0.147216 0.538606
C8    C     C_R   0.967999 0.655105 0.853843 0.518134
O17   O     O_R   0.545920 0.049510 0.170320 -0.478352
O18   O     O_R   0.454080 0.049510 0.829680 -0.506208
O19   O     O_R   0.045920 0.549510 0.170320 -0.481479
O20   O     O_R   0.954080 0.549510 0.829680 -0.505436
O21   O     O_R   0.681390 0.957840 0.176710 -0.424896
O22   O     O_R   0.318610 0.957840 0.823290 -0.452081
O23   O     O_R   0.181390 0.457840 0.176710 -0.427315
O24   O     O_R   0.818610 0.457840 0.823290 -0.450937
C9    C     C_R   0.742127 0.965532 0.148398 0.566940
C10   C     C_R   0.258466 0.969242 0.852760 0.564074
C11   C     C_R   0.242120 0.465541 0.148395 0.565160
C12   C     C_R   0.758477 0.469264 0.852772 0.564392
O25   O     O_R   0.787500 0.044280 0.330990 -0.544617
O26   O     O_R   0.212500 0.044280 0.669010 -0.533328
O27   O     O_R   0.287500 0.544280 0.330990 -0.535066
O28   O     O_R   0.712500 0.544280 0.669010 -0.534730
O29   O     O_R   0.765610 0.293630 0.323860 -0.493826
O30   O     O_R   0.234390 0.293630 0.676140 -0.502061
O31   O     O_R   0.265610 0.793630 0.323860 -0.512082
O32   O     O_R   0.734390 0.793630 0.676140 -0.502111
C13   C     C_R   0.711221 0.332016 0.359777 0.541143
C14   C     C_R   0.270272 0.378036 0.647300 0.572284
C15   C     C_R   0.227999 0.874942 0.354231 0.570677
C16   C     C_R   0.771182 0.876112 0.646282 0.575584
O33   O     O_R   0.670140 0.410570 0.329080 -0.461570
O34   O     O_R   0.329860 0.410570 0.670920 -0.489969
O35   O     O_R   0.170140 0.910570 0.329080 -0.483038
O36   O     O_R   0.829860 0.910570 0.670920 -0.485671
O37   O     O_R   0.556540 0.252920 0.323970 -0.522678
O38   O     O_R   0.443460 0.252920 0.676030 -0.512236
O39   O     O_R   0.056540 0.752920 0.323970 -0.513967
O40   O     O_R   0.943460 0.752920 0.676030 -0.513871
C17   C     C_R   0.563236 0.153481 0.361099 0.518007
C18   C     C_R   0.469064 0.157493 0.646972 0.541747
C19   C     C_R   0.035857 0.656482 0.355797 0.538039
C20   C     C_R   0.968613 0.657880 0.646952 0.542380
O41   O     O_R   0.545870 0.051100 0.330840 -0.478285
O42   O     O_R   0.454130 0.051100 0.669160 -0.479013
O43   O     O_R   0.045870 0.551100 0.330840 -0.505589
O44   O     O_R   0.954130 0.551100 0.669160 -0.486802
O45   O     O_R   0.681340 0.959300 0.325510 -0.471131
O46   O     O_R   0.318660 0.959300 0.674490 -0.428974
O47   O     O_R   0.181340 0.459300 0.325510 -0.454487
O48   O     O_R   0.818660 0.459300 0.674490 -0.429021
C21   C     C_R   0.742271 0.968437 0.353644 0.553793
C22   C     C_R   0.258184 0.968167 0.646390 0.568000
C23   C     C_R   0.241470 0.471157 0.354721 0.573435
C24   C     C_R   0.757425 0.467144 0.646705 0.568768
Cr1   Cr    Cr6+3 0.772000 0.169640 0.250110 1.032085
Cr2   Cr    Cr6+3 0.228000 0.169640 0.749890 1.031792
Cr3   Cr    Cr6+3 0.272000 0.669640 0.250110 1.038559
Cr4   Cr    Cr6+3 0.728000 0.669640 0.749890 1.032188
Cr5   Cr    Cr6+3 0.614960 0.323350 0.249260 1.059687
Cr6   Cr    Cr6+3 0.385040 0.323350 0.750740 1.062195
Cr7   Cr    Cr6+3 0.114960 0.823350 0.249260 1.061626
Cr8   Cr    Cr6+3 0.885040 0.823350 0.750740 1.064601
Cr9   Cr    Cr6+3 0.616670 0.010620 0.250840 1.142384
Cr10  Cr    Cr6+3 0.383330 0.010620 0.749160 1.141981
Cr11  Cr    Cr6+3 0.116670 0.510620 0.250840 1.149048
Cr12  Cr    Cr6+3 0.883330 0.510620 0.749160 1.140983
O49   O     O_3   0.667880 0.167870 0.250070 -0.315550
O50   O     O_3   0.332120 0.167870 0.749930 -0.298652
O51   O     O_3   0.167880 0.667870 0.250070 -0.281415
O52   O     O_3   0.832120 0.667870 0.749930 -0.299183
H1    H     H_    0.477228 0.973653 0.069920 0.192665
H2    H     H_    0.467954 0.967609 0.944375 0.198725
H3    H     H_    0.977060 0.473736 0.069971 0.192905
H4    H     H_    0.967770 0.467672 0.944419 0.199916
C25   C     C_R   0.492382 0.161423 0.927556 -0.002714
C26   C     C_R   0.499554 0.168371 0.076244 -0.011937
C27   C     C_R   0.992332 0.661422 0.927576 -0.003170
C28   C     C_R   0.999517 0.668408 0.076263 -0.010522
C29   C     C_R   0.507640 0.274245 0.961790 0.011012
C30   C     C_R   0.504334 0.279947 0.036925 0.020896
C31   C     C_R   0.007648 0.774233 0.961795 0.010837
C32   C     C_R   0.004346 0.779966 0.036930 0.021769
C33   C     C_R   0.484088 0.058932 0.041115 -0.122267
C34   C     C_R   0.481207 0.055175 0.968374 -0.117720
C35   C     C_R   0.983969 0.558990 0.041152 -0.121414
C36   C     C_R   0.981078 0.555216 0.968409 -0.117696
C37   C     C_R   0.524576 0.381987 0.923422 -0.099309
C38   C     C_R   0.505229 0.396944 0.069798 -0.104568
C39   C     C_R   0.024653 0.881927 0.923413 -0.099309
C40   C     C_R   0.005309 0.896977 0.069787 -0.104033
C41   C     C_R   0.028219 0.995416 0.957486 -0.099314
C42   C     C_R   0.016670 0.003208 0.030207 -0.110276
C43   C     C_R   0.528047 0.495473 0.957506 -0.099314
C44   C     C_R   0.516501 0.503213 0.030229 -0.110251
H5    H     H_    0.535248 0.379814 0.867038 0.144845
H6    H     H_    0.493475 0.408897 0.125505 0.144800
H7    H     H_    0.035318 0.879711 0.867028 0.144900
H8    H     H_    0.993554 0.908974 0.125491 0.143345
H9    H     H_    0.038901 0.077815 0.927178 0.165017
H10   H     H_    0.016782 0.091765 0.056268 0.197811
H11   H     H_    0.538658 0.577909 0.927206 0.164722
H12   H     H_    0.516543 0.591760 0.056300 0.197883
C45   C     C_R   0.701960 0.841507 0.042112 0.197343
C46   C     C_R   0.295382 0.844976 0.959171 0.189653
C47   C     C_R   0.201883 0.341700 0.042070 0.197225
C48   C     C_R   0.795678 0.345541 0.959269 0.189559
C49   C     C_R   0.712598 0.819318 0.969770 -0.121181
C50   C     C_R   0.294518 0.836746 0.033300 -0.123185
C51   C     C_R   0.212520 0.319569 0.969724 -0.121462
C52   C     C_R   0.794795 0.337330 0.033391 -0.123938
H13   H     H_    0.670102 0.780097 0.938732 0.160578
H14   H     H_    0.326152 0.767142 0.058996 0.171709
H15   H     H_    0.169994 0.280511 0.938659 0.160764
H16   H     H_    0.826645 0.268047 0.059109 0.171186
C53   C     C_R   0.776873 0.849648 0.937294 -0.015260
C54   C     C_R   0.248137 0.909858 0.073425 -0.020100
C55   C     C_R   0.276837 0.349725 0.937283 -0.015043
C56   C     C_R   0.748153 0.410027 0.073456 -0.021703
C57   C     C_R   0.832030 0.897073 0.977977 -0.115945
C58   C     C_R   0.205083 0.994817 0.039995 -0.134705
C59   C     C_R   0.332014 0.397004 0.977989 -0.115411
C60   C     C_R   0.704893 0.494622 0.039962 -0.134797
H17   H     H_    0.882220 0.919574 0.953959 0.179599
H18   H     H_    0.168020 0.050282 0.069464 0.203617
H19   H     H_    0.382224 0.419395 0.953986 0.180031
H20   H     H_    0.667658 0.549827 0.069379 0.203815
C61   C     C_R   0.821877 0.922637 0.049035 -0.160787
C62   C     C_R   0.204784 0.002752 0.967660 -0.173704
C63   C     C_R   0.321859 0.422560 0.049045 -0.160157
C64   C     C_R   0.704603 0.502474 0.967625 -0.173724
H21   H     H_    0.864406 0.967061 0.077591 0.152728
H22   H     H_    0.169652 0.069308 0.944507 0.147843
H23   H     H_    0.364405 0.466887 0.077624 0.153163
H24   H     H_    0.669321 0.568746 0.944425 0.147875
C65   C     C_R   0.756087 0.901533 0.081198 0.009082
C66   C     C_R   0.250125 0.930551 0.926192 0.015171
C67   C     C_R   0.256050 0.401564 0.081186 0.009458
C68   C     C_R   0.750162 0.430605 0.926214 0.015077
C69   C     C_R   0.560810 0.063358 0.480535 -0.111431
C70   C     C_R   0.541418 0.066092 0.551521 -0.088076
C71   C     C_R   0.036672 0.560610 0.472871 -0.104465
C72   C     C_R   0.027757 0.564575 0.545287 -0.106847
H25   H     H_    0.586212 0.982480 0.459529 0.167214
H26   H     H_    0.551381 0.986047 0.584034 0.166523
H27   H     H_    0.057710 0.477149 0.449963 0.188775
H28   H     H_    0.039112 0.482949 0.576012 0.168480
C73   C     C_R   0.505356 0.167946 0.578888 0.022669
C74   C     C_R   0.545030 0.162299 0.436209 0.013258
C75   C     C_R   0.999370 0.669340 0.576808 0.019930
C76   C     C_R   0.019222 0.662552 0.430828 0.025880
C77   C     C_R   0.493426 0.270573 0.535674 -0.135480
C78   C     C_R   0.512832 0.267504 0.464474 -0.135049
C79   C     C_R   0.986314 0.774833 0.535852 -0.132414
C80   C     C_R   0.996611 0.771540 0.462767 -0.138298
H29   H     H_    0.465108 0.349789 0.555548 0.148330
H30   H     H_    0.500460 0.345547 0.431256 0.148806
H31   H     H_    0.964260 0.856972 0.559463 0.148059
H32   H     H_    0.985537 0.852338 0.431281 0.139157
C81   C     C_R   0.807438 0.979912 0.464030 -0.181130
C82   C     C_R   0.185582 0.948029 0.541238 -0.169649
C83   C     C_R   0.298085 0.502458 0.468564 -0.172425
C84   C     C_R   0.678061 0.434256 0.545803 -0.155680
H33   H     H_    0.847503 0.036691 0.439186 0.165161
H34   H     H_    0.140680 0.985357 0.569631 0.163898
H35   H     H_    0.334314 0.567957 0.444925 0.168973
H36   H     H_    0.637021 0.485324 0.572828 0.166894
C85   C     C_R   0.807604 0.975016 0.536511 -0.136863
C86   C     C_R   0.182095 0.943659 0.468631 -0.102718
C87   C     C_R   0.298714 0.493639 0.540914 -0.140420
C88   C     C_R   0.668635 0.409833 0.474642 -0.117212
H37   H     H_    0.849502 0.022964 0.564156 0.207540
H38   H     H_    0.133182 0.971947 0.443977 0.197744
H39   H     H_    0.337987 0.545777 0.569679 0.210186
H40   H     H_    0.620721 0.441239 0.449414 0.178023
C89   C     C_R   0.757410 0.904441 0.572371 -0.021137
C90   C     C_R   0.239466 0.900453 0.428867 -0.004311
C91   C     C_R   0.253300 0.412244 0.575119 -0.022981
C92   C     C_R   0.721503 0.351159 0.435815 -0.023037
C93   C     C_R   0.706789 0.837214 0.533881 -0.135241
C94   C     C_R   0.299817 0.857453 0.463255 -0.125381
C95   C     C_R   0.204881 0.341787 0.535704 -0.128767
C96   C     C_R   0.781969 0.308203 0.470584 -0.117395
H41   H     H_    0.670849 0.775655 0.561187 0.174951
H42   H     H_    0.342344 0.816759 0.432824 0.168730
H43   H     H_    0.171607 0.274483 0.561886 0.174154
H44   H     H_    0.821571 0.257309 0.441476 0.167206
C97   C     C_R   0.705669 0.842316 0.459621 0.174674
C98   C     C_R   0.304427 0.862122 0.537162 0.191117
C99   C     C_R   0.203883 0.349159 0.461659 0.181478
C100  C     C_R   0.792363 0.332361 0.542843 0.196173
C101  C     C_R   0.754197 0.920921 0.424899 0.014524
C102  C     C_R   0.247812 0.915248 0.576094 0.008133
C103  C     C_R   0.250369 0.432629 0.427968 0.015694
C104  C     C_R   0.741614 0.403590 0.579689 0.009357
N1    N     N_R   0.657436 0.765061 0.420776 0.076686
O53   O     O_R   0.676531 0.716895 0.360467 -0.291193
O54   O     O_R   0.599014 0.727525 0.450231 -0.345023
N2    N     N_R   0.366292 0.813321 0.571036 0.076718
O55   O     O_R   0.427181 0.818115 0.539004 -0.331878
O56   O     O_R   0.360324 0.747998 0.628554 -0.330272
N3    N     N_R   0.158506 0.268136 0.421995 0.071562
O57   O     O_R   0.180891 0.217839 0.363440 -0.312898
O58   O     O_R   0.099223 0.230069 0.449398 -0.358040
N4    N     N_R   0.854284 0.285328 0.577149 0.070490
O59   O     O_R   0.848785 0.230941 0.638408 -0.318566
O60   O     O_R   0.913616 0.278119 0.542455 -0.343054
N5    N     N_R   0.635847 0.805692 0.073648 0.066649
O61   O     O_R   0.635008 0.746540 0.133636 -0.335591
O62   O     O_R   0.578133 0.810536 0.036458 -0.392130
N6    N     N_R   0.339051 0.762509 0.918806 0.081498
O63   O     O_R   0.315846 0.715006 0.859806 -0.295575
O64   O     O_R   0.397296 0.720499 0.945885 -0.370023
N7    N     N_R   0.135735 0.305988 0.073574 0.066866
O65   O     O_R   0.134837 0.246775 0.133542 -0.338286
O66   O     O_R   0.078042 0.310927 0.036355 -0.391267
N8    N     N_R   0.839704 0.263616 0.918965 0.081139
O67   O     O_R   0.898648 0.223764 0.945712 -0.369828
O68   O     O_R   0.816374 0.214633 0.860393 -0.291854

loop_
_geom_bond_atom_site_label_1
_geom_bond_atom_site_label_2
_geom_bond_distance
_ccdc_geom_bond_type
C18   O42   1.263137 A    
C99   C103  1.413328 A    
C79   C80   1.390256 A    
O4    C12   1.264609 A    
C53   C57   1.393931 A    
C69   C70   1.386062 A    
O39   C19   1.270254 A    
C16   C89   1.450726 S    
O20   Cr12  2.068033 S    
C39   C41   1.392999 A    
C77   C78   1.390120 A    
C15   C90   1.449020 S    
C59   H19   1.079445 S    
C43   C44   1.389039 A    
C92   C96   1.402866 A    
C60   C64   1.365249 A    
O29   Cr1   1.939380 S    
O26   C22   1.272987 A    
C29   C30   1.417611 A    
C45   N5    1.437763 S    
C14   C91   1.447311 S    
C38   C44   1.393024 A    
N1    O53   1.301494 A    
C7    C28   1.467497 S    
O47   Cr11  1.950922 S    
C59   C63   1.379676 A    
O5    C1    1.266877 A    
C33   C34   1.371727 A    
C45   C65   1.420019 A    
C38   H6    1.079850 S    
C72   H28   1.084010 S    
C37   H5    1.080835 S    
C11   C67   1.467763 S    
N2    O56   1.301459 A    
O25   C21   1.261825 A    
C52   C56   1.406292 A    
O26   Cr2   2.064351 S    
C27   C31   1.415560 A    
C46   N6    1.438688 S    
O47   C23   1.271965 A    
C83   C87   1.366245 A    
C5    C26   1.467489 S    
C26   C30   1.426464 A    
C49   C53   1.400024 A    
C83   C103  1.405355 A    
O8    Cr4   1.945726 S    
C81   C85   1.366238 A    
C71   C76   1.405601 A    
C82   C102  1.398361 A    
O32   Cr4   1.942035 S    
O30   C14   1.263736 A    
C72   C75   1.394458 A    
C81   C101  1.403251 A    
C84   C104  1.405456 A    
C18   C73   1.458114 S    
C1    O9    1.267148 A    
O44   Cr12  2.062155 S    
C88   C92   1.395188 A    
O15   Cr7   1.944010 S    
C84   C88   1.377747 A    
C62   H22   1.079143 S    
C3    O11   1.267216 A    
O11   Cr7   2.065251 S    
C4    O12   1.292958 A    
C26   C33   1.392513 A    
O28   Cr4   2.064351 S    
C94   H42   1.083494 S    
C93   H41   1.083245 S    
O27   Cr3   2.069402 S    
C96   H44   1.082184 S    
O3    Cr3   2.059593 S    
Cr4   O52   1.972533 S    
C83   H35   1.083442 S    
O2    Cr2   2.061466 S    
C56   C60   1.388649 A    
C48   C52   1.399071 A    
C29   C37   1.414426 A    
O2    C10   1.264545 A    
C13   C92   1.460154 S    
C10   C66   1.454565 S    
C37   C43   1.392996 A    
Cr5   O49   1.971247 S    
O21   C9    1.269637 A    
Cr7   O51   1.971247 S    
C95   H43   1.083442 S    
C46   C66   1.414167 A    
C42   H10   1.081320 S    
C97   C101  1.413695 A    
O18   Cr10  2.068033 S    
N8    O68   1.301832 A    
C52   H16   1.083518 S    
N6    O64   1.301511 A    
N6    O63   1.301442 A    
C98   C102  1.422281 A    
C35   C36   1.371755 A    
C20   O44   1.265284 A    
O6    Cr2   1.945726 S    
C91   C95   1.405730 A    
N1    O54   1.301629 A    
C73   C77   1.402995 A    
O24   Cr12  1.942355 S    
O9    Cr5   2.065251 S    
C32   C40   1.415633 A    
C20   C75   1.448143 S    
O30   Cr2   1.942035 S    
O22   C10   1.272731 A    
C41   H9    1.082474 S    
O48   Cr12  1.946674 S    
Cr12  O52   1.971534 S    
O1    C9    1.270118 A    
N2    O55   1.301475 A    
C90   C94   1.397898 A    
C93   C97   1.400000 A    
C2    O10   1.292922 A    
C3    C54   1.447272 S    
C85   C89   1.394315 A    
N3    O57   1.301499 A    
C44   H12   1.081314 S    
O16   Cr8   1.949560 S    
O7    Cr3   1.949739 S    
C17   C74   1.458454 S    
Cr10  O50   1.971534 S    
C79   H31   1.083171 S    
O13   C5    1.261287 A    
O40   C20   1.264544 A    
O43   Cr11  2.063371 S    
O48   C24   1.276768 A    
O12   Cr8   2.066711 S    
C46   C50   1.399220 A    
O15   C7    1.261253 A    
C45   C49   1.397670 A    
C47   C67   1.420064 A    
C49   H13   1.081863 S    
C94   C98   1.395693 A    
O46   Cr10  1.946674 S    
O39   Cr7   1.945065 S    
O13   Cr5   1.944010 S    
C57   C61   1.379701 A    
C25   C29   1.415576 A    
O7    C3    1.266754 A    
C71   C72   1.374552 A    
C62   C66   1.402318 A    
O3    C11   1.270168 A    
O40   Cr8   1.946691 S    
O8    C4    1.299048 A    
Cr11  O51   1.964724 S    
C39   H7    1.080834 S    
C95   C99   1.397176 A    
C13   O33   1.296357 A    
C57   H17   1.079500 S    
O23   Cr11  1.943872 S    
N7    O66   1.300919 A    
C89   C93   1.405797 A    
O29   C13   1.301356 A    
C2    C55   1.458380 S    
N4    O60   1.301494 A    
O35   Cr7   2.061085 S    
Cr1   O49   1.972377 S    
C82   H34   1.083918 S    
C6    O18   1.262983 A    
C85   H37   1.082127 S    
C43   H11   1.082475 S    
Cr3   O51   1.972377 S    
O14   Cr6   1.949560 S    
O21   Cr9   1.943872 S    
C74   C78   1.403610 A    
C7    O19   1.276339 A    
C4    C53   1.458473 S    
C48   C68   1.414115 A    
C58   H18   1.080042 S    
O37   Cr5   1.945065 S    
C22   C102  1.456362 S    
C6    C25   1.465492 S    
C71   H27   1.082542 S    
C19   O43   1.254349 A    
C8    C27   1.465488 S    
C21   C101  1.457513 S    
N8    O67   1.302248 A    
C69   H25   1.079458 S    
C47   C51   1.397617 A    
O34   Cr6   2.067382 S    
C8    O20   1.262975 A    
C63   C67   1.402809 A    
C27   C36   1.405309 A    
C12   C68   1.454605 S    
O31   Cr3   1.939380 S    
O38   C18   1.271088 A    
O25   Cr1   2.069402 S    
C98   N2    1.439479 S    
O45   C21   1.274475 A    
C5    O17   1.276277 A    
C99   N3    1.438602 S    
O27   C23   1.260209 A    
O22   Cr10  1.942355 S    
O28   C24   1.268626 A    
H1    C33   1.083555 S    
O14   C6    1.273936 A    
C25   C34   1.405304 A    
C87   H39   1.080041 S    
C86   C90   1.401066 A    
O5    Cr1   1.949739 S    
C64   H24   1.079175 S    
H3    C35   1.083560 S    
O17   Cr9   2.071331 S    
O37   C17   1.296830 A    
C69   C74   1.397815 A    
C54   C58   1.388446 A    
C15   O35   1.257938 A    
O24   C12   1.272673 A    
C17   O41   1.292898 A    
C78   H30   1.082887 S    
Cr2   O50   1.972533 S    
C31   C39   1.414427 A    
C14   O34   1.263257 A    
C23   C103  1.452947 S    
C30   C38   1.415619 A    
C31   C32   1.417605 A    
C75   C79   1.407842 A    
C88   H40   1.082310 S    
C55   C59   1.393872 A    
O1    Cr1   2.059593 S    
C61   H21   1.081686 S    
C40   H8    1.079854 S    
O19   Cr11  2.071331 S    
C61   C65   1.402861 A    
Cr8   O52   1.964198 S    
O32   C16   1.266415 A    
H2    C34   1.083348 S    
C41   C42   1.389044 A    
C76   C80   1.398033 A    
C77   H29   1.083419 S    
Cr6   O50   1.964198 S    
C24   C104  1.469209 S    
C40   C42   1.393038 A    
O31   C15   1.273010 A    
C58   C62   1.365237 A    
C81   H33   1.083046 S    
C63   H23   1.081664 S    
C28   C32   1.426500 A    
O23   C11   1.269546 A    
C100  C104  1.417361 A    
N5    O62   1.300916 A    
O33   Cr5   2.061085 S    
C9    C65   1.467852 S    
N3    O58   1.301521 A    
O10   Cr6   2.066711 S    
O42   Cr10  2.062155 S    
N4    O59   1.301578 A    
C51   C55   1.399990 A    
C51   H15   1.081868 S    
O4    Cr4   2.061466 S    
O6    C2    1.298992 A    
C70   H26   1.083537 S    
C97   N1    1.439493 S    
C82   C86   1.369933 A    
C1    C56   1.447353 S    
C80   H32   1.083338 S    
C16   O36   1.260854 A    
C47   N7    1.437802 S    
O46   C22   1.267027 A    
C50   C54   1.406340 A    
C96   C100  1.399808 A    
H4    C36   1.083313 S    
C28   C35   1.392479 A    
N7    O65   1.301541 A    
C50   H14   1.083483 S    
O45   Cr9   1.950922 S    
C87   C91   1.390788 A    
O41   Cr9   2.063371 S    
C86   H38   1.083311 S    
C64   C68   1.402223 A    
O38   Cr6   1.946691 S    
C60   H20   1.080071 S    
O36   Cr8   2.067382 S    
C100  N4    1.436919 S    
C48   N8    1.438327 S    
O16   C8    1.273930 A    
Cr9   O49   1.964724 S    
C19   C76   1.448666 S    
C84   H36   1.083346 S    
C70   C73   1.401897 A    
N5    O61   1.301541 A    
