data_str_m9_o16_o24_f0_sra.sym.12
_audit_creation_date              2012-12-11T15:13:40-0500
_audit_creation_method            fapswitch 2.2
_symmetry_space_group_name_H-M    P1
_symmetry_Int_Tables_number       1
_space_group_crystal_system       triclinic
_cell_length_a                    6.958297
_cell_length_b                    13.667758
_cell_length_c                    20.049201
_cell_angle_alpha                 104.188477
_cell_angle_beta                  90.128272
_cell_angle_gamma                 90.267186
_cell_volume                      1848.56774717

loop_
_atom_site_label
_atom_site_type_symbol
_atom_type_description
_atom_site_fract_x
_atom_site_fract_y
_atom_site_fract_z
_atom_type_partial_charge
O1    O     O_R   0.506780 0.600060 0.449950 -0.543126
O2    O     O_R   0.179840 0.597110 0.589410 -0.540170
O3    O     O_R   0.004570 0.399940 0.550050 -0.543104
C1    C     C_R   0.347277 0.612779 0.618643 0.691498
O4    O     O_R   0.177380 0.612160 0.452890 -0.539902
O5    O     O_R   0.002100 0.415100 0.412560 -0.541705
C2    C     C_R   0.346238 0.639054 0.436708 0.703538
O6    O     O_R   0.509250 0.584900 0.587440 -0.545156
O7    O     O_3   0.337570 0.435330 0.486930 -0.366338
V1    V     V_3+5 0.064650 0.512000 0.502430 1.507730
O8    O     O_R   0.672090 0.402890 0.410590 -0.536779
C3    C     C_R   0.840598 0.381026 0.383144 0.753702
O9    O     O_R   0.674540 0.387840 0.547110 -0.535902
C4    C     C_R   0.843053 0.365800 0.566591 0.728222
V2    V     V_3+5 0.564040 0.488000 0.497570 1.508787
O10   O     O_3   0.840990 0.564670 0.513070 -0.371785
C5    C     C_R   0.900038 0.118689 0.609526 -0.061102
H1    H     H_    0.900701 0.169491 0.517322 0.213349
H2    H     H_    0.926832 0.042628 0.580216 0.212321
C6    C     C_R   0.853766 0.290843 0.606397 -0.044014
C7    C     C_R   0.851102 0.321081 0.936994 -0.170993
C8    C     C_R   0.844948 0.397942 0.902626 -0.123875
C9    C     C_R   0.847207 0.375518 0.830868 -0.142416
C10   C     C_R   0.854715 0.274317 0.791294 0.082640
C11   C     C_R   0.860615 0.196442 0.827028 0.014996
C12   C     C_R   0.859313 0.247714 0.717698 0.021913
C13   C     C_R   0.880472 0.144423 0.681731 0.009429
C14   C     C_R   0.879037 0.068904 0.718268 0.419494
C15   C     C_R   0.866970 0.095681 0.789724 -0.309078
C16   C     C_R   0.842571 0.319928 0.678161 -0.202529
C17   C     C_R   0.886410 0.191244 0.572579 -0.150023
C18   C     C_R   0.859200 0.220334 0.899945 -0.042403
H3    H     H_    0.819576 0.398918 0.701226 0.084855
H4    H     H_    0.850250 0.340209 0.992742 0.095000
H5    H     H_    0.845695 0.439190 0.808122 0.098073
H6    H     H_    0.839620 0.475814 0.931865 0.116866
H7    H     H_    0.861396 0.037273 0.817100 0.137427
C19   C     C_3   0.699414 0.189879 0.238927 -0.169519
C20   C     C_3   0.851216 0.195422 0.295711 0.529042
H8    H     H_    0.570503 0.140139 0.230457 0.127420
C21   C     C_3   0.849421 0.310957 0.312440 -0.114177
C22   C     C_3   0.698142 0.307014 0.255343 -0.192614
C23   C     C_3   0.862143 0.304894 0.202649 -0.132599
C24   C     C_3   0.013334 0.309484 0.260380 -0.185387
C25   C     C_3   0.015410 0.192414 0.243918 -0.167940
C26   C     C_3   0.863702 0.188763 0.187242 -0.078851
H9    H     H_    0.567418 0.354484 0.260157 0.121972
H10   H     H_    0.866693 0.349814 0.163442 0.108919
H11   H     H_    0.142698 0.358904 0.269279 0.122559
H12   H     H_    0.145622 0.144600 0.239425 0.128824
C27   C     C_3   0.467840 0.774778 0.710998 -0.009746
C28   C     C_3   0.292308 0.829424 0.749322 -0.090388
H13   H     H_    0.251805 0.907286 0.748171 0.159796
H14   H     H_    0.549591 0.799078 0.670917 0.225555
C29   C     C_3   0.358551 0.801347 0.815301 -0.065026
C30   C     C_3   0.535882 0.746808 0.777572 -0.070240
C31   C     C_3   0.418875 0.647240 0.756963 -0.181734
C32   C     C_3   0.241930 0.702112 0.795882 -0.176494
C33   C     C_3   0.174972 0.729815 0.729086 -0.073696
C34   C     C_3   0.352027 0.676784 0.691299 -0.075731
H15   H     H_    0.684088 0.752225 0.798763 0.132652
H16   H     H_    0.471622 0.571635 0.759346 0.111583
H17   H     H_    0.147703 0.672721 0.831216 0.110465
H18   H     H_    0.028021 0.716367 0.707286 0.175662
C35   C     C_R   0.356910 0.891489 0.393817 -0.110271
H19   H     H_    0.353038 0.841551 0.487300 0.160009
H20   H     H_    0.359097 0.016991 0.311792 0.181205
H21   H     H_    0.357413 0.970470 0.421113 0.175534
C36   C     C_R   0.354583 0.716293 0.397637 -0.043218
C37   C     C_R   0.356367 0.683475 0.066870 -0.169494
C38   C     C_R   0.352561 0.607271 0.101646 -0.122837
C39   C     C_R   0.352073 0.630730 0.173307 -0.155749
C40   C     C_R   0.354973 0.732362 0.212430 0.082955
C41   C     C_R   0.357089 0.810252 0.176328 0.064699
C42   C     C_R   0.355997 0.759252 0.285997 0.067128
C43   C     C_R   0.357147 0.863046 0.321579 0.108525
C44   C     C_R   0.358125 0.937782 0.284984 -0.082151
C45   C     C_R   0.358582 0.912005 0.213584 -0.179907
C46   C     C_R   0.355586 0.686807 0.325750 -0.215655
C47   C     C_R   0.354889 0.818465 0.431600 -0.142181
C48   C     C_R   0.358458 0.784597 0.103395 -0.065857
H22   H     H_    0.354605 0.606816 0.302762 0.087423
H23   H     H_    0.357971 0.663555 0.011112 0.099166
H24   H     H_    0.349288 0.567311 0.196245 0.101658
H25   H     H_    0.350611 0.529117 0.072808 0.118625
H26   H     H_    0.359842 0.972892 0.187759 0.105762
O11   O     O_R   0.203580 0.914920 0.912610 -0.543727
O12   O     O_R   0.535710 0.887810 0.047120 -0.540492
O13   O     O_R   0.710730 0.084950 0.087430 -0.541453
C49   C     C_R   0.367037 0.861895 0.064134 0.684408
O14   O     O_R   0.533010 0.902850 0.910600 -0.540281
O15   O     O_R   0.708010 0.100090 0.949930 -0.536719
C50   C     C_R   0.364312 0.877217 0.884334 0.686926
O16   O     O_R   0.206300 0.899780 0.050100 -0.539501
O17   O     O_3   0.375170 0.064580 0.013100 -0.371289
V3    V     V_3+5 0.648200 0.988020 0.997570 1.434900
O18   O     O_R   0.038030 0.112330 0.952840 -0.541790
C51   C     C_R   0.868730 0.141214 0.938331 0.678650
O19   O     O_R   0.040730 0.097300 0.089360 -0.545157
C52   C     C_R   0.872290 0.118889 0.116769 0.714485
V4    V     V_3+5 0.148780 0.012220 0.002360 1.422969
O20   O     O_3   0.871930 0.935430 0.986900 -0.372982
S1    S     S_3+6 0.877598 0.939396 0.675757 -0.070853
O21   O     O_2   0.721474 0.920162 0.622116 -0.342368
O22   O     O_2   0.066805 0.910219 0.640689 -0.357586
O23   O     O_3   0.834307 0.869401 0.732058 -0.547321
H27   H     H_    0.934283 0.886630 0.767942 0.301858
S2    S     S_3+6 0.847907 0.118641 0.355549 -0.069953
O24   O     O_2   0.033266 0.133412 0.395427 -0.369671
O25   O     O_2   0.681058 0.148048 0.403634 -0.363654
O26   O     O_3   0.825629 0.997007 0.312502 -0.518655
H28   H     H_    0.822110 0.958845 0.348605 0.364137

loop_
_geom_bond_atom_site_label_1
_geom_bond_atom_site_label_2
_ccdc_geom_bond_type
C24   H11   S    
C29   C30   S    
O12   V3    S    
C42   C43   A    
V4    O20   S    
V3    O20   S    
C21   C22   S    
O17   V3    S    
H20   C44   S    
C1    O6    A    
O18   C51   A    
O15   C51   A    
C31   H16   S    
C20   C21   S    
C6    C16   A    
C44   C45   A    
C30   C31   S    
C12   C13   A    
C35   C43   A    
C14   C15   A    
C10   C12   A    
C19   C22   S    
O5    C3    A    
C19   C20   S    
O23   H27   S    
V2    O10   S    
O15   V3    S    
S2    O24   D    
C27   C30   S    
C40   C41   A    
C37   C48   A    
O14   V3    S    
C38   H25   S    
O8    V2    S    
O26   H28   S    
O16   V4    S    
S2    O25   D    
C9    C10   A    
C37   C38   A    
O1    V2    S    
C23   H10   S    
C28   C29   S    
C29   C50   S    
C20   C25   S    
C45   H26   S    
C11   C18   A    
C33   C34   S    
C35   C47   A    
O11   V4    S    
O9    C4    A    
C40   C42   A    
C49   O16   A    
C8    C9    A    
C11   C15   A    
C20   S2    S    
C7    C18   A    
O13   C52   A    
C27   C28   S    
C5    C13   A    
C4    C6    S    
C10   C11   A    
O4    C2    A    
C31   C34   S    
C7    H4    S    
C32   C33   S    
C25   C26   S    
O2    C1    A    
C23   C24   S    
C2    C36   S    
C3    C21   S    
C28   C33   S    
O14   C50   A    
O19   C52   A    
C35   H21   S    
C1    C34   S    
C33   H18   S    
S1    O22   D    
C43   C44   A    
C37   H23   S    
C39   H24   S    
O3    C4    A    
C48   C49   S    
O19   V4    S    
O12   C49   A    
C12   C16   A    
O6    V2    S    
C9    H5    S    
O9    V2    S    
C5    C17   A    
C21   C24   S    
C36   C46   A    
C22   C23   S    
C41   C48   A    
O2    V1    S    
S1    O21   D    
C8    H6    S    
C28   H13   S    
O7    V1    S    
C32   H17   S    
C26   C52   S    
C16   H3    S    
O1    C2    A    
C24   C25   S    
C39   C40   A    
O5    V1    S    
C46   H22   S    
O8    C3    A    
H1    C17   S    
H19   C47   S    
S2    O26   S    
C27   H14   S    
O13   V3    S    
O7    V2    S    
C38   C39   A    
O3    V1    S    
V1    O10   S    
C19   H8    S    
C14   S1    S    
C31   C32   S    
C25   H12   S    
O11   C50   A    
C5    H2    S    
C18   C51   S    
S1    O23   S    
C22   H9    S    
C23   C26   S    
C19   C26   S    
O4    V1    S    
C41   C45   A    
C29   C32   S    
C15   H7    S    
C13   C14   A    
C30   H15   S    
C36   C47   A    
C27   C34   S    
C7    C8    A    
C42   C46   A    
O18   V4    S    
O17   V4    S    
C6    C17   A    
