data_str_m12_o4_o9_f0_bcu.sym.89
_audit_creation_date              2012-12-11T17:10:40-0500
_audit_creation_method            fapswitch 2.2
_symmetry_space_group_name_H-M    P1
_symmetry_Int_Tables_number       1
_space_group_crystal_system       triclinic
_cell_length_a                    14.793191
_cell_length_b                    14.847573
_cell_length_c                    14.87655
_cell_angle_alpha                 109.615001
_cell_angle_beta                  109.73596
_cell_angle_gamma                 109.047086
_cell_volume                      2515.7525995

loop_
_atom_site_label
_atom_site_type_symbol
_atom_type_description
_atom_site_fract_x
_atom_site_fract_y
_atom_site_fract_z
_atom_type_partial_charge
C1    C     C_R   0.184729 0.277845 0.251944 -0.119879
C2    C     C_R   0.451242 0.449664 0.776712 0.073540
C3    C     C_R   0.563877 0.195920 0.499177 0.095404
C4    C     C_R   0.201405 0.576812 0.497050 0.068631
C5    C     C_R   0.477671 0.722024 0.408219 -0.139691
C6    C     C_R   0.816186 0.563652 0.592344 -0.127939
C7    C     C_R   0.494607 0.402396 0.195632 -0.159044
C8    C     C_R   0.708852 0.800558 0.804025 -0.100309
C9    C     C_R   0.800990 0.708962 0.804699 -0.112828
C10   C     C_R   0.404321 0.495488 0.194881 -0.136915
C11   C     C_R   0.566896 0.814979 0.592422 -0.108234
C12   C     C_R   0.525528 0.432484 0.746712 -0.145153
C13   C     C_R   0.723108 0.473159 0.407943 -0.123851
C14   C     C_R   0.556147 0.825298 0.500405 0.097209
C15   C     C_R   0.827736 0.550036 0.500156 0.067667
C16   C     C_R   0.433769 0.432400 0.131226 0.079952
C17   C     C_R   0.802135 0.802096 0.868447 0.061609
C18   C     C_R   0.095776 0.598825 0.178516 -0.133211
C19   C     C_R   0.098592 0.623435 0.279092 -0.146396
C20   C     C_R   0.019919 0.545809 0.286063 0.122439
C21   C     C_R   0.937671 0.443802 0.190304 -0.189821
C22   C     C_R   0.935148 0.419736 0.089907 -0.091373
C23   C     C_R   0.502096 0.198523 0.408091 -0.147485
C24   C     C_R   0.014168 0.497091 0.084044 -0.094278
C25   C     C_R   0.927921 0.557318 0.396860 -0.232756
C26   C     C_R   0.931060 0.598175 0.498022 0.032647
C27   C     C_R   0.034281 0.679929 0.594307 -0.005052
C28   C     C_R   0.131690 0.690248 0.592067 -0.010982
C29   C     C_R   0.122557 0.619426 0.493544 -0.004183
C30   C     C_R   0.024068 0.572359 0.393343 0.024907
C31   C     C_R   0.990022 0.825693 0.674504 -0.141075
C32   C     C_R   0.999404 0.907234 0.764463 -0.089202
C33   C     C_R   0.060071 0.927215 0.870839 -0.075840
C34   C     C_R   0.292005 0.599959 0.589464 -0.141634
C35   C     C_R   0.109536 0.864105 0.887255 -0.129063
C36   C     C_R   0.099996 0.782078 0.797437 -0.176203
C37   C     C_R   0.041251 0.763135 0.690316 0.133138
C38   C     C_R   0.450118 0.344579 0.876271 0.163871
C39   C     C_R   0.406068 0.400539 0.832582 0.030850
C40   C     C_R   0.332643 0.425537 0.861855 -0.194671
C41   C     C_R   0.328633 0.422013 0.953376 -0.191350
C42   C     C_R   0.397435 0.392630 0.014421 0.030582
C43   C     C_R   0.445315 0.340241 0.965759 0.167104
C44   C     C_3   0.557443 0.350925 0.014836 -0.523821
C45   C     C_R   0.595212 0.290089 0.591132 -0.146218
C46   C     C_3   0.563269 0.356381 0.917597 -0.515853
C47   C     C_R   0.540278 0.920668 0.397556 0.091658
C48   C     C_R   0.601542 0.926375 0.496212 -0.047910
C49   C     C_R   0.676351 0.030924 0.592392 0.319827
C50   C     C_R   0.670528 0.123016 0.592505 -0.260939
C51   C     C_R   0.595452 0.112381 0.496146 -0.008882
C52   C     C_R   0.536882 0.012762 0.397456 0.141915
C53   C     C_3   0.554488 0.992275 0.300928 -0.494041
C54   C     C_3   0.559079 0.892726 0.301554 -0.459121
C55   C     C_R   0.972676 0.075691 0.119447 0.144151
C56   C     C_R   0.201578 0.507556 0.407426 -0.145236
C57   C     C_R   0.069577 0.073006 0.169363 0.038121
C58   C     C_R   0.067116 0.971378 0.135744 -0.206961
C59   C     C_R   0.973101 0.876768 0.043158 -0.195313
C60   C     C_R   0.881038 0.883380 0.984210 0.024524
C61   C     C_R   0.878958 0.981450 0.027290 0.181019
C62   C     C_3   0.806205 0.999843 0.072179 -0.508939
C63   C     C_3   0.908104 0.102144 0.172336 -0.485748
C64   C     C_R   0.435334 0.527288 0.751025 -0.127488
C65   C     C_R   0.277048 0.185005 0.251339 -0.126378
C66   C     C_R   0.173748 0.174737 0.226424 0.052232
H1    H     H_    0.120428 0.299429 0.242086 0.105588
H2    H     H_    0.879728 0.613728 0.677967 0.113625
H3    H     H_    0.513536 0.337528 0.167483 0.102241
H4    H     H_    0.675989 0.852360 0.832223 0.096581
H5    H     H_    0.853250 0.676419 0.832818 0.086691
H6    H     H_    0.343126 0.518939 0.166122 0.087769
H7    H     H_    0.615684 0.878461 0.677811 0.151235
H8    H     H_    0.699535 0.441323 0.322156 0.092210
H9    H     H_    0.012177 0.478180 0.006282 0.108430
H10   H     H_    0.156929 0.658651 0.173844 0.106374
H11   H     H_    0.162334 0.702623 0.351629 0.115091
H12   H     H_    0.552906 0.374248 0.749547 0.111659
H13   H     H_    0.876714 0.382313 0.193663 0.112668
H14   H     H_    0.872108 0.340905 0.016680 0.131213
H15   H     H_    0.850855 0.512491 0.319889 0.123524
H16   H     H_    0.943993 0.812188 0.592661 0.123999
H17   H     H_    0.960367 0.955539 0.751810 0.166837
H18   H     H_    0.068288 0.991328 0.940422 0.124818
H19   H     H_    0.155367 0.878829 0.969635 0.107674
H20   H     H_    0.137643 0.733005 0.811296 0.106105
H21   H     H_    0.289838 0.461214 0.824450 0.127301
H22   H     H_    0.478103 0.146413 0.323715 0.095340
H23   H     H_    0.282957 0.455229 0.983162 0.126094
H24   H     H_    0.619862 0.429182 0.094104 0.201271
H25   H     H_    0.553691 0.275145 0.015491 0.191423
H26   H     H_    0.629005 0.438024 0.942564 0.202449
H27   H     H_    0.563619 0.284072 0.862771 0.195293
H28   H     H_    0.722416 0.201472 0.668455 0.160287
H29   H     H_    0.480928 0.970986 0.226547 0.178734
H30   H     H_    0.634353 0.057737 0.321736 0.201899
H31   H     H_    0.488538 0.813877 0.227267 0.179198
H32   H     H_    0.324899 0.658305 0.674271 0.085267
H33   H     H_    0.641789 0.899887 0.323268 0.202791
H34   H     H_    0.140323 0.966153 0.173782 0.124512
H35   H     H_    0.976864 0.801683 0.012998 0.126823
H36   H     H_    0.747059 0.017752 0.022104 0.193174
H37   H     H_    0.768294 0.934942 0.090222 0.199488
H38   H     H_    0.908022 0.179305 0.180291 0.188709
H39   H     H_    0.930137 0.097295 0.249193 0.202509
H40   H     H_    0.656143 0.321825 0.675358 0.090488
H41   H     H_    0.151674 0.479494 0.321795 0.120337
H42   H     H_    0.381757 0.559512 0.761916 0.093419
H43   H     H_    0.298686 0.120978 0.240325 0.091697
H44   H     H_    0.447796 0.700172 0.322838 0.106145
N1    N     N_R   0.291070 0.347930 0.293870 -0.041085
N2    N     N_R   0.708930 0.502750 0.556810 -0.042281
N3    N     N_R   0.502760 0.445970 0.293860 -0.037706
N4    N     N_R   0.652110 0.708890 0.706130 -0.042174
N5    N     N_R   0.708930 0.652070 0.706130 -0.041073
N6    N     N_R   0.445950 0.502780 0.293850 -0.036980
N7    N     N_R   0.502760 0.708900 0.556790 -0.050747
N8    N     N_R   0.652110 0.445950 0.443190 -0.040692
N9    N     N_R   0.554050 0.497220 0.706150 -0.041662
N10   N     N_R   0.497240 0.291100 0.443210 -0.038750
N11   N     N_R   0.347890 0.554050 0.556810 -0.038416
N12   N     N_R   0.554050 0.347900 0.556830 -0.038924
N13   N     N_R   0.291070 0.497250 0.443190 -0.040807
N14   N     N_R   0.497240 0.554030 0.706140 -0.042321
N15   N     N_R   0.347890 0.291110 0.293870 -0.040145
N16   N     N_R   0.445950 0.652100 0.443170 -0.042621
Ni1   Ni    Ni4+2 0.369690 0.500010 0.369700 0.216893
Ni2   Ni    Ni4+2 0.630310 0.499990 0.630300 0.210485
Ni3   Ni    Ni4+2 0.500000 0.369720 0.369720 0.210164
Ni4   Ni    Ni4+2 0.500000 0.630280 0.630280 0.206400
N17   N     N_3   0.236855 0.782041 0.683163 -0.206715
H45   H     H_    0.263293 0.762840 0.745121 0.089502
H46   H     H_    0.295553 0.799242 0.658228 0.108527
Br1   Br    Br    0.790757 0.054847 0.723002 -0.659577

loop_
_geom_bond_atom_site_label_1
_geom_bond_atom_site_label_2
_ccdc_geom_bond_type
C41   H23   S    
C49   Br1   S    
C40   C41   A    
N16   Ni1   S    
C53   H29   S    
C41   C42   A    
C3    C23   A    
C35   C36   A    
C57   C66   S    
C2    C12   A    
N4    N5    A    
C44   H24   S    
C1    C66   A    
C20   C30   S    
N9    N14   A    
C52   C53   S    
C26   C27   A    
C29   C30   A    
C31   H16   S    
N3    Ni3   S    
C18   C24   A    
C40   H21   S    
C28   C29   A    
C38   C39   A    
C11   C14   A    
C46   H26   S    
C5    H44   S    
C18   C19   A    
C19   H11   S    
C34   H32   S    
C6    C15   A    
C2    C39   S    
C19   C20   A    
C44   C46   S    
N6    Ni1   S    
C55   C63   S    
C5    N16   A    
N1    N15   A    
C54   H31   S    
C63   H39   S    
N7    N16   A    
N11   Ni4   S    
C4    C29   S    
C8    N4    A    
N3    N6    A    
N9    Ni2   S    
C6    H2    S    
C59   C60   A    
C21   C22   A    
C4    C56   A    
C53   H30   S    
C25   H15   S    
N4    Ni4   S    
C2    C64   A    
C64   H42   S    
C4    C34   A    
N11   N13   A    
N10   Ni3   S    
C59   H35   S    
C56   N13   A    
C13   N8    A    
C58   H34   S    
C11   H7    S    
C9    N5    A    
C23   N10   A    
C3    C51   S    
C50   H28   S    
C15   C26   S    
C14   C48   S    
C36   H20   S    
C58   C59   A    
C64   N14   A    
C3    C45   A    
N5    Ni2   S    
C31   C37   A    
C12   H12   S    
C60   C61   A    
C65   N15   A    
C43   C44   S    
C56   H41   S    
C62   C63   S    
C12   N9    A    
N13   Ni1   S    
C47   C48   A    
C21   H13   S    
C50   C51   A    
N14   Ni4   S    
C13   H8    S    
N7    Ni4   S    
C65   H43   S    
C5    C14   A    
C44   H25   S    
C47   C54   S    
C9    C17   A    
C7    C16   A    
C49   C50   A    
C34   N11   A    
C23   H22   S    
C13   C15   A    
N1    Ni1   S    
C22   C24   A    
C54   H33   S    
C42   C43   A    
N17   H45   S    
C11   N7    A    
C16   C42   S    
C39   C40   A    
C10   N6    A    
C45   H40   S    
N10   N12   A    
C62   H37   S    
C25   C30   A    
C32   H17   S    
C36   C37   A    
C18   H10   S    
C6    N2    A    
C31   C32   A    
C9    H5    S    
C63   H38   S    
N17   H46   S    
C7    H3    S    
C24   H9    S    
C53   C54   S    
C47   C52   A    
C1    H1    S    
C45   N12   A    
C8    H4    S    
C8    C17   A    
C28   N17   S    
C32   C33   A    
C7    N3    A    
C55   C57   A    
C25   C26   A    
C22   H14   S    
C51   C52   A    
N8    Ni3   S    
C10   C16   A    
C1    N1    A    
C38   C46   S    
N2    N8    A    
C35   H19   S    
C57   C58   A    
C46   H27   S    
C27   C37   S    
C48   C49   A    
C55   C61   A    
C33   C35   A    
N12   Ni2   S    
C61   C62   S    
C33   H18   S    
N2    Ni2   S    
C17   C60   S    
N15   Ni3   S    
C38   C43   A    
C20   C21   A    
C65   C66   A    
C27   C28   A    
C62   H36   S    
C10   H6    S    
