data_str_m4_o11_o15_f0_acs.sym.122
_audit_creation_date              2012-12-11T14:03:51-0500
_audit_creation_method            fapswitch 2.2
_symmetry_space_group_name_H-M    P1
_symmetry_Int_Tables_number       1
_space_group_crystal_system       triclinic
_cell_length_a                    18.965158
_cell_length_b                    11.06961
_cell_length_c                    18.802187
_cell_angle_alpha                 89.48703
_cell_angle_beta                  89.197319
_cell_angle_gamma                 89.640684
_cell_volume                      3946.65281452

loop_
_atom_site_label
_atom_site_type_symbol
_atom_type_description
_atom_site_fract_x
_atom_site_fract_y
_atom_site_fract_z
_atom_type_partial_charge
C1    C     C_R   0.240136 0.467894 0.646445 0.578319
C2    C     C_R   0.759913 0.468008 0.353910 0.592101
C3    C     C_R   0.740136 0.967894 0.646445 0.578319
C4    C     C_R   0.259913 0.968008 0.353910 0.592105
C5    C     C_2   0.279254 0.828690 0.535184 -0.159310
C6    C     C_2   0.720573 0.834006 0.465003 -0.153998
C7    C     C_2   0.779255 0.328692 0.535184 -0.159311
C8    C     C_2   0.220574 0.334005 0.465003 -0.153996
C9    C     C_R   0.000896 0.659749 0.427547 -0.031926
C10   C     C_R   0.990729 0.670149 0.577618 -0.027998
C11   C     C_R   0.500895 0.159749 0.427548 -0.031926
C12   C     C_R   0.490728 0.170149 0.577619 -0.027996
C13   C     C_R   0.019826 0.879257 0.423279 -0.022927
C14   C     C_R   0.996873 0.893231 0.569623 -0.047872
C15   C     C_R   0.519824 0.379258 0.423280 -0.022938
C16   C     C_R   0.496871 0.393231 0.569624 -0.047871
C17   C     C_R   0.019413 0.990569 0.456515 -0.089642
C18   C     C_R   0.007550 0.998009 0.529446 -0.091592
C19   C     C_R   0.519410 0.490569 0.456516 -0.089651
C20   C     C_R   0.507547 0.498009 0.529447 -0.091590
C21   C     C_R   0.998058 0.778505 0.537230 0.031819
C22   C     C_R   0.005698 0.772423 0.462047 0.029153
C23   C     C_R   0.498056 0.278505 0.537231 0.031821
C24   C     C_R   0.505696 0.272423 0.462048 0.029155
C25   C     C_R   0.977118 0.562325 0.541780 0.013354
C26   C     C_R   0.997237 0.553290 0.469985 0.013119
C27   C     C_R   0.477117 0.062326 0.541781 0.013355
C28   C     C_R   0.497235 0.053290 0.469986 0.013118
C29   C     C_R   0.951261 0.459118 0.578001 -0.055304
C30   C     C_R   0.010832 0.436936 0.442780 -0.040698
C31   C     C_R   0.451259 0.959119 0.578002 -0.055305
C32   C     C_R   0.510829 0.936936 0.442781 -0.040700
C33   C     C_R   0.958290 0.345709 0.547690 -0.097968
C34   C     C_R   0.990940 0.334689 0.481359 -0.101538
C35   C     C_R   0.458287 0.845709 0.547691 -0.097969
C36   C     C_R   0.490936 0.834689 0.481360 -0.101539
C37   C     C_2   0.207489 0.806122 0.937730 -0.006601
C38   C     C_2   0.763369 0.902102 0.068332 0.044892
C39   C     C_2   0.707489 0.306122 0.937730 -0.006600
C40   C     C_2   0.263369 0.402102 0.068332 0.044892
C41   C     C_2   0.250057 0.916551 0.078392 0.308203
C42   C     C_2   0.758518 0.876917 0.906173 0.242956
C43   C     C_2   0.750057 0.416551 0.078392 0.308202
C44   C     C_2   0.258518 0.376917 0.906173 0.242956
C45   C     C_R   0.228829 0.875702 0.648765 0.610878
C46   C     C_R   0.771072 0.875711 0.350816 0.601386
C47   C     C_R   0.728829 0.375702 0.648765 0.610877
C48   C     C_R   0.271072 0.375711 0.350816 0.601387
C49   C     C_2   0.184045 0.883391 0.059542 0.112495
C50   C     C_2   0.818395 0.898225 0.941855 -0.069361
C51   C     C_2   0.684045 0.383391 0.059542 0.112495
C52   C     C_2   0.318395 0.398225 0.941855 -0.069361
C53   C     C_2   0.166051 0.873002 0.983005 -0.013275
C54   C     C_2   0.820511 0.908045 0.021458 -0.086915
C55   C     C_2   0.666051 0.373002 0.983005 -0.013274
C56   C     C_2   0.320511 0.408045 0.021458 -0.086915
C57   C     C_2   0.006281 0.654153 0.924731 -0.098969
C58   C     C_2   0.006703 0.657377 0.081040 -0.076206
C59   C     C_2   0.506281 0.154152 0.924731 -0.098969
C60   C     C_2   0.506703 0.157377 0.081040 -0.076206
C61   C     C_2   0.010331 0.557261 0.042129 -0.117918
C62   C     C_2   0.024658 0.560673 0.966802 -0.154768
C63   C     C_2   0.510331 0.057261 0.042129 -0.117918
C64   C     C_2   0.524658 0.060673 0.966802 -0.154768
C65   C     C_R   0.026745 0.656643 0.646993 0.541684
C66   C     C_R   0.971687 0.653994 0.354473 0.538313
C67   C     C_R   0.526745 0.156643 0.646993 0.541685
C68   C     C_R   0.471687 0.153994 0.354473 0.538312
C69   C     C_R   0.240525 0.459381 0.847483 0.604658
C70   C     C_R   0.761457 0.466987 0.148914 0.580683
C71   C     C_R   0.740525 0.959381 0.847483 0.604658
C72   C     C_R   0.261457 0.966987 0.148914 0.580683
C73   C     C_R   0.205191 0.818768 0.859008 0.524488
C74   C     C_R   0.776011 0.867931 0.143517 0.595359
C75   C     C_R   0.705191 0.318768 0.859008 0.524488
C76   C     C_R   0.276011 0.367931 0.143517 0.595359
C77   C     C_R   0.030805 0.651297 0.851800 0.566797
C78   C     C_R   0.971468 0.651844 0.149637 0.565858
C79   C     C_R   0.530805 0.151297 0.851800 0.566797
C80   C     C_R   0.471468 0.151844 0.149637 0.565858
C81   C     C_2   0.256539 0.916405 0.580404 0.031871
C82   C     C_2   0.742886 0.919130 0.417990 0.028517
C83   C     C_2   0.756539 0.416406 0.580404 0.031871
C84   C     C_2   0.242886 0.419130 0.417990 0.028518
C85   C     C_2   0.242627 0.910728 0.422444 0.288425
C86   C     C_2   0.756880 0.908186 0.578792 0.287888
C87   C     C_2   0.742627 0.410727 0.422444 0.288426
C88   C     C_2   0.256880 0.408186 0.578792 0.287889
C89   C     C_2   0.291382 0.848890 0.458642 0.256899
C90   C     C_2   0.705283 0.860392 0.539747 0.263749
C91   C     C_2   0.791383 0.348892 0.458643 0.256900
C92   C     C_2   0.205283 0.360390 0.539748 0.263749
Cr1   Cr    Cr6+3 0.113970 0.508630 0.747920 1.101619
Cr2   Cr    Cr6+3 0.886030 0.508630 0.252080 1.104902
Cr3   Cr    Cr6+3 0.613970 0.008630 0.747920 1.101620
Cr4   Cr    Cr6+3 0.386030 0.008630 0.252080 1.104901
Cr5   Cr    Cr6+3 0.269200 0.666740 0.749850 1.029040
Cr6   Cr    Cr6+3 0.730800 0.666740 0.250150 1.073466
Cr7   Cr    Cr6+3 0.769200 0.166740 0.749850 1.029040
Cr8   Cr    Cr6+3 0.230800 0.166740 0.250150 1.073466
Cr9   Cr    Cr6+3 0.112300 0.820070 0.749800 1.063964
Cr10  Cr    Cr6+3 0.887700 0.820070 0.250200 1.091081
Cr11  Cr    Cr6+3 0.612300 0.320070 0.749800 1.063965
Cr12  Cr    Cr6+3 0.387700 0.320070 0.250200 1.091080
H1    H     H_    0.999418 0.468545 0.064734 0.209204
H2    H     H_    0.049738 0.479911 0.945511 0.194943
H3    H     H_    0.499418 0.968545 0.064734 0.209205
H4    H     H_    0.549738 0.979911 0.945511 0.194943
H5    H     H_    0.020569 0.743441 0.057961 0.062104
H6    H     H_    0.981249 0.735074 0.945294 0.087491
H7    H     H_    0.520569 0.243441 0.057961 0.062104
H8    H     H_    0.481249 0.235074 0.945294 0.087491
H9    H     H_    0.282144 0.735017 0.552831 0.119561
H10   H     H_    0.719527 0.739193 0.450479 0.116870
H11   H     H_    0.782147 0.235018 0.552832 0.119562
H12   H     H_    0.219529 0.239191 0.450480 0.116863
H13   H     H_    0.031073 0.069994 0.425055 0.093686
H14   H     H_    0.007586 0.084802 0.555267 0.109159
H15   H     H_    0.531069 0.569995 0.425056 0.093685
H16   H     H_    0.507582 0.584802 0.555268 0.109160
H17   H     H_    0.034162 0.877618 0.367418 0.150776
H18   H     H_    0.984672 0.903767 0.625563 0.139055
H19   H     H_    0.534160 0.377619 0.367419 0.150774
H20   H     H_    0.484671 0.403767 0.625564 0.139055
H21   H     H_    0.036740 0.424246 0.391706 0.143215
H22   H     H_    0.928470 0.465884 0.631002 0.135323
H23   H     H_    0.536738 0.924245 0.391707 0.143216
H24   H     H_    0.428469 0.965885 0.631003 0.135324
H25   H     H_    0.940159 0.266457 0.576445 0.104489
H26   H     H_    0.998909 0.247222 0.458588 0.098788
H27   H     H_    0.440156 0.766458 0.576446 0.104490
H28   H     H_    0.498905 0.747222 0.458588 0.098790
O1    O     O_R   0.043230 0.549300 0.667990 -0.488397
O2    O     O_R   0.956770 0.549300 0.332010 -0.505536
O3    O     O_R   0.543230 0.049300 0.667990 -0.488395
O4    O     O_R   0.456770 0.049300 0.332010 -0.505537
O5    O     O_R   0.262920 0.788600 0.824420 -0.496534
O6    O     O_R   0.737080 0.788600 0.175580 -0.462773
O7    O     O_R   0.762920 0.288600 0.824420 -0.496534
O8    O     O_R   0.237080 0.288600 0.175580 -0.462773
O9    O     O_R   0.167530 0.905110 0.830340 -0.484741
O10   O     O_R   0.832470 0.905110 0.169660 -0.466449
O11   O     O_R   0.667530 0.405110 0.830340 -0.484741
O12   O     O_R   0.332470 0.405110 0.169660 -0.466450
O13   O     O_R   0.054010 0.748440 0.822860 -0.522679
O14   O     O_R   0.945990 0.748440 0.177140 -0.501943
O15   O     O_R   0.554010 0.248440 0.822860 -0.522679
O16   O     O_R   0.445990 0.248440 0.177140 -0.501943
O17   O     O_3   0.165160 0.665150 0.749190 -0.313149
O18   O     O_3   0.834840 0.665150 0.250810 -0.302092
O19   O     O_3   0.665160 0.165150 0.749190 -0.313149
O20   O     O_3   0.334840 0.165150 0.250810 -0.302093
O21   O     O_R   0.178620 0.457600 0.674100 -0.431997
O22   O     O_R   0.821380 0.457600 0.325900 -0.439067
O23   O     O_R   0.678620 0.957600 0.674100 -0.431996
O24   O     O_R   0.321380 0.957600 0.325900 -0.439070
O25   O     O_R   0.284680 0.542100 0.669460 -0.548388
O26   O     O_R   0.715320 0.542100 0.330540 -0.550899
O27   O     O_R   0.784680 0.042100 0.669460 -0.548387
O28   O     O_R   0.215320 0.042100 0.330540 -0.550895
O29   O     O_R   0.262860 0.790390 0.676650 -0.526130
O30   O     O_R   0.737140 0.790390 0.323350 -0.531099
O31   O     O_R   0.762860 0.290390 0.676650 -0.526130
O32   O     O_R   0.237140 0.290390 0.323350 -0.531100
O33   O     O_R   0.167460 0.907030 0.670940 -0.452611
O34   O     O_R   0.832540 0.907030 0.329060 -0.459452
O35   O     O_R   0.667460 0.407030 0.670940 -0.452609
O36   O     O_R   0.332540 0.407030 0.329060 -0.459452
O37   O     O_R   0.053950 0.750220 0.675100 -0.505691
O38   O     O_R   0.946050 0.750220 0.324900 -0.506530
O39   O     O_R   0.553950 0.250220 0.675100 -0.505691
O40   O     O_R   0.446050 0.250220 0.324900 -0.506529
O41   O     O_R   0.043300 0.547370 0.827390 -0.504922
O42   O     O_R   0.956700 0.547370 0.172610 -0.505507
O43   O     O_R   0.543300 0.047370 0.827390 -0.504922
O44   O     O_R   0.456700 0.047370 0.172610 -0.505506
O45   O     O_R   0.178690 0.455820 0.821860 -0.471932
O46   O     O_R   0.821310 0.455820 0.178140 -0.497364
O47   O     O_R   0.678690 0.955820 0.821860 -0.471932
O48   O     O_R   0.321310 0.955820 0.178140 -0.497363
O49   O     O_R   0.284750 0.540170 0.828860 -0.539171
O50   O     O_R   0.715250 0.540170 0.171140 -0.496757
O51   O     O_R   0.784750 0.040170 0.828860 -0.539171
O52   O     O_R   0.215250 0.040170 0.171140 -0.496757
O53   O     O_3   0.347922 0.796191 0.423602 -0.652808
H29   H     H_    0.367153 0.732370 0.455262 0.325333
O54   O     O_3   0.640586 0.831345 0.569602 -0.656743
H30   H     H_    0.615133 0.781714 0.534869 0.319502
O55   O     O_3   0.847924 0.296195 0.423603 -0.652808
H31   H     H_    0.867155 0.232374 0.455262 0.325333
O56   O     O_3   0.140587 0.331340 0.569603 -0.656744
H32   H     H_    0.115135 0.281707 0.534870 0.319500
C93   C     C_2   0.104003 0.944498 0.958625 0.204295
H33   H     H_    0.071993 0.913597 0.915332 0.141134
O57   O     O_2   0.087374 0.038670 0.987951 -0.466262
C94   C     C_2   0.892668 0.932168 0.047698 0.273519
H34   H     H_    0.934719 0.869318 0.036285 0.058139
O58   O     O_2   0.906173 0.027863 0.076212 -0.414638
C95   C     C_2   0.604003 0.444498 0.958625 0.204294
H35   H     H_    0.571993 0.413597 0.915332 0.141134
O59   O     O_2   0.587374 0.538670 0.987951 -0.466262
C96   C     C_2   0.392668 0.432168 0.047698 0.273519
H36   H     H_    0.434719 0.369318 0.036284 0.058139
O60   O     O_2   0.406173 0.527863 0.076212 -0.414638
O61   O     O_3   0.302380 0.929531 0.026690 -0.702811
H37   H     H_    0.344974 0.964301 0.048380 0.328141
O62   O     O_3   0.710040 0.790369 0.927339 -0.670509
H38   H     H_    0.733297 0.733739 0.961021 0.344066
O63   O     O_3   0.802380 0.429530 0.026690 -0.702811
H39   H     H_    0.844974 0.464299 0.048380 0.328141
O64   O     O_3   0.210040 0.290370 0.927339 -0.670509
H40   H     H_    0.233297 0.233739 0.961021 0.344065
C97   C     C_2   0.258561 0.713747 0.965412 0.248542
H41   H     H_    0.302250 0.682842 0.932493 0.159985
O65   O     O_2   0.252246 0.670295 0.024990 -0.507615
C98   C     C_2   0.689017 0.924944 0.047640 0.298590
H42   H     H_    0.676942 0.976775 0.000184 0.135570
O66   O     O_2   0.640065 0.889323 0.084929 -0.470193
C99   C     C_2   0.758561 0.213747 0.965412 0.248542
H43   H     H_    0.802250 0.182842 0.932493 0.159984
O67   O     O_2   0.752246 0.170295 0.024990 -0.507615
C100  C     C_2   0.189017 0.424944 0.047640 0.298591
H44   H     H_    0.176943 0.476775 0.000184 0.135570
O68   O     O_2   0.140065 0.389323 0.084929 -0.470194
O69   O     O_3   0.177790 0.931579 0.455215 -0.741493
H45   H     H_    0.155309 0.003439 0.433637 0.328032
O70   O     O_3   0.824426 0.913722 0.549665 -0.747524
H46   H     H_    0.856854 0.946975 0.585126 0.333689
O71   O     O_3   0.677790 0.431574 0.455215 -0.741491
H47   H     H_    0.655302 0.503422 0.433629 0.328035
O72   O     O_3   0.324426 0.413725 0.549664 -0.747524
H48   H     H_    0.356853 0.446980 0.585125 0.333689
C101  C     C_2   0.261534 0.047533 0.564600 0.238268
H49   H     H_    0.286517 0.079847 0.515870 0.091051
O73   O     O_2   0.239648 0.121105 0.607640 -0.466446
C102  C     C_2   0.736379 0.050608 0.430523 0.244054
H50   H     H_    0.718200 0.084977 0.481420 0.094738
O74   O     O_2   0.748468 0.122093 0.382170 -0.451740
C103  C     C_2   0.761532 0.547534 0.564600 0.238276
H51   H     H_    0.786514 0.579849 0.515870 0.091052
O75   O     O_2   0.739643 0.621105 0.607639 -0.466446
C104  C     C_2   0.236377 0.550607 0.430523 0.244054
H52   H     H_    0.218198 0.584976 0.481420 0.094736
O76   O     O_2   0.248464 0.622092 0.382170 -0.451740
C105  C     C_2   0.126411 0.868179 0.113413 0.233530
H53   H     H_    0.073942 0.902410 0.102817 0.140236
O77   O     O_2   0.137244 0.816581 0.169947 -0.477646
C106  C     C_2   0.884880 0.920019 0.899217 0.217188
H54   H     H_    0.926209 0.977618 0.918871 0.130520
O78   O     O_2   0.894134 0.871710 0.841612 -0.487698
C107  C     C_2   0.626411 0.368179 0.113413 0.233530
H55   H     H_    0.573942 0.402410 0.102817 0.140237
O79   O     O_2   0.637244 0.316581 0.169947 -0.477647
C108  C     C_2   0.384880 0.420019 0.899217 0.217188
H56   H     H_    0.426209 0.477618 0.918871 0.130520
O80   O     O_2   0.394134 0.371710 0.841612 -0.487698

loop_
_geom_bond_atom_site_label_1
_geom_bond_atom_site_label_2
_ccdc_geom_bond_type
Cr10  O38   S    
C7    C83   D    
Cr11  O35   S    
C6    C82   D    
C87   C91   D    
C58   H5    S    
C53   C93   S    
C14   C18   A    
Cr1   O17   S    
C35   C36   A    
C57   C77   S    
Cr3   O43   S    
C75   O11   A    
C13   H17   S    
Cr11  O15   S    
C57   C62   D    
Cr4   O4    S    
C73   O9    A    
O61   H37   S    
Cr8   O20   S    
C15   C19   A    
C74   O6    A    
C12   C23   A    
Cr9   O13   S    
C59   C64   D    
O71   H47   S    
C96   O60   D    
Cr6   O6    S    
C60   C63   D    
C14   H18   S    
C32   C36   A    
C14   C21   A    
C21   C22   A    
C103  H51   S    
C85   C89   D    
Cr1   O1    S    
C36   H28   S    
C38   C74   S    
C9    C22   A    
C107  O79   D    
C56   C96   S    
C90   O54   S    
C33   H25   S    
Cr4   O20   S    
C29   C33   A    
C11   C24   A    
Cr4   O24   S    
C5    C81   D    
C102  H50   S    
Cr10  O18   S    
Cr2   O46   S    
C7    H11   S    
C65   O1    A    
O70   H46   S    
Cr12  O16   S    
C9    C66   S    
C6    H10   S    
C52   C108  S    
Cr8   O8    S    
C59   H8    S    
C66   O2    A    
Cr3   O19   S    
Cr9   O9    S    
C70   O50   A    
C28   C32   A    
C39   C55   D    
Cr6   O26   S    
C102  O74   D    
C40   C56   D    
C48   O36   A    
Cr8   O52   S    
C104  O76   D    
C23   C24   A    
Cr12  O12   S    
Cr9   O37   S    
C8    C92   S    
C39   C75   S    
C61   H1    S    
C101  H49   S    
C18   H14   S    
Cr3   O23   S    
C93   H33   S    
C92   O56   S    
C17   H13   S    
Cr12  O40   S    
C37   C53   D    
C44   C52   D    
C1    C88   S    
C97   O65   D    
C74   O10   A    
C30   H21   S    
C19   H15   S    
C95   H35   S    
Cr10  O34   S    
C46   C82   S    
C105  H53   S    
C3    C86   S    
Cr11  O39   S    
C86   O70   S    
Cr7   O7    S    
C61   C62   S    
C31   H24   S    
C50   C106  S    
C106  H54   S    
C45   O29   A    
C37   C97   S    
C69   O49   A    
Cr6   O30   S    
C106  O78   D    
C9    C26   A    
C17   C18   A    
C76   O8    A    
C10   C21   A    
C25   C29   A    
C12   C67   S    
C83   C103  S    
C54   C94   S    
C96   H36   S    
C30   C34   A    
C12   C27   A    
C27   C31   A    
O62   H38   S    
C88   C92   D    
C2    C87   S    
C98   H42   S    
C91   O55   S    
O63   H39   S    
C86   C90   D    
C59   C79   S    
C99   H43   S    
C78   O14   A    
C70   O46   A    
C79   O15   A    
C4    C85   S    
C93   O57   D    
C25   C26   A    
C97   H41   S    
Cr7   O19   S    
Cr1   O21   S    
C103  O75   D    
C47   C83   S    
C48   C84   S    
C65   O37   A    
Cr5   O25   S    
Cr6   O50   S    
C67   O3    A    
C108  H56   S    
C79   O43   A    
C99   O67   D    
C47   O35   A    
Cr8   O28   S    
C108  O80   D    
O64   H40   S    
C38   C54   D    
C68   O4    A    
C16   C20   A    
C7    C91   S    
Cr3   O3    S    
O69   H45   S    
C107  H55   S    
C80   O44   A    
C42   O62   S    
Cr8   O32   S    
C5    H9    S    
C50   C54   S    
Cr4   O48   S    
C87   O71   S    
Cr9   O33   S    
C101  O73   D    
C72   O52   A    
C15   H19   S    
Cr2   O42   S    
C41   C72   S    
Cr7   O31   S    
C76   O12   A    
C10   C25   A    
C94   O58   D    
C15   C24   A    
C4    O24   A    
C42   C50   D    
C26   C30   A    
C16   C23   A    
Cr5   O29   S    
C105  O77   D    
C81   C101  S    
Cr7   O27   S    
C3    O23   A    
C72   O48   A    
C63   H3    S    
C35   H27   S    
C20   H16   S    
C51   C107  S    
C11   C68   S    
C32   H23   S    
C78   O42   A    
Cr6   O18   S    
C10   C65   S    
Cr3   O47   S    
O56   H32   S    
Cr5   O17   S    
C37   C73   S    
C100  O68   D    
C77   O41   A    
C46   O34   A    
C60   C80   S    
C8    C84   D    
C89   O53   S    
C66   O38   A    
C45   C81   S    
C38   C98   S    
C94   H34   S    
C39   C99   S    
Cr11  O11   S    
Cr4   O44   S    
C84   C104  S    
Cr12  O36   S    
C57   H6    S    
Cr5   O49   S    
C48   O32   A    
Cr11  O19   S    
C43   C70   S    
C41   C49   D    
C8    H12   S    
C13   C17   A    
C44   O64   S    
C67   O39   A    
Cr12  O20   S    
C19   C20   A    
C1    O25   A    
C16   H20   S    
C47   O31   A    
O54   H30   S    
C60   H7    S    
C6    C90   S    
Cr10  O14   S    
C69   O45   A    
Cr2   O22   S    
C68   O40   A    
C43   C51   D    
O53   H29   S    
C4    O28   A    
C77   O13   A    
C73   O5    A    
C11   C28   A    
C58   C61   D    
C49   C53   S    
C52   C56   S    
C104  H52   S    
C31   C35   A    
Cr1   O41   S    
C42   C71   S    
Cr2   O2    S    
C33   C34   A    
C13   C22   A    
C51   C55   S    
Cr9   O17   S    
C41   O61   S    
O55   H31   S    
C43   O63   S    
C49   C105  S    
Cr5   O5    S    
C1    O21   A    
C58   C78   S    
C3    O27   A    
C71   O47   A    
C63   C64   S    
C40   C76   S    
Cr2   O18   S    
C80   O16   A    
C88   O72   S    
C85   O69   S    
C2    O26   A    
C34   H26   S    
C2    O22   A    
C62   H2    S    
C46   O30   A    
C40   C100  S    
O72   H48   S    
C95   O59   D    
C44   C69   S    
C75   O7    A    
Cr7   O51   S    
Cr10  O10   S    
Cr1   O45   S    
C82   C102  S    
C29   H22   S    
C45   O33   A    
C100  H44   S    
C5    C89   S    
C98   O66   D    
C64   H4    S    
C55   C95   S    
C27   C28   A    
C71   O51   A    
