data_str_m2_o10_o28_f0_pcu.sym.75
_audit_creation_date              2012-12-10T16:50:18-0500
_audit_creation_method            fapswitch 2.2
_symmetry_space_group_name_H-M    P1
_symmetry_Int_Tables_number       1
_space_group_crystal_system       triclinic
_cell_length_a                    23.429513
_cell_length_b                    8.722584
_cell_length_c                    7.423318
_cell_angle_alpha                 102.466141
_cell_angle_beta                  93.777665
_cell_angle_gamma                 90.325082
_cell_volume                      1477.7793683

loop_
_atom_site_label
_atom_site_type_symbol
_atom_type_description
_atom_site_fract_x
_atom_site_fract_y
_atom_site_fract_z
_atom_type_partial_charge
C1    C     C_R   0.497263 0.201052 0.456387 0.884215
C2    C     C_R   0.502795 0.799303 0.545097 0.849773
C3    C     C_R   0.237650 0.586063 0.646367 -0.146014
C4    C     C_R   0.767488 0.416551 0.470265 -0.125997
C5    C     C_R   0.297640 0.583487 0.661562 0.299171
C6    C     C_R   0.709217 0.387967 0.477746 0.388689
C7    C     C_R   0.327400 0.512921 0.504773 -0.152312
C8    C     C_R   0.670876 0.513452 0.482740 -0.157597
C9    C     C_R   0.295608 0.455994 0.335439 -0.158456
C10   C     C_R   0.691544 0.658327 0.457114 -0.224605
C11   C     C_R   0.236618 0.469787 0.319984 -0.068392
C12   C     C_R   0.749113 0.679051 0.427809 -0.014247
C13   C     C_R   0.206932 0.532456 0.475639 0.248832
C14   C     C_R   0.787882 0.558220 0.435914 0.200313
C15   C     C_2   0.486776 0.038562 0.442408 0.023321
C16   C     C_2   0.513036 0.963480 0.566338 0.057432
C17   C     C_R   0.390710 0.504692 0.503572 0.873263
C18   C     C_R   0.608958 0.496707 0.495183 0.898032
C19   C     C_R   0.879309 0.703581 0.498232 0.620206
C20   C     C_R   0.113767 0.408708 0.378536 0.611908
C21   C     C_R   0.873797 0.450815 0.296346 0.606339
C22   C     C_R   0.119664 0.681826 0.520524 0.579934
C23   C     C_R   0.933372 0.440426 0.307053 -0.093150
C24   C     C_R   0.059947 0.691843 0.507302 -0.099095
C25   C     C_R   0.966554 0.569807 0.404367 -0.068427
C26   C     C_R   0.026765 0.558601 0.418751 -0.067785
C27   C     C_R   0.939392 0.710115 0.486744 -0.140661
C28   C     C_R   0.053574 0.414329 0.346888 -0.137272
C29   C     C_R   0.959688 0.301058 0.227050 -0.144024
C30   C     C_R   0.033215 0.834336 0.575086 -0.112561
C31   C     C_R   0.018877 0.283603 0.248145 0.448712
C32   C     C_R   0.973687 0.847012 0.561252 0.454830
Cu1   Cu    Cu3+1 0.506340 0.517380 0.684380 1.137076
Cu2   Cu    Cu3+1 0.493660 0.482620 0.315620 1.115656
H1    H     H_    0.933381 0.202181 0.153419 0.260674
H2    H     H_    0.059028 0.937952 0.636694 0.267601
H3    H     H_    0.214489 0.634907 0.766321 0.200149
H4    H     H_    0.797128 0.323144 0.479153 0.217257
H5    H     H_    0.316463 0.402835 0.211878 0.211080
H6    H     H_    0.662493 0.753994 0.452877 0.186941
H7    H     H_    0.213827 0.430110 0.186023 0.177460
H8    H     H_    0.763171 0.788667 0.397668 0.224904
H9    H     H_    0.456383 0.379890 0.948594 0.260094
H10   H     H_    0.543957 0.619196 0.051229 0.232262
N1    N     N_R   0.847777 0.574349 0.404826 -0.461105
N2    N     N_R   0.145348 0.541449 0.459205 -0.466545
N3    N     N_2   0.484110 0.456420 0.038520 -0.139898
N4    N     N_2   0.515890 0.543580 0.961480 -0.157969
O1    O     O_R   0.504120 0.286130 0.619770 -0.567242
O2    O     O_R   0.495880 0.713870 0.380230 -0.578722
O3    O     O_R   0.493410 0.256770 0.308360 -0.522659
O4    O     O_R   0.506590 0.743230 0.691640 -0.509757
O5    O     O_R   0.423230 0.514630 0.655730 -0.545967
O6    O     O_R   0.576770 0.485370 0.344270 -0.594328
O7    O     O_R   0.412530 0.485280 0.344320 -0.542457
O8    O     O_R   0.587470 0.514720 0.655680 -0.547965
O9    O     O_2   0.853148 0.819745 0.610823 -0.425680
O10   O     O_2   0.141128 0.272169 0.332943 -0.425816
O11   O     O_2   0.841919 0.335847 0.182031 -0.461224
O12   O     O_2   0.151900 0.812152 0.592275 -0.482160
S1    S     S_3+6 0.045737 0.096815 0.143338 0.077367
O13   O     O_2   0.998123 0.986168 0.049253 -0.274363
O14   O     O_2   0.086676 0.117774 0.002434 -0.236606
O15   O     O_3   0.079851 0.015736 0.304985 -0.455405
H11   H     H_    0.095180 0.916357 0.235500 0.377450
S2    S     S_3+6 0.945744 0.039678 0.612847 0.081132
O16   O     O_2   0.902794 0.058554 0.459930 -0.256769
O17   O     O_2   0.917028 0.066306 0.791722 -0.194105
O18   O     O_3   0.998528 0.175083 0.632508 -0.517637
H12   H     H_    0.979201 0.277485 0.657552 0.363266
S3    S     S_3+6 0.332876 0.690274 0.868604 0.057077
O19   O     O_2   0.291042 0.780529 0.994112 -0.273548
O20   O     O_2   0.364067 0.579691 0.968105 -0.241703
O21   O     O_3   0.379790 0.816754 0.814101 -0.458084
H13   H     H_    0.356221 0.885989 0.750987 0.351060
S4    S     S_3+6 0.688348 0.189105 0.452792 0.059561
O22   O     O_2   0.724084 0.089704 0.313157 -0.248154
O23   O     O_2   0.699885 0.142364 0.634822 -0.190154
O24   O     O_3   0.619245 0.157278 0.378453 -0.559252
H14   H     H_    0.614074 0.041535 0.348540 0.350945
S5    S     S_3+6 0.430388 0.955156 0.275564 0.069124
O25   O     O_2   0.456493 0.858370 0.110041 -0.188047
O26   O     O_2   0.391387 0.853358 0.355268 -0.269623
O27   O     O_3   0.391682 0.098093 0.209575 -0.524045
H15   H     H_    0.358012 0.043713 0.134867 0.408517
S6    S     S_3+6 0.562245 0.046401 0.760559 0.057010
O28   O     O_2   0.605422 0.924873 0.787705 -0.287746
O29   O     O_2   0.594278 0.191323 0.743765 -0.187442
O30   O     O_3   0.524218 0.090545 0.948367 -0.472735
H16   H     H_    0.548420 0.059753 0.048642 0.386873

loop_
_geom_bond_atom_site_label_1
_geom_bond_atom_site_label_2
_ccdc_geom_bond_type
S2    O17   D    
C31   S1    S    
S4    O24   S    
S5    O25   D    
C15   S5    S    
C19   O9    S    
Cu1   O4    S    
Cu2   O3    S    
C23   C29   A    
C24   C26   A    
C21   O11   S    
C22   O12   S    
C13   N2    S    
S6    O29   D    
S2    O18   S    
Cu1   O1    S    
C15   C16   D    
C9    H5    S    
C10   H6    S    
S1    O14   D    
C12   H8    S    
C2    O2    A    
C7    C17   S    
C1    C15   S    
C2    C16   S    
C17   O7    A    
C3    C13   A    
C18   O8    A    
Cu1   O8    S    
S2    O16   D    
Cu2   O7    S    
C16   S6    S    
O18   H12   S    
C10   C12   A    
S5    O26   D    
C14   N1    S    
C21   N1    A    
Cu1   O5    S    
Cu2   O2    S    
O21   H13   S    
S4    O23   D    
S4    O22   D    
C4    C6    A    
C5    C7    A    
S6    O28   D    
C6    C8    A    
C20   C28   A    
C25   C26   A    
C8    C18   S    
S1    O15   S    
C1    O3    A    
N3    N4    D    
Cu1   Cu2   S    
O27   H15   S    
C9    C11   A    
C2    O4    A    
C8    C10   A    
C22   N2    A    
C12   C14   A    
Cu2   O6    S    
C21   C23   A    
C22   C24   A    
C20   O10   S    
C17   O5    A    
S5    O27   S    
C19   C27   A    
C32   S2    S    
C7    C9    A    
C27   C32   A    
C28   C31   A    
C4    H4    S    
C3    C5    A    
S6    O30   S    
S3    O21   S    
C19   N1    A    
C6    S4    S    
C25   C27   A    
C29   H1    S    
C26   C28   A    
C30   H2    S    
O15   H11   S    
S3    O19   D    
C29   C31   A    
C30   C32   A    
C11   C13   A    
C1    O1    A    
C11   H7    S    
C23   C25   A    
C4    C14   A    
S1    O13   D    
C24   C30   A    
C18   O6    A    
O24   H14   S    
C3    H3    S    
C5    S3    S    
S3    O20   D    
Cu1   N4    S    
Cu2   N3    S    
O30   H16   S    
H9    N3    S    
C20   N2    A    
H10   N4    S    
