data_str_m3_o40_o41_f0_fof.sym.212
_audit_creation_date              2012-12-10T16:37:58-0500
_audit_creation_method            fapswitch 2.2
_symmetry_space_group_name_H-M    P1
_symmetry_Int_Tables_number       1
_space_group_crystal_system       triclinic
_cell_length_a                    27.991619
_cell_length_b                    18.543163
_cell_length_c                    16.917415
_cell_angle_alpha                 90.037244
_cell_angle_beta                  62.018142
_cell_angle_gamma                 90.01858
_cell_volume                      7754.4993129

loop_
_atom_site_label
_atom_site_type_symbol
_atom_type_description
_atom_site_fract_x
_atom_site_fract_y
_atom_site_fract_z
_atom_type_partial_charge
C1    C     C_R   0.702075 0.268058 0.676528 0.985394
C2    C     C_R   0.297847 0.731728 0.323588 0.907417
C3    C     C_R   0.298064 0.267782 0.323443 0.938174
C4    C     C_R   0.702290 0.731452 0.676424 0.954127
C5    C     C_R   0.202075 0.768058 0.676528 0.985394
C6    C     C_R   0.797847 0.231728 0.323588 0.907417
C7    C     C_R   0.798064 0.767782 0.323443 0.938175
C8    C     C_R   0.202291 0.231452 0.676424 0.954127
C9    C     C_R   0.893623 0.500039 0.525736 -0.026777
C10   C     C_R   0.078515 0.500012 0.574048 -0.018928
C11   C     C_R   0.393623 0.000039 0.525736 -0.026777
C12   C     C_R   0.578515 0.000012 0.574048 -0.018928
C13   C     C_R   0.070720 0.370769 0.598051 0.427521
C14   C     C_R   0.881064 0.626090 0.559500 0.445588
C15   C     C_R   0.880772 0.374115 0.560071 0.444934
C16   C     C_R   0.070852 0.629322 0.597660 0.427702
C17   C     C_R   0.570720 0.870768 0.598051 0.427521
C18   C     C_R   0.381064 0.126090 0.559500 0.445588
C19   C     C_R   0.380772 0.874115 0.560071 0.444934
C20   C     C_R   0.570852 0.129322 0.597660 0.427702
C21   C     C_R   0.718268 0.261205 0.957082 -0.010214
C22   C     C_R   0.283363 0.742595 0.042209 -0.013244
C23   C     C_R   0.284897 0.255421 0.040692 -0.010339
C24   C     C_R   0.719737 0.736782 0.955637 -0.007855
C25   C     C_R   0.218268 0.761205 0.957082 -0.010214
C26   C     C_R   0.783363 0.242595 0.042209 -0.013244
C27   C     C_R   0.784897 0.755421 0.040692 -0.010339
C28   C     C_R   0.219737 0.236782 0.955637 -0.007855
C29   C     C_R   0.766308 0.220224 0.914247 -0.048442
C30   C     C_R   0.235338 0.783599 0.085249 -0.075676
C31   C     C_R   0.237146 0.213873 0.083230 -0.052940
C32   C     C_R   0.767851 0.777733 0.912636 -0.070197
C33   C     C_R   0.266308 0.720224 0.914247 -0.048442
C34   C     C_R   0.735339 0.283599 0.085249 -0.075676
C35   C     C_R   0.737146 0.713872 0.083230 -0.052940
C36   C     C_R   0.267851 0.277733 0.912636 -0.070197
C37   C     C_R   0.801113 0.216441 0.954309 0.084638
C38   C     C_R   0.200612 0.787902 0.044833 0.070902
C39   C     C_R   0.202305 0.209767 0.043119 0.072277
C40   C     C_R   0.802603 0.781921 0.952948 0.058165
C41   C     C_R   0.301113 0.716441 0.954309 0.084638
C42   C     C_R   0.700612 0.287902 0.044833 0.070902
C43   C     C_R   0.702305 0.709767 0.043119 0.072277
C44   C     C_R   0.302603 0.281921 0.952948 0.058165
C45   C     C_R   0.637884 0.313083 0.955539 0.003734
C46   C     C_R   0.362888 0.688257 0.044200 0.047186
C47   C     C_R   0.364136 0.310035 0.043426 -0.001849
C48   C     C_R   0.638808 0.685717 0.954975 0.004068
C49   C     C_R   0.137884 0.813083 0.955539 0.003734
C50   C     C_R   0.862888 0.188257 0.044200 0.047187
C51   C     C_R   0.864136 0.810035 0.043426 -0.001849
C52   C     C_R   0.138808 0.185717 0.954975 0.004068
C53   C     C_R   0.617513 0.346568 0.900673 -0.233236
C54   C     C_R   0.382905 0.654062 0.099073 -0.224516
C55   C     C_R   0.383389 0.345275 0.098799 -0.231233
C56   C     C_R   0.617945 0.652819 0.900411 -0.236169
C57   C     C_R   0.117513 0.846568 0.900673 -0.233236
C58   C     C_R   0.882905 0.154062 0.099073 -0.224516
C59   C     C_R   0.883389 0.845275 0.098799 -0.231232
C60   C     C_R   0.117945 0.152819 0.900411 -0.236169
C61   C     C_R   0.645866 0.338822 0.808317 0.315510
C62   C     C_R   0.354356 0.661560 0.191453 0.290552
C63   C     C_R   0.354588 0.337940 0.191221 0.291410
C64   C     C_R   0.646071 0.660668 0.808070 0.330682
C65   C     C_R   0.145866 0.838822 0.808317 0.315510
C66   C     C_R   0.854356 0.161560 0.191453 0.290552
C67   C     C_R   0.854588 0.837940 0.191221 0.291410
C68   C     C_R   0.146071 0.160668 0.808070 0.330683
C69   C     C_R   0.681247 0.281199 0.772546 -0.162359
C70   C     C_R   0.319266 0.719512 0.227357 -0.203204
C71   C     C_R   0.319617 0.279858 0.227087 -0.193303
C72   C     C_R   0.681570 0.718149 0.772352 -0.175178
C73   C     C_R   0.181247 0.781199 0.772546 -0.162359
C74   C     C_R   0.819266 0.219512 0.227357 -0.203204
C75   C     C_R   0.819616 0.779858 0.227087 -0.193304
C76   C     C_R   0.181570 0.218149 0.772352 -0.175178
C77   C     C_R   0.703257 0.248011 0.825695 0.000271
C78   C     C_R   0.298184 0.754311 0.173867 -0.070641
C79   C     C_R   0.298811 0.244805 0.173354 -0.023215
C80   C     C_R   0.703774 0.751124 0.825412 -0.044423
C81   C     C_R   0.203258 0.748011 0.825695 0.000271
C82   C     C_R   0.798184 0.254311 0.173867 -0.070641
C83   C     C_R   0.798811 0.744805 0.173354 -0.023215
C84   C     C_R   0.203774 0.251124 0.825412 -0.044423
C85   C     C_R   0.690909 0.129617 0.537953 0.916800
C86   C     C_R   0.305150 0.871765 0.478562 0.905899
C87   C     C_R   0.305170 0.128244 0.478521 0.914499
C88   C     C_R   0.690879 0.870397 0.538142 0.906317
C89   C     C_R   0.190909 0.629617 0.537953 0.916800
C90   C     C_R   0.805150 0.371765 0.478562 0.905899
C91   C     C_R   0.805170 0.628244 0.478521 0.914499
C92   C     C_R   0.190879 0.370397 0.538142 0.906317
C93   C     C_R   0.687042 0.275035 0.912310 0.007550
C94   C     C_R   0.314296 0.727621 0.087167 0.013633
C95   C     C_R   0.315486 0.270773 0.086159 0.013925
C96   C     C_R   0.688078 0.723482 0.911468 0.024810
C97   C     C_R   0.187042 0.775035 0.912310 0.007550
C98   C     C_R   0.814296 0.227621 0.087167 0.013632
C99   C     C_R   0.815486 0.770773 0.086159 0.013925
C100  C     C_R   0.188078 0.223482 0.911468 0.024810
C101  C     C_R   0.613376 0.316225 0.050754 0.129964
C102  C     C_R   0.387566 0.685262 0.949244 0.093783
C103  C     C_R   0.389147 0.312733 0.948143 0.117068
C104  C     C_R   0.614653 0.682382 0.050115 0.126363
C105  C     C_R   0.113376 0.816225 0.050754 0.129964
C106  C     C_R   0.887566 0.185262 0.949244 0.093783
C107  C     C_R   0.889147 0.812733 0.948143 0.117068
C108  C     C_R   0.114653 0.182382 0.050115 0.126364
C109  C     C_R   0.645776 0.307791 0.093099 -0.104661
C110  C     C_R   0.355867 0.696400 0.906020 -0.137291
C111  C     C_R   0.357302 0.302555 0.905072 -0.081645
C112  C     C_R   0.647427 0.690175 0.091847 -0.102485
C113  C     C_R   0.145776 0.807791 0.093099 -0.104661
C114  C     C_R   0.855867 0.196400 0.906020 -0.137291
C115  C     C_R   0.857302 0.802555 0.905072 -0.081645
C116  C     C_R   0.147427 0.190175 0.091847 -0.102485
C117  C     C_R   0.739640 0.188775 0.799041 0.107850
C118  C     C_R   0.262214 0.814334 0.200621 0.092825
C119  C     C_R   0.263030 0.184884 0.200149 0.063453
C120  C     C_R   0.740099 0.810661 0.799127 0.133585
C121  C     C_R   0.239640 0.688775 0.799041 0.107850
C122  C     C_R   0.762214 0.314334 0.200621 0.092825
C123  C     C_R   0.763029 0.684884 0.200149 0.063452
C124  C     C_R   0.240099 0.310661 0.799127 0.133585
C125  C     C_R   0.773079 0.177282 0.839986 0.346622
C126  C     C_R   0.228471 0.825641 0.160332 0.356963
C127  C     C_R   0.230284 0.171792 0.158176 0.316037
C128  C     C_R   0.774422 0.820713 0.838500 0.388271
C129  C     C_R   0.273079 0.677282 0.839986 0.346622
C130  C     C_R   0.728471 0.325641 0.160332 0.356963
C131  C     C_R   0.730284 0.671792 0.158176 0.316037
C132  C     C_R   0.274422 0.320713 0.838500 0.388270
C133  C     C_R   0.074301 0.100058 0.934627 0.949876
C134  C     C_R   0.926098 0.899454 0.065068 0.933679
C135  C     C_R   0.926210 0.100722 0.064939 0.970390
C136  C     C_R   0.074156 0.899766 0.934720 0.937197
C137  C     C_R   0.574301 0.600058 0.934627 0.949876
C138  C     C_R   0.426098 0.399454 0.065068 0.933679
C139  C     C_R   0.426210 0.600722 0.064939 0.970391
C140  C     C_R   0.574156 0.399766 0.934720 0.937198
C141  C     C_R   0.525600 0.131900 0.581776 -0.142948
C142  C     C_R   0.430397 0.869865 0.562288 -0.147392
C143  C     C_R   0.430708 0.130271 0.561617 -0.148462
C144  C     C_R   0.525369 0.868179 0.582342 -0.142271
C145  C     C_R   0.025600 0.631900 0.581776 -0.142948
C146  C     C_R   0.930397 0.369865 0.562288 -0.147392
C147  C     C_R   0.930708 0.630271 0.561618 -0.148461
C148  C     C_R   0.025369 0.368179 0.582342 -0.142270
C149  C     C_R   0.500042 0.197544 0.579769 0.360960
C150  C     C_R   0.451695 0.803687 0.572799 0.344269
C151  C     C_R   0.452155 0.196464 0.571783 0.343937
C152  C     C_R   0.499609 0.802568 0.580732 0.353561
C153  C     C_R   0.000042 0.697544 0.579769 0.360960
C154  C     C_R   0.951695 0.303687 0.572799 0.344269
C155  C     C_R   0.952155 0.696464 0.571784 0.343937
C156  C     C_R   0.999609 0.302568 0.580732 0.353561
C157  C     C_R   0.458534 0.065782 0.556174 -0.034437
C158  C     C_R   0.504970 0.933912 0.568073 -0.040344
C159  C     C_R   0.505097 0.066135 0.567766 -0.040153
C160  C     C_R   0.458384 0.934288 0.556508 -0.034681
C161  C     C_R   0.958534 0.565782 0.556174 -0.034437
C162  C     C_R   0.004970 0.433912 0.568073 -0.040345
C163  C     C_R   0.005097 0.566135 0.567767 -0.040153
C164  C     C_R   0.958384 0.434288 0.556508 -0.034681
C165  C     C_R   0.937042 0.500033 0.545996 0.057304
C166  C     C_R   0.029450 0.500014 0.570175 0.052500
C167  C     C_R   0.437042 0.000033 0.545996 0.057304
C168  C     C_R   0.529450 0.000014 0.570175 0.052499
C169  C     C_R   0.869359 0.435268 0.521597 -0.053465
C170  C     C_R   0.102583 0.565880 0.577394 -0.061594
C171  C     C_R   0.102534 0.434169 0.577625 -0.056650
C172  C     C_R   0.869515 0.564846 0.521272 -0.052366
C173  C     C_R   0.369359 0.935268 0.521597 -0.053466
C174  C     C_R   0.602583 0.065880 0.577394 -0.061594
C175  C     C_R   0.602534 0.934169 0.577625 -0.056650
C176  C     C_R   0.369515 0.064846 0.521271 -0.052365
C177  C     C_R   0.832572 0.436142 0.484450 -0.096948
C178  C     C_R   0.155548 0.565248 0.568665 -0.128897
C179  C     C_R   0.155522 0.434839 0.568977 -0.131233
C180  C     C_R   0.832711 0.563924 0.484138 -0.103491
C181  C     C_R   0.332572 0.936142 0.484450 -0.096947
C182  C     C_R   0.655548 0.065248 0.568665 -0.128897
C183  C     C_R   0.655522 0.934839 0.568977 -0.131234
C184  C     C_R   0.332712 0.063923 0.484138 -0.103492
C185  C     C_R   0.822647 0.499983 0.451949 0.021712
C186  C     C_R   0.177498 0.500149 0.578818 0.059941
C187  C     C_R   0.322647 0.999983 0.451949 0.021712
C188  C     C_R   0.677498 0.000149 0.578818 0.059941
H1    H     H_    0.626295 0.310300 0.165417 0.193319
H2    H     H_    0.375440 0.693723 0.833686 0.211851
H3    H     H_    0.377000 0.304937 0.832716 0.214227
H4    H     H_    0.628211 0.687537 0.164146 0.195502
H5    H     H_    0.126295 0.810300 0.165417 0.193319
H6    H     H_    0.875440 0.193723 0.833686 0.211851
H7    H     H_    0.877000 0.804937 0.832716 0.214227
H8    H     H_    0.128211 0.187537 0.164146 0.195502
O1    O     O_R   0.746490 0.236330 0.638080 -0.599841
O2    O     O_R   0.253510 0.763670 0.361920 -0.658863
O3    O     O_R   0.253510 0.236330 0.361920 -0.633807
O4    O     O_R   0.746490 0.763670 0.638080 -0.624952
O5    O     O_R   0.246490 0.736330 0.638080 -0.599841
O6    O     O_R   0.753510 0.263670 0.361920 -0.658863
O7    O     O_R   0.753510 0.736330 0.361920 -0.633807
O8    O     O_R   0.246490 0.263670 0.638080 -0.624952
O9    O     O_R   0.674170 0.186160 0.516270 -0.588698
O10   O     O_R   0.325830 0.813840 0.483730 -0.609522
O11   O     O_R   0.325830 0.186160 0.483730 -0.608073
O12   O     O_R   0.674170 0.813840 0.516270 -0.585838
O13   O     O_R   0.174170 0.686160 0.516270 -0.588698
O14   O     O_R   0.825830 0.313840 0.483730 -0.609521
O15   O     O_R   0.825830 0.686160 0.483730 -0.608074
O16   O     O_R   0.174170 0.313840 0.516270 -0.585838
O17   O     O_R   0.739960 0.127620 0.525000 -0.599371
O18   O     O_R   0.260040 0.872380 0.475000 -0.598616
O19   O     O_R   0.260040 0.127620 0.475000 -0.592256
O20   O     O_R   0.739960 0.872380 0.525000 -0.607152
O21   O     O_R   0.239960 0.627620 0.525000 -0.599371
O22   O     O_R   0.760040 0.372380 0.475000 -0.598617
O23   O     O_R   0.760040 0.627620 0.475000 -0.592256
O24   O     O_R   0.239960 0.372380 0.525000 -0.607152
O25   O     O_R   0.680700 0.294870 0.629350 -0.534267
O26   O     O_R   0.319300 0.705130 0.370650 -0.553567
O27   O     O_R   0.319300 0.294870 0.370650 -0.560726
O28   O     O_R   0.680700 0.705130 0.629350 -0.526751
O29   O     O_R   0.180700 0.794870 0.629350 -0.534267
O30   O     O_R   0.819300 0.205130 0.370650 -0.553567
O31   O     O_R   0.819300 0.794870 0.370650 -0.560726
O32   O     O_R   0.180700 0.205130 0.629350 -0.526751
O33   O     O_R   0.062020 0.072840 0.007170 -0.643114
O34   O     O_R   0.937980 0.927160 0.992830 -0.641862
O35   O     O_R   0.937980 0.072840 0.992830 -0.612439
O36   O     O_R   0.062020 0.927160 0.007170 -0.639959
O37   O     O_R   0.562020 0.572840 0.007170 -0.643114
O38   O     O_R   0.437980 0.427160 0.992830 -0.641862
O39   O     O_R   0.437980 0.572840 0.992830 -0.612439
O40   O     O_R   0.562020 0.427160 0.007170 -0.639959
O41   O     O_R   0.947860 0.073950 0.109290 -0.568935
O42   O     O_R   0.052140 0.926050 0.890710 -0.556795
O43   O     O_R   0.052140 0.073950 0.890710 -0.545028
O44   O     O_R   0.947860 0.926050 0.109290 -0.560437
O45   O     O_R   0.447860 0.573950 0.109290 -0.568935
O46   O     O_R   0.552140 0.426050 0.890710 -0.556795
O47   O     O_R   0.552140 0.573950 0.890710 -0.545028
O48   O     O_R   0.447860 0.426050 0.109290 -0.560437
Zn1   Zn    Zn3+2 0.792340 0.208750 0.507670 1.141812
Zn2   Zn    Zn3+2 0.207660 0.791250 0.492330 1.137199
Zn3   Zn    Zn3+2 0.207660 0.208750 0.492330 1.146454
Zn4   Zn    Zn3+2 0.792340 0.791250 0.507670 1.133803
Zn5   Zn    Zn3+2 0.292340 0.708750 0.507670 1.141812
Zn6   Zn    Zn3+2 0.707660 0.291250 0.492330 1.137199
Zn7   Zn    Zn3+2 0.707660 0.708750 0.492330 1.146454
Zn8   Zn    Zn3+2 0.292340 0.291250 0.507670 1.133803
Zn9   Zn    Zn3+2 0.505960 0.500000 0.080520 1.055582
Zn10  Zn    Zn3+2 0.494040 0.500000 0.919480 1.095187
Zn11  Zn    Zn3+2 0.005960 0.000000 0.080520 1.055581
Zn12  Zn    Zn3+2 0.994040 0.000000 0.919480 1.095187
Cl1   Cl    Cl    0.030112 0.217793 0.575734 -0.435887
Cl2   Cl    Cl    0.922908 0.779236 0.564125 -0.448668
Cl3   Cl    Cl    0.922247 0.220912 0.565586 -0.451839
Cl4   Cl    Cl    0.030793 0.782228 0.574328 -0.426377
Cl5   Cl    Cl    0.530112 0.717793 0.575734 -0.435887
Cl6   Cl    Cl    0.422908 0.279236 0.564124 -0.448668
Cl7   Cl    Cl    0.422247 0.720912 0.565586 -0.451839
Cl8   Cl    Cl    0.530793 0.282228 0.574328 -0.426377
N1    N     N_3   0.800290 0.499709 0.390297 -0.377893
H9    H     H_    0.815162 0.544377 0.347971 0.174497
H10   H     H_    0.817886 0.457110 0.345428 0.156993
N2    N     N_3   0.221007 0.500569 0.601806 -0.354795
H11   H     H_    0.215483 0.457129 0.644169 0.177515
H12   H     H_    0.214350 0.543344 0.645844 0.188690
N3    N     N_3   0.300290 0.999709 0.390297 -0.377893
H13   H     H_    0.315162 0.044377 0.347971 0.174498
H14   H     H_    0.317886 0.957111 0.345427 0.156992
N4    N     N_3   0.721007 0.000569 0.601806 -0.354795
H15   H     H_    0.715483 0.957129 0.644168 0.177515
H16   H     H_    0.714349 0.043344 0.645844 0.188690
Cl9   Cl    Cl    0.074202 0.310207 0.676542 -0.580226
Cl10  Cl    Cl    0.825802 0.668257 0.649552 -0.548053
Cl11  Cl    Cl    0.825376 0.332138 0.650029 -0.549126
Cl12  Cl    Cl    0.074189 0.689956 0.676299 -0.553495
Cl13  Cl    Cl    0.574202 0.810207 0.676542 -0.580226
Cl14  Cl    Cl    0.325802 0.168257 0.649552 -0.548052
Cl15  Cl    Cl    0.325376 0.832138 0.650029 -0.549126
Cl16  Cl    Cl    0.574189 0.189956 0.676299 -0.553495
Cl17  Cl    Cl    0.646843 0.410833 0.737379 -0.435787
Cl18  Cl    Cl    0.352959 0.589131 0.262197 -0.467674
Cl19  Cl    Cl    0.352709 0.410697 0.262006 -0.468120
Cl20  Cl    Cl    0.646483 0.589047 0.736972 -0.435212
Cl21  Cl    Cl    0.146843 0.910833 0.737379 -0.435787
Cl22  Cl    Cl    0.852959 0.089131 0.262197 -0.467674
Cl23  Cl    Cl    0.852709 0.910697 0.262006 -0.468120
Cl24  Cl    Cl    0.146483 0.089047 0.736972 -0.435212
N5    N     N_3   0.555771 0.313100 0.106723 -0.438241
H17   H     H_    0.542539 0.361232 0.142725 0.236613
H18   H     H_    0.535433 0.303728 0.069339 0.173629
N6    N     N_3   0.445177 0.680908 0.895830 -0.423119
H19   H     H_    0.458640 0.729296 0.860494 0.221739
H20   H     H_    0.453954 0.639777 0.848645 0.243595
N7    N     N_3   0.446864 0.311454 0.892930 -0.392134
H21   H     H_    0.459319 0.359693 0.857022 0.248020
H22   H     H_    0.467007 0.303551 0.930889 0.176743
N8    N     N_3   0.557133 0.686204 0.106666 -0.438263
H23   H     H_    0.536600 0.696143 0.069731 0.178118
H24   H     H_    0.543665 0.638124 0.142641 0.236385
N9    N     N_3   0.055771 0.813100 0.106723 -0.438241
H25   H     H_    0.042539 0.861232 0.142725 0.236613
H26   H     H_    0.035433 0.803728 0.069339 0.173629
N10   N     N_3   0.945177 0.180908 0.895830 -0.423119
H27   H     H_    0.958640 0.229296 0.860494 0.221739
H28   H     H_    0.953954 0.139777 0.848645 0.243595
N11   N     N_3   0.946864 0.811454 0.892930 -0.392134
H29   H     H_    0.959319 0.859693 0.857022 0.248020
H30   H     H_    0.967008 0.803551 0.930889 0.176743
N12   N     N_3   0.057133 0.186204 0.106666 -0.438263
H31   H     H_    0.036600 0.196143 0.069731 0.178117
H32   H     H_    0.043665 0.138124 0.142641 0.236385
N13   N     N_3   0.735792 0.133628 0.742829 -0.440570
H33   H     H_    0.721763 0.086426 0.780594 0.210547
H34   H     H_    0.774402 0.123515 0.690100 0.267078
N14   N     N_3   0.267856 0.872797 0.251679 -0.386398
H35   H     H_    0.233216 0.876039 0.313821 0.255648
H36   H     H_    0.302220 0.866448 0.260233 0.161759
N15   N     N_3   0.266587 0.131106 0.258242 -0.426480
H37   H     H_    0.281241 0.083431 0.221714 0.223452
H38   H     H_    0.227820 0.120966 0.310459 0.258412
N16   N     N_3   0.733909 0.870243 0.750421 -0.407554
H39   H     H_    0.768071 0.873810 0.687701 0.260563
H40   H     H_    0.698864 0.864788 0.743609 0.159293
N17   N     N_3   0.235792 0.633628 0.742829 -0.440570
H41   H     H_    0.221763 0.586426 0.780594 0.210547
H42   H     H_    0.274402 0.623515 0.690100 0.267078
N18   N     N_3   0.767856 0.372797 0.251679 -0.386398
H43   H     H_    0.733216 0.376039 0.313821 0.255648
H44   H     H_    0.802220 0.366447 0.260234 0.161758
N19   N     N_3   0.766587 0.631106 0.258242 -0.426480
H45   H     H_    0.781241 0.583430 0.221714 0.223452
H46   H     H_    0.727820 0.620966 0.310459 0.258412
N20   N     N_3   0.233909 0.370243 0.750421 -0.407555
H47   H     H_    0.268071 0.373810 0.687701 0.260563
H48   H     H_    0.198864 0.364788 0.743610 0.159294
Cl25  Cl    Cl    0.814166 0.098851 0.808989 -0.523997
Cl26  Cl    Cl    0.187277 0.903781 0.192849 -0.518788
Cl27  Cl    Cl    0.189529 0.093202 0.189591 -0.541843
Cl28  Cl    Cl    0.815635 0.898968 0.806801 -0.499260
Cl29  Cl    Cl    0.314166 0.598851 0.808989 -0.523997
Cl30  Cl    Cl    0.687277 0.403781 0.192849 -0.518788
Cl31  Cl    Cl    0.689529 0.593202 0.189591 -0.541843
Cl32  Cl    Cl    0.315635 0.398968 0.806801 -0.499260

loop_
_geom_bond_atom_site_label_1
_geom_bond_atom_site_label_2
_ccdc_geom_bond_type
C152  Cl5   S    
O19   Zn3   S    
C85   C182  S    
C136  O42   A    
N17   H42   S    
C9    C169  A    
C34   C42   A    
O4    Zn4   S    
C181  C187  A    
C121  N17   S    
O32   Zn3   S    
C61   C69   A    
C111  H3    S    
C27   C99   A    
C170  C178  A    
C175  C183  A    
C42   C109  A    
C24   C96   A    
C65   Cl21  S    
N3    H13   S    
C67   Cl23  S    
C62   C70   A    
C1    O25   A    
N4    H15   S    
C7    O7    A    
O28   Zn7   S    
O31   Zn4   S    
N16   H39   S    
O40   Zn9   S    
C147  C155  A    
O11   Zn8   S    
C63   Cl19  S    
C150  Cl7   S    
C14   Cl10  S    
C143  C151  A    
C90   C177  S    
C11   C167  A    
C82   C98   A    
C76   C84   A    
C88   O12   A    
C73   C81   A    
C161  C163  A    
C162  C164  A    
C137  O47   A    
N15   H37   S    
C84   C100  A    
C8    O8    A    
C121  C129  A    
N19   H46   S    
C155  Cl2   S    
C37   C114  A    
C126  Cl26  S    
C27   C35   A    
C10   C171  A    
C21   C29   A    
C110  H2    S    
C135  O41   A    
C81   C121  A    
C23   C31   A    
C24   C32   A    
C146  C154  A    
O35   Zn12  S    
C131  Cl31  S    
N6    H19   S    
N2    H12   S    
O24   Zn8   S    
C139  O39   A    
C36   C44   A    
O30   Zn1   S    
C12   C174  A    
C176  C184  A    
C48   C96   A    
O39   Zn10  S    
C89   O13   A    
O20   Zn4   S    
C19   Cl15  S    
C60   C68   A    
C148  C162  A    
C16   Cl12  S    
C183  C188  A    
C101  N5    S    
C108  C116  A    
C21   C93   A    
C78   C94   A    
O1    Zn1   S    
C23   C95   A    
C49   C97   A    
C21   C42   A    
C22   C41   A    
O25   Zn6   S    
C51   C107  A    
C24   C43   A    
N12   H32   S    
O13   Zn2   S    
C82   C122  A    
C161  C165  A    
C17   C175  A    
N14   H36   S    
C18   C176  A    
O27   Zn8   S    
C29   C125  A    
C69   C77   A    
C31   C127  A    
C45   C93   A    
C174  C182  A    
C71   C79   A    
C8    O32   A    
C185  N1    S    
C179  C186  A    
C30   C38   A    
C11   C176  A    
C7    O31   A    
C17   C144  A    
C105  C113  A    
C18   C143  A    
C78   C118  A    
C149  C151  A    
C5    O5    A    
C66   C74   A    
C8    C76   S    
C49   C57   A    
C124  C132  A    
C130  Cl30  S    
O9    Zn6   S    
C52   C60   A    
C151  Cl6   S    
C59   C67   A    
C53   C61   A    
C141  C159  A    
C20   C174  A    
C5    O29   A    
N9    H26   S    
C55   C63   A    
C86   C181  S    
C56   C64   A    
C35   C43   A    
O38   Zn10  S    
C123  N19   S    
C22   C94   A    
C171  C179  A    
O36   Zn11  S    
O21   Zn5   S    
C169  C177  A    
N10   H28   S    
N8    H24   S    
C50   C98   A    
N18   H43   S    
C91   O15   A    
C122  N18   S    
C104  C112  A    
C102  N6    S    
C145  C163  A    
C146  C164  A    
C14   C147  A    
C52   C100  A    
N19   H45   S    
C16   C145  A    
N15   H38   S    
C178  C186  A    
C86   O18   A    
N5    H17   S    
C25   C38   A    
C54   C139  S    
C46   C94   A    
C27   C40   A    
C10   C166  A    
C87   O11   A    
C91   C180  S    
C182  C188  A    
C89   C178  S    
O17   Zn1   S    
N1    H10   S    
C127  Cl27  S    
C62   Cl18  S    
O7    Zn7   S    
C25   C97   A    
C39   C116  A    
C119  N15   S    
N11   H30   S    
C92   O16   A    
C67   C75   A    
N3    H14   S    
C140  O40   A    
C156  Cl1   S    
C186  N2    S    
O29   Zn2   S    
C3    O27   A    
C22   C30   A    
C20   C141  A    
C1    O1    A    
C15   C146  A    
C58   C135  S    
C68   C76   A    
C20   Cl16  S    
C59   C134  S    
N20   H48   S    
C184  C187  A    
C32   C128  A    
C15   Cl11  S    
C72   C80   A    
C56   C137  S    
C64   Cl20  S    
C108  N12   S    
N4    H16   S    
C134  O34   A    
C5    C73   S    
C139  O45   A    
C90   O22   A    
C187  N3    S    
C116  H8    S    
C13   C171  A    
O45   Zn9   S    
C83   C99   A    
C133  O43   A    
C137  O37   A    
C25   C33   A    
C119  C127  A    
O22   Zn6   S    
C157  C167  A    
C80   C120  A    
C158  C168  A    
C103  N7    S    
C164  C165  A    
C128  Cl28  S    
O34   Zn12  S    
C40   C115  A    
C101  C109  A    
C2    O26   A    
C177  C185  A    
C103  C111  A    
N13   H34   S    
O33   Zn11  S    
C162  C166  A    
C132  Cl32  S    
C79   C119  A    
C153  C155  A    
C154  C156  A    
C17   Cl13  S    
C172  C180  A    
N6    H20   S    
C173  C181  A    
C157  C159  A    
O23   Zn7   S    
C158  C160  A    
C74   C82   A    
C6    C74   S    
C47   C103  A    
C85   O9    A    
C50   C58   A    
C163  C166  A    
C147  C161  A    
C38   C113  A    
C49   C105  A    
C54   C62   A    
C28   C39   A    
C125  Cl25  S    
C45   C53   A    
C1    C69   S    
C23   C44   A    
C3    C71   S    
N7    H21   S    
C19   C173  A    
C79   C95   A    
C92   C179  S    
C112  H4    S    
C136  O36   A    
C46   C54   A    
C55   C138  S    
C63   C71   A    
C45   C101  A    
C19   C142  A    
O48   Zn9   S    
C68   Cl24  S    
C102  C110  A    
C35   C131  A    
C4    C72   S    
C138  O48   A    
C33   C129  A    
C115  H7    S    
C36   C132  A    
C123  C131  A    
C113  H5    S    
O41   Zn11  S    
C57   C65   A    
C120  C128  A    
C26   C37   A    
C10   C170  A    
C33   C41   A    
C142  C150  A    
C9    C165  A    
N12   H31   S    
C66   Cl22  S    
C75   C83   A    
C188  N4    S    
O2    Zn2   S    
C6    O30   A    
O5    Zn5   S    
C77   C93   A    
C107  C115  A    
C133  O33   A    
C44   C111  A    
C16   C170  A    
N2    H11   S    
C28   C36   A    
C144  C152  A    
N9    H25   S    
C29   C37   A    
O43   Zn12  S    
C50   C106  A    
C87   O19   A    
C9    C172  A    
C148  C156  A    
C83   C123  A    
C2    C70   S    
C153  Cl4   S    
C60   C133  S    
C154  Cl3   S    
C120  N16   S    
N11   H29   S    
C30   C126  A    
C70   C78   A    
C53   C140  S    
N17   H41   S    
C86   O10   A    
C141  C149  A    
C46   C102  A    
O47   Zn10  S    
C117  N13   S    
C106  C114  A    
N18   H44   S    
C6    O6    A    
C77   C117  A    
C118  N14   S    
C48   C104  A    
C65   C73   A    
C159  C168  A    
C15   C169  A    
C160  C167  A    
C92   O24   A    
O10   Zn5   S    
C26   C34   A    
C109  H1    S    
C3    O3    A    
C57   C136  S    
C61   Cl17  S    
C80   C96   A    
N1    H9    S    
C13   Cl9   S    
C149  Cl8   S    
O3    Zn3   S    
C145  C153  A    
C28   C100  A    
C32   C40   A    
O16   Zn3   S    
C58   C66   A    
C143  C157  A    
C51   C99   A    
C11   C173  A    
C114  H6    S    
C14   C172  A    
C107  N11   S    
C87   C184  S    
C90   O14   A    
C88   C183  S    
C7    C75   S    
C4    O28   A    
O42   Zn12  S    
O12   Zn7   S    
O15   Zn4   S    
C85   O17   A    
C18   Cl14  S    
C4    O4    A    
O18   Zn2   S    
N7    H22   S    
C34   C130  A    
C124  N20   S    
C26   C98   A    
C12   C175  A    
O6    Zn6   S    
C41   C110  A    
O46   Zn10  S    
C150  C152  A    
C51   C59   A    
C43   C112  A    
C144  C158  A    
N10   H27   S    
C47   C55   A    
C106  N10   S    
C48   C56   A    
N8    H23   S    
O44   Zn11  S    
C104  N8    S    
C88   O20   A    
C2    O2    A    
C134  O44   A    
C142  C160  A    
C12   C168  A    
N16   H40   S    
O37   Zn9   S    
C84   C124  A    
O14   Zn1   S    
N14   H35   S    
N5    H18   S    
C81   C97   A    
C31   C39   A    
C140  O46   A    
C64   C72   A    
C91   O23   A    
N13   H33   S    
C138  O38   A    
C180  C185  A    
C89   O21   A    
O8    Zn8   S    
O26   Zn5   S    
C52   C108  A    
N20   H47   S    
C47   C95   A    
C129  Cl29  S    
C118  C126  A    
C13   C148  A    
C117  C125  A    
C122  C130  A    
C105  N9    S    
C135  O35   A    
