data_str_m2_o5_o29_f0_pcu.sym.30
_audit_creation_date              2013-03-05T16:36:13-0500
_audit_creation_method            fapswitch 2.2
_symmetry_space_group_name_H-M    P1
_symmetry_Int_Tables_number       1
_space_group_crystal_system       triclinic
_cell_length_a                    27.748749
_cell_length_b                    9.106403
_cell_length_c                    7.76913
_cell_angle_alpha                 89.994635
_cell_angle_beta                  89.688595
_cell_angle_gamma                 88.405804
_cell_volume                      1962.40262659

loop_
_atom_site_label
_atom_site_type_symbol
_atom_site_description
_atom_site_fract_x
_atom_site_fract_y
_atom_site_fract_z
_atom_type_partial_charge
O1    O     O_R   0.500000 0.288390 0.642760 -0.570399
O2    O     O_R   0.500000 0.711610 0.357240 -0.585415
O3    O     O_R   0.500000 0.711610 0.642760 -0.584959
O4    O     O_R   0.500000 0.288390 0.357240 -0.570797
C1    C     C_R   0.500096 0.219925 0.500003 0.934976
C2    C     C_R   0.499933 0.780074 0.499994 0.832585
O5    O     O_R   0.430260 0.500000 0.642770 -0.539497
O6    O     O_R   0.569740 0.500000 0.357230 -0.541087
O7    O     O_R   0.569740 0.500000 0.642770 -0.572274
O8    O     O_R   0.430260 0.500000 0.357230 -0.577209
C3    C     C_R   0.407117 0.502208 0.500591 0.842013
C4    C     C_R   0.592839 0.499309 0.499243 0.847651
Cu1   Cu    Cu3+1 0.500000 0.500000 0.669080 1.070854
Cu2   Cu    Cu3+1 0.500000 0.500000 0.330920 1.068240
C5    C     C_R   0.178451 0.410117 0.530395 0.527312
C6    C     C_R   0.821750 0.626680 0.547523 0.529968
C7    C     C_R   0.175552 0.653754 0.416234 0.611031
C8    C     C_R   0.824624 0.383097 0.433015 0.608888
O9    O     O_2   0.204740 0.304540 0.611328 -0.485285
O10   O     O_2   0.795590 0.732358 0.629697 -0.490232
O11   O     O_2   0.199566 0.775635 0.375608 -0.449176
O12   O     O_2   0.800717 0.261058 0.393076 -0.449120
N1    N     N_R   0.200920 0.533187 0.474911 -0.460337
N2    N     N_R   0.799280 0.502846 0.495319 -0.459253
C9    C     C_R   0.277251 0.620878 0.590807 -0.087628
C10   C     C_R   0.723357 0.402284 0.603579 -0.094235
C11   C     C_R   0.278434 0.432128 0.372213 -0.125577
C12   C     C_R   0.721124 0.600363 0.396529 -0.113122
C13   C     C_R   0.327501 0.608887 0.604843 -0.069193
C14   C     C_R   0.672869 0.396801 0.602131 -0.075584
C15   C     C_R   0.328593 0.415929 0.384283 -0.057391
C16   C     C_R   0.670842 0.599216 0.393540 -0.051933
C17   C     C_R   0.252718 0.532301 0.476067 0.290270
C18   C     C_R   0.747463 0.501877 0.499543 0.288386
C19   C     C_R   0.101372 0.523017 0.458197 -0.035253
C20   C     C_R   0.898709 0.514760 0.467814 -0.035312
C21   C     C_R   0.128398 0.396188 0.508746 -0.106056
C22   C     C_R   0.871748 0.641247 0.520957 -0.107293
C23   C     C_R   0.124708 0.652284 0.405935 -0.081667
C24   C     C_R   0.875319 0.385390 0.417506 -0.080595
C25   C     C_R   0.104036 0.262825 0.539445 -0.106382
C26   C     C_R   0.896157 0.774849 0.548887 -0.105996
C27   C     C_R   0.095894 0.774470 0.348059 -0.007963
C28   C     C_R   0.903931 0.263637 0.356256 -0.008925
C29   C     C_R   0.353845 0.506032 0.500539 -0.166189
C30   C     C_R   0.646036 0.496826 0.496664 -0.171449
H1    H     H_    0.258655 0.362136 0.286391 0.174778
H2    H     H_    0.740189 0.677678 0.316829 0.163123
H3    H     H_    0.256883 0.697008 0.672317 0.186445
H4    H     H_    0.744330 0.326311 0.682520 0.200909
C31   C     C_R   0.976672 0.385007 0.447906 0.026742
C32   C     C_R   0.023373 0.653293 0.446019 0.026423
C33   C     C_R   0.973121 0.651802 0.477332 0.037616
C34   C     C_R   0.026971 0.386447 0.474804 0.038045
C35   C     C_R   0.949496 0.517373 0.464739 0.082896
C36   C     C_R   0.050579 0.520793 0.460060 0.082838
C37   C     C_R   0.953470 0.259128 0.390893 -0.237939
C38   C     C_R   0.046467 0.779215 0.387445 -0.236703
C39   C     C_R   0.946063 0.779144 0.520566 -0.169927
C40   C     C_R   0.054061 0.258942 0.515833 -0.170979
H5    H     H_    0.974796 0.163061 0.352813 0.182398
H6    H     H_    0.025053 0.875568 0.351848 0.182243
H7    H     H_    0.963865 0.882287 0.539205 0.161192
H8    H     H_    0.036244 0.155987 0.536438 0.161049
C41   C     C_1   0.500062 0.065317 0.500006 -0.125815
C42   C     C_1   0.500005 0.934669 0.499988 -0.137098
N3    N     N_1   0.500000 0.500000 0.076820 -0.022266
N4    N     N_1   0.500000 0.500000 0.923180 -0.021607
C43   C     C_2   0.352904 0.298287 0.280350 0.915735
O13   O     O_2   0.337893 0.269212 0.136907 -0.542262
O14   O     O_R   0.391752 0.216839 0.348462 -0.757955
H9    H     H_    0.404784 0.138982 0.265899 0.337049
C44   C     C_2   0.645669 0.710599 0.285561 0.855111
O15   O     O_2   0.649582 0.841020 0.318381 -0.549157
O16   O     O_R   0.619472 0.667229 0.142005 -0.715272
H10   H     H_    0.604344 0.753666 0.077858 0.338271
C45   C     C_2   0.350966 0.708480 0.727002 0.860819
O17   O     O_2   0.346268 0.841435 0.708466 -0.544979
O18   O     O_R   0.376253 0.650984 0.867959 -0.712115
H11   H     H_    0.390100 0.730297 0.943095 0.336267
C46   C     C_2   0.649792 0.280682 0.705762 0.915741
O19   O     O_2   0.667401 0.242287 0.843168 -0.540676
O20   O     O_R   0.609108 0.211014 0.643936 -0.758507
H12   H     H_    0.597212 0.132836 0.725512 0.337375
C47   C     C_2   0.128931 0.122269 0.588009 0.983910
O21   O     O_2   0.114477 0.053435 0.711964 -0.535106
O22   O     O_R   0.167446 0.063627 0.491074 -0.644944
H13   H     H_    0.174191 0.122339 0.383190 0.319079
C48   C     C_2   0.871319 0.915225 0.599234 0.982354
O23   O     O_2   0.886143 0.984337 0.721803 -0.535893
O24   O     O_R   0.832430 0.973412 0.505356 -0.645312
H14   H     H_    0.825381 0.914501 0.398169 0.319938
C49   C     C_2   0.113462 0.888065 0.226950 0.939193
O25   O     O_2   0.145139 0.857187 0.121969 -0.506957
O26   O     O_R   0.090743 0.027075 0.222354 -0.804348
H15   H     H_    0.105032 0.093576 0.131902 0.353002
C50   C     C_2   0.885922 0.150147 0.236612 0.941162
O27   O     O_2   0.854026 0.181335 0.133811 -0.503943
O28   O     O_R   0.908452 0.010885 0.230678 -0.804263
H16   H     H_    0.893855 0.944481 0.141361 0.352925

loop_
_geom_bond_atom_site_label_1
_geom_bond_atom_site_label_2
_geom_bond_distance
_ccdc_geom_bond_type
C38   H6    1.082666 S    
O22   H13   1.013504 S    
C49   O25   1.222884 D    
C44   O15   1.222661 D    
C33   C35   1.408295 A    
O26   H15   1.013921 S    
O3    C2    1.272311 A    
C46   O19   1.223403 D    
C33   C39   1.403633 A    
C34   C40   1.403149 A    
C45   O17   1.222709 D    
C11   C17   1.396426 A    
C5    O9    1.348217 S    
C7    N1    1.367171 A    
C2    C42   1.407860 S    
O1    C1    1.272330 A    
C19   C21   1.416145 A    
C22   C26   1.426029 A    
C10   H4    1.083923 S    
C50   O27   1.222927 D    
C7    C23   1.414005 A    
C43   O14   1.397797 S    
O7    Cu1   1.944855 S    
C5    C21   1.409179 A    
C20   C24   1.416805 A    
C8    C24   1.411952 A    
C27   C38   1.403116 A    
C46   O20   1.397670 S    
C10   C18   1.396784 A    
O20   H12   1.014005 S    
N1    C17   1.437210 S    
N2    C18   1.438320 S    
Cu2   N3    1.974135 S    
C31   C37   1.403193 A    
C48   O24   1.397824 S    
O3    Cu1   1.937806 S    
C6    O10   1.347902 S    
C45   O18   1.397695 S    
C12   C18   1.395986 A    
C6    N2    1.366347 A    
Cu1   Cu2   2.627210 S    
C21   C25   1.425720 A    
C44   O16   1.397570 S    
O2    C2    1.272321 A    
C50   O28   1.398868 S    
O5    C3    1.280603 A    
C47   O22   1.397891 S    
C9    C13   1.400472 A    
C34   C36   1.408097 A    
C11   C15   1.399211 A    
N3    N4    1.193650 T    
C12   C16   1.395925 A    
C4    C30   1.475719 S    
O8    Cu2   1.944858 S    
C16   C44   1.478944 S    
C23   C27   1.426127 A    
C47   O21   1.221016 D    
C7    O11   1.346964 S    
C13   C29   1.422647 A    
C19   C23   1.417506 A    
O16   H10   1.013890 S    
C28   C50   1.488557 S    
C15   C43   1.486204 S    
O28   H16   1.013912 S    
O5    Cu1   1.947068 S    
C28   C37   1.401674 A    
O6    C4    1.278923 A    
C32   C38   1.403671 A    
C1    C41   1.407946 S    
C10   C14   1.403373 A    
C8    N2    1.368131 A    
C3    C29   1.477689 S    
O1    Cu1   1.937845 S    
O24   H14   1.013515 S    
C32   C33   1.414629 A    
C11   H1    1.084230 S    
C12   H2    1.084467 S    
O6    Cu2   1.947065 S    
C19   C36   1.410160 A    
C8    O12   1.347144 S    
C16   C30   1.419382 A    
C14   C30   1.422762 A    
C25   C40   1.401229 A    
O4    C1    1.272295 A    
C26   C39   1.402629 A    
C37   H5    1.082748 S    
C25   C47   1.487091 S    
C39   H7    1.083430 S    
C40   H8    1.083491 S    
C26   C48   1.486702 S    
C31   C34   1.412852 A    
C14   C46   1.486045 S    
C20   C22   1.416228 A    
O14   H9    1.014006 S    
C20   C35   1.410200 A    
C5    N1    1.366170 A    
C27   C49   1.488595 S    
C31   C35   1.409635 A    
O4    Cu2   1.937807 S    
C43   O13   1.223429 D    
O2    Cu2   1.937844 S    
O7    C4    1.283079 A    
C9    H3    1.084189 S    
O8    C3    1.282520 A    
O18   H11   1.013915 S    
C24   C28   1.425855 A    
C13   C45   1.478842 S    
C49   O26   1.398913 S    
C41   C42   1.189784 T    
C15   C29   1.420925 A    
C9    C17   1.394990 A    
C48   O23   1.221004 D    
C32   C36   1.409923 A    
C6    C22   1.411433 A    
Cu1   N4    1.974135 S    
