data_str_m3_o4_o18_f0_pcu.sym.114
_audit_creation_date              2012-12-10T20:31:50-0500
_audit_creation_method            fapswitch 2.2
_symmetry_space_group_name_H-M    P1
_symmetry_Int_Tables_number       1
_space_group_crystal_system       triclinic
_cell_length_a                    9.869115
_cell_length_b                    10.681448
_cell_length_c                    15.474935
_cell_angle_alpha                 89.930353
_cell_angle_beta                  68.085423
_cell_angle_gamma                 89.950611
_cell_volume                      1513.43479683

loop_
_atom_site_label
_atom_site_type_symbol
_atom_type_description
_atom_site_fract_x
_atom_site_fract_y
_atom_site_fract_z
_atom_type_partial_charge
C1    C     C_R   0.498594 0.740046 0.502212 0.892379
C2    C     C_R   0.402116 0.435957 0.915409 0.096049
C3    C     C_R   0.257316 0.473230 0.970443 0.181899
C4    C     C_R   0.502759 0.406803 0.958409 0.071595
C5    C     C_R   0.461230 0.431167 0.054627 0.070891
C6    C     C_R   0.312670 0.456454 0.108591 -0.249307
C7    C     C_R   0.212520 0.476942 0.066843 -0.255255
C8    C     C_R   0.644564 0.358353 0.908639 -0.234274
C9    C     C_R   0.746002 0.344974 0.950902 -0.244719
C10   C     C_R   0.711411 0.383783 0.042539 0.180420
C11   C     C_R   0.569839 0.430252 0.093817 0.087743
C12   C     C_R   0.408802 0.497421 0.675913 0.864246
C13   C     C_R   0.816174 0.377481 0.083932 -0.225270
C14   C     C_R   0.781813 0.419591 0.175157 -0.216055
C15   C     C_R   0.542313 0.479936 0.181816 -0.266754
C16   C     C_R   0.365170 0.936824 0.521793 0.079197
C17   C     C_R   0.490380 0.871417 0.516255 -0.117596
C18   C     C_R   0.605491 0.935066 0.529526 -0.227202
C19   C     C_R   0.605184 0.064492 0.530440 -0.232079
C20   C     C_R   0.489169 0.128891 0.518845 -0.099392
C21   C     C_R   0.363580 0.064333 0.524866 0.112541
C22   C     C_3   0.266661 0.075945 0.470503 -0.525453
C23   C     C_R   0.498184 0.260039 0.503263 0.880023
C24   C     C_3   0.267860 0.933310 0.466641 -0.202713
C25   C     C_R   0.898460 0.585369 0.552018 0.159914
C26   C     C_R   0.961980 0.423763 0.442148 -0.146196
C27   C     C_R   0.105879 0.423623 0.442227 -0.143871
C28   C     C_R   0.041355 0.585830 0.551675 0.200404
C29   C     C_3   0.987047 0.599855 0.655006 -0.066644
C30   C     C_3   0.832682 0.599278 0.655377 -0.486094
C31   C     C_R   0.590944 0.496754 0.323996 0.881826
C32   C     C_R   0.351330 0.484220 0.776934 -0.052288
C33   C     C_R   0.643895 0.471103 0.224171 -0.054465
C34   C     C_R   0.160153 0.509934 0.928168 -0.219781
C35   C     C_R   0.207281 0.516053 0.831621 -0.212031
C36   C     C_R   0.445078 0.439834 0.818662 -0.264569
H1    H     H_    0.101134 0.501131 0.110013 0.147449
H2    H     H_    0.923355 0.338210 0.046369 0.146925
H3    H     H_    0.699822 0.886174 0.532617 0.169504
H4    H     H_    0.699661 0.112984 0.533501 0.171050
H5    H     H_    0.157909 0.115066 0.513483 0.195969
H6    H     H_    0.321169 0.123674 0.402312 0.203061
H7    H     H_    0.159057 0.893133 0.508149 0.146801
H8    H     H_    0.934204 0.360340 0.396852 0.144053
H9    H     H_    0.186624 0.359995 0.397025 0.150289
H10   H     H_    0.011790 0.516818 0.690012 0.175248
H11   H     H_    0.440430 0.526086 0.219467 0.167178
H12   H     H_    0.770419 0.515148 0.690313 0.189597
H13   H     H_    0.772372 0.689123 0.676588 0.206354
H14   H     H_    0.860691 0.408824 0.207987 0.150168
H15   H     H_    0.853335 0.307667 0.910784 0.149721
H16   H     H_    0.049768 0.538966 0.969716 0.149334
H17   H     H_    0.132833 0.549053 0.800110 0.160175
H18   H     H_    0.553786 0.413981 0.773880 0.145262
H19   H     H_    0.270372 0.459800 0.183709 0.144768
H20   H     H_    0.679609 0.327233 0.837410 0.141716
N1    N     N_R   0.856900 0.500860 0.500610 -0.100818
N2    N     N_R   0.142540 0.500820 0.500610 -0.116747
O1    O     O_R   0.385310 0.683210 0.499990 -0.611486
O2    O     O_R   0.614650 0.683240 0.500000 -0.618019
O3    O     O_R   0.319830 0.499970 0.632240 -0.621535
O4    O     O_R   0.549170 0.500000 0.632250 -0.616806
O5    O     O_R   0.385350 0.316760 0.500000 -0.615023
O6    O     O_R   0.614690 0.316790 0.500010 -0.625371
O7    O     O_R   0.450830 0.500000 0.367750 -0.612319
O8    O     O_R   0.680170 0.500030 0.367760 -0.616555
Zn1   Zn    Zn3+2 0.346870 0.499980 0.499990 0.939718
Zn2   Zn    Zn3+2 0.653130 0.500020 0.500010 0.934436
C37   C     C_R   0.334701 0.881109 0.368595 0.204399
C38   C     C_R   0.477062 0.913052 0.307930 -0.165198
C39   C     C_R   0.532675 0.867102 0.216795 -0.150565
C40   C     C_R   0.446624 0.790405 0.184916 -0.113361
C41   C     C_R   0.305359 0.758320 0.244460 -0.158586
C42   C     C_R   0.249991 0.802508 0.336012 -0.120063
H21   H     H_    0.544582 0.974129 0.330769 0.138152
H22   H     H_    0.642140 0.891841 0.170617 0.137324
H23   H     H_    0.489521 0.755396 0.114187 0.140868
H24   H     H_    0.238670 0.698994 0.219716 0.135038
H25   H     H_    0.140094 0.776788 0.381039 0.108241
C43   C     C_3   0.031504 0.724292 0.685531 -0.884282
H26   H     H_    0.000869 0.804847 0.651148 0.233800
H27   H     H_    0.975805 0.734563 0.762100 0.243045
H28   H     H_    0.151309 0.725847 0.667894 0.259970

loop_
_geom_bond_atom_site_label_1
_geom_bond_atom_site_label_2
_ccdc_geom_bond_type
C31   O8    A    
O8    Zn2   S    
C16   C21   A    
C35   H17   S    
C41   C42   A    
C19   C20   A    
C9    H15   S    
C15   H11   S    
C6    H19   S    
C4    C8    A    
C8    H20   S    
C14   C33   A    
C26   H8    S    
C14   H14   S    
C25   C28   A    
C26   C27   A    
C40   H23   S    
C32   C36   A    
C30   H12   S    
C28   C29   S    
C5    C11   A    
C3    C7    A    
C1    O1    A    
C5    C6    A    
C43   H26   S    
C22   H5    S    
C18   C19   A    
C34   C35   A    
O1    Zn1   S    
C11   C15   A    
C8    C9    A    
O7    Zn1   S    
C41   H24   S    
C31   C33   S    
C38   C39   A    
C9    C10   A    
C27   H9    S    
C23   O5    A    
C16   C24   S    
C21   C22   S    
C12   C32   S    
C25   N1    A    
C43   H28   S    
C24   C37   S    
O5    Zn1   S    
C32   C35   A    
C43   H27   S    
C19   H4    S    
C1    O2    A    
C16   C17   A    
C3    C34   A    
C10   C13   A    
C2    C4    A    
C18   H3    S    
C29   C30   S    
C12   O4    A    
O3    Zn1   S    
C20   C23   S    
C17   C18   A    
C7    H1    S    
C37   C42   A    
C13   H2    S    
C23   O6    A    
C30   H13   S    
C42   H25   S    
C22   C24   S    
N1    Zn2   S    
O6    Zn2   S    
C39   H22   S    
C2    C36   A    
C25   C30   S    
C31   O7    A    
C34   H16   S    
C40   C41   A    
C27   N2    A    
C6    C7    A    
C28   N2    A    
C1    C17   S    
O4    Zn2   S    
C29   H10   S    
C2    C3    A    
C39   C40   A    
C12   O3    A    
C22   H6    S    
C29   C43   S    
C37   C38   A    
C26   N1    A    
C36   H18   S    
C10   C11   A    
N2    Zn1   S    
C4    C5    A    
C20   C21   A    
O2    Zn2   S    
C38   H21   S    
C24   H7    S    
C13   C14   A    
C15   C33   A    
