data_str_m2_o10_o29_f0_pcu.sym.136
_audit_creation_date              2012-12-10T16:51:13-0500
_audit_creation_method            fapswitch 2.2
_symmetry_space_group_name_H-M    P1
_symmetry_Int_Tables_number       1
_space_group_crystal_system       triclinic
_cell_length_a                    27.799729
_cell_length_b                    8.666989
_cell_length_c                    7.426652
_cell_angle_alpha                 103.06898
_cell_angle_beta                  93.964715
_cell_angle_gamma                 92.437609
_cell_volume                      1735.74051268

loop_
_atom_site_label
_atom_site_type_symbol
_atom_type_description
_atom_site_fract_x
_atom_site_fract_y
_atom_site_fract_z
_atom_type_partial_charge
C1    C     C_R   0.498537 0.199579 0.453097 0.893235
C2    C     C_R   0.501463 0.800421 0.546903 0.893235
C3    C     C_R   0.102255 0.489677 0.516037 -0.078624
C4    C     C_R   0.897747 0.510410 0.484074 -0.078621
C5    C     C_R   0.124391 0.346697 0.443349 -0.077249
C6    C     C_R   0.875608 0.653367 0.556830 -0.077245
C7    C     C_R   0.094626 0.207291 0.368728 0.206898
C8    C     C_R   0.905371 0.792751 0.631589 0.206913
C9    C     C_R   0.131495 0.628657 0.595956 -0.008923
C10   C     C_R   0.868509 0.371447 0.404040 -0.008933
C11   C     C_R   0.354674 0.497103 0.509050 -0.037728
C12   C     C_R   0.645326 0.502906 0.490956 -0.037736
C13   C     C_R   0.970417 0.360424 0.418096 0.063506
C14   C     C_R   0.029588 0.639686 0.582002 0.063509
C15   C     C_R   0.978352 0.645107 0.571270 0.009156
C16   C     C_R   0.021650 0.354981 0.428932 0.009162
C17   C     C_R   0.949026 0.505406 0.491283 0.074367
C18   C     C_R   0.050977 0.494690 0.508858 0.074368
C19   C     C_R   0.939517 0.225530 0.334233 -0.185107
C20   C     C_R   0.060491 0.774621 0.665680 -0.185081
C21   C     C_R   0.889794 0.231185 0.328349 -0.087488
C22   C     C_R   0.110214 0.768953 0.671542 -0.087456
C23   C     C_R   0.407495 0.499370 0.502805 0.800676
C24   C     C_R   0.592504 0.500631 0.497196 0.800679
C25   C     C_R   0.044659 0.213101 0.363912 -0.241413
C26   C     C_R   0.955339 0.786947 0.636460 -0.241378
C27   C     C_2   0.497838 0.031599 0.426654 -0.362012
C28   C     C_2   0.502162 0.968401 0.573345 -0.362011
C29   C     C_R   0.175428 0.350217 0.448816 0.565206
C30   C     C_R   0.824569 0.649838 0.551321 0.565236
C31   C     C_R   0.181768 0.625245 0.598007 0.557826
C32   C     C_R   0.818236 0.374850 0.401950 0.557822
C33   C     C_R   0.283669 0.505551 0.683238 -0.090127
C34   C     C_R   0.716335 0.494647 0.316808 -0.090100
C35   C     C_R   0.333756 0.509026 0.678394 -0.212222
C36   C     C_R   0.666248 0.491150 0.321645 -0.212207
C37   C     C_R   0.324616 0.481632 0.344973 -0.204218
C38   C     C_R   0.675381 0.518228 0.655010 -0.204199
C39   C     C_R   0.274612 0.478117 0.350235 -0.088649
C40   C     C_R   0.725385 0.521766 0.649757 -0.088659
C41   C     C_R   0.254000 0.489978 0.519151 0.351253
C42   C     C_R   0.746001 0.510073 0.480873 0.351255
Cu1   Cu    Cu3+1 0.505380 0.517380 0.684380 0.957623
Cu2   Cu    Cu3+1 0.494620 0.482620 0.315620 0.957624
H1    H     H_    0.339655 0.472261 0.212486 0.158183
H2    H     H_    0.660338 0.527461 0.787466 0.158181
H3    H     H_    0.462158 0.378178 0.948404 0.225619
H4    H     H_    0.537842 0.621822 0.051595 0.225615
H5    H     H_    0.251794 0.466792 0.223125 0.143552
H6    H     H_    0.748202 0.532974 0.776843 0.143541
H7    H     H_    0.643999 0.479532 0.193145 0.158055
H8    H     H_    0.356005 0.520767 0.806917 0.158077
H9    H     H_    0.732141 0.485602 0.185827 0.140502
H10   H     H_    0.267867 0.514728 0.814251 0.140518
H11   H     H_    0.867980 0.123686 0.263957 0.206744
H12   H     H_    0.132030 0.876480 0.735802 0.206731
H13   H     H_    0.952138 0.112317 0.269769 0.150059
H14   H     H_    0.047876 0.887895 0.729950 0.150028
H15   H     H_    0.024827 0.101501 0.308385 0.160113
H16   H     H_    0.975166 0.898517 0.692215 0.160104
H17   H     H_    0.493769 0.959659 0.285435 0.179935
H18   H     H_    0.506231 0.040341 0.714565 0.179937
N1    N     N_R   0.202520 0.488075 0.523637 -0.477586
N2    N     N_R   0.797481 0.511996 0.476396 -0.477589
N3    N     N_2   0.486510 0.456430 0.038510 -0.218040
N4    N     N_2   0.513490 0.543570 0.961490 -0.218040
O1    O     O_R   0.503500 0.286120 0.619780 -0.583431
O2    O     O_R   0.496500 0.713880 0.380220 -0.583433
O3    O     O_R   0.494410 0.256780 0.308360 -0.582918
O4    O     O_R   0.505590 0.743220 0.691640 -0.582918
O5    O     O_R   0.434810 0.514700 0.655690 -0.592033
O6    O     O_R   0.565190 0.485300 0.344310 -0.592029
O7    O     O_R   0.425720 0.485350 0.344280 -0.584399
O8    O     O_R   0.574280 0.514650 0.655720 -0.584400
O9    O     O_2   0.198308 0.218444 0.380435 -0.478639
O10   O     O_2   0.801688 0.781585 0.619775 -0.478642
O11   O     O_2   0.790168 0.241381 0.328496 -0.507068
O12   O     O_2   0.209839 0.758733 0.671345 -0.507058
I1    I     I_    0.118356 0.975752 0.257397 -0.304714
I2    I     I_    0.881637 0.024260 0.743030 -0.304724

loop_
_geom_bond_atom_site_label_1
_geom_bond_atom_site_label_2
_ccdc_geom_bond_type
C29   N1    A    
C30   N2    A    
C8    C26   A    
C14   C18   A    
C34   C42   A    
C39   C41   A    
C19   H13   S    
C7    I1    S    
C19   C21   A    
C2    O2    A    
C9    C22   A    
C33   H10   S    
C3    C18   A    
C11   C37   A    
C27   H17   S    
C1    O1    A    
C32   O11   S    
C12   C36   A    
C1    C27   S    
Cu1   O8    S    
C40   C42   A    
Cu2   N3    S    
C23   O7    A    
C5    C29   A    
C10   C21   A    
C13   C19   A    
C14   C20   A    
C32   N2    A    
C4    C6    A    
C5    C7    A    
C15   C26   A    
C6    C8    A    
C1    O3    A    
Cu1   Cu2   S    
C3    C9    A    
C23   O5    A    
C30   O10   S    
Cu2   O3    S    
C36   H7    S    
C4    C17   A    
C16   C18   A    
C39   H5    S    
C20   C22   A    
Cu1   O4    S    
Cu2   O2    S    
C41   N1    S    
C20   H14   S    
C42   N2    S    
C27   C28   D    
C24   O6    A    
C31   O12   S    
C21   H11   S    
C16   C25   A    
C15   C17   A    
Cu1   O5    S    
C6    C30   A    
C4    C10   A    
C3    C5    A    
C22   H12   S    
C29   O9    S    
C31   N1    A    
C12   C24   S    
C7    C25   A    
C13   C17   A    
C33   C41   A    
C11   C35   A    
C37   C39   A    
C38   C40   A    
C24   O8    A    
C26   H16   S    
Cu1   N4    S    
C40   H6    S    
C11   C23   S    
C33   C35   A    
Cu2   O6    S    
C34   C36   A    
C12   C38   A    
Cu2   O7    S    
C38   H2    S    
C9    C31   A    
C10   C32   A    
C34   H9    S    
Cu1   O1    S    
N3    N4    D    
C13   C16   A    
C35   H8    S    
C8    I2    S    
C14   C15   A    
C2    C28   S    
C25   H15   S    
H4    N4    S    
C2    O4    A    
C37   H1    S    
H3    N3    S    
C28   H18   S    
