data_str_m12_o9_o24_f0_bcu.sym.43
_audit_creation_date              2012-12-11T17:47:29-0500
_audit_creation_method            fapswitch 2.2
_symmetry_space_group_name_H-M    P1
_symmetry_Int_Tables_number       1
_space_group_crystal_system       triclinic
_cell_length_a                    14.83308
_cell_length_b                    15.009224
_cell_length_c                    15.141018
_cell_angle_alpha                 110.155332
_cell_angle_beta                  109.386616
_cell_angle_gamma                 108.566596
_cell_volume                      2604.26223159

loop_
_atom_site_label
_atom_site_type_symbol
_atom_type_description
_atom_site_fract_x
_atom_site_fract_y
_atom_site_fract_z
_atom_type_partial_charge
C1    C     C_R   0.914537 0.198003 0.999157 -0.090629
C2    C     C_R   0.838876 0.963768 0.917769 -0.158234
C3    C     C_R   0.194991 0.086287 0.795590 -0.302105
C4    C     C_R   0.735394 0.901988 0.126326 -0.166186
C5    C     C_R   0.092765 0.040617 0.788416 0.782034
C6    C     C_R   0.807531 0.917098 0.086060 0.787689
C7    C     C_R   0.668708 0.296658 0.183506 -0.328271
C8    C     C_R   0.365458 0.725541 0.901984 -0.346456
C9    C     C_R   0.770786 0.368313 0.277890 -0.278865
C10   C     C_R   0.295233 0.640198 0.795149 -0.299722
C11   C     C_R   0.850582 0.336076 0.302865 -0.102808
C12   C     C_R   0.024636 0.748988 0.936398 -0.116475
C13   C     C_R   0.245850 0.660713 0.713220 -0.083280
C14   C     C_R   0.825930 0.230635 0.232140 0.632120
C15   C     C_R   0.277278 0.769258 0.738204 0.680827
C16   C     C_R   0.295111 0.804366 0.205642 -0.133670
C17   C     C_R   0.684047 0.242125 0.775898 -0.115970
C18   C     C_R   0.724059 0.159840 0.137701 -0.431217
C19   C     C_R   0.352778 0.854756 0.844434 -0.423493
C20   C     C_R   0.645658 0.193005 0.113297 0.813864
C21   C     C_R   0.395484 0.832887 0.926699 0.808149
C22   C     C_R   0.961774 0.418817 0.498305 -0.167685
C23   C     C_R   0.297208 0.866718 0.299240 0.043740
C24   C     C_R   0.148014 0.561870 0.512518 -0.092347
C25   C     C_R   0.055178 0.496365 0.598487 0.115876
C26   C     C_R   0.052987 0.485729 0.412521 0.109659
C27   C     C_R   0.149904 0.569815 0.607268 0.093390
C28   C     C_R   0.958449 0.412010 0.404462 0.151403
C29   C     C_R   0.086093 0.037329 0.877656 -0.121843
C30   C     C_R   0.774558 0.841964 0.979603 -0.166552
C31   C     C_R   0.284213 0.117784 0.977513 -0.076646
C32   C     C_R   0.599616 0.734172 0.956975 -0.122669
C33   C     C_R   0.070789 0.928374 0.357486 -0.166178
C34   C     C_R   0.674319 0.214845 0.673922 0.036516
C35   C     C_R   0.818515 0.044183 0.508024 -0.235460
C36   C     C_R   0.175853 0.993144 0.379200 -0.154053
C37   C     C_R   0.722446 0.036783 0.509301 -0.218529
C38   C     C_R   0.268587 0.018689 0.470325 0.070825
C39   C     C_R   0.670326 0.087057 0.465578 0.116183
C40   C     C_R   0.225410 0.408956 0.977319 -0.103635
C41   C     C_R   0.787021 0.590430 0.092825 -0.085631
C42   C     C_R   0.254337 0.992837 0.547409 -0.241290
C43   C     C_R   0.709392 0.136218 0.413049 -0.269500
C44   C     C_R   0.148825 0.932100 0.527560 -0.087404
C45   C     C_R   0.325906 0.500313 0.055853 0.027043
C46   C     C_R   0.804318 0.142647 0.411944 -0.205555
C47   C     C_R   0.056693 0.897178 0.431210 0.672088
C48   C     C_R   0.861116 0.100158 0.461599 0.666336
C49   C     C_R   0.472475 0.128639 0.564157 -0.222583
C50   C     C_R   0.476674 0.015797 0.377838 -0.214106
C51   C     C_R   0.573231 0.145230 0.568728 0.060666
C52   C     C_R   0.379151 0.980885 0.379787 0.043328
C53   C     C_R   0.573862 0.087822 0.472566 0.039093
C54   C     C_R   0.373876 0.045055 0.470082 0.071513
C55   C     C_R   0.290398 0.123190 0.889310 -0.164966
C56   C     C_R   0.696221 0.499653 0.064142 0.065401
C57   C     C_R   0.630694 0.812093 0.060999 -0.195302
C58   C     C_R   0.836691 0.874860 0.928314 0.123168
C59   C     C_R   0.979435 0.976418 0.867948 0.135881
C60   C     C_R   0.182722 0.076312 0.972337 -0.234799
C61   C     C_R   0.671194 0.749181 0.916047 -0.211924
C62   C     C_R   0.902250 0.832584 0.901178 0.020568
C63   C     C_R   0.921840 0.024547 0.905202 0.049931
C64   C     C_R   0.059889 0.588504 0.313437 0.771541
C65   C     C_R   0.996278 0.410445 0.697615 0.674667
C66   C     C_3   0.487602 0.413301 0.988104 -0.149454
C67   C     C_R   0.047250 0.496028 0.320389 -0.146446
C68   C     C_3   0.545308 0.586440 0.171294 -0.135273
C69   C     C_3   0.462834 0.506085 0.993839 -0.133968
C70   C     C_3   0.572960 0.494025 0.166116 -0.103297
C71   C     C_3   0.428971 0.500597 0.077954 0.174704
C72   C     C_3   0.604594 0.498909 0.080438 0.182596
C73   C     C_3   0.453725 0.408044 0.072978 -0.192253
C74   C     C_3   0.579621 0.591346 0.086944 -0.186852
C75   C     C_R   0.315112 0.591415 0.069101 -0.146508
C76   C     C_R   0.698286 0.409160 0.003210 -0.160825
C77   C     C_R   0.984439 0.408826 0.217658 -0.231206
C78   C     C_R   0.043829 0.500476 0.690203 -0.102367
C79   C     C_R   0.078840 0.591340 0.784788 -0.229847
C80   C     C_R   0.209813 0.799926 0.301189 -0.104532
C81   C     C_R   0.779120 0.254395 0.688520 -0.120731
C82   C     C_R   0.005801 0.200665 0.908590 -0.138857
C83   C     C_R   0.930124 0.747800 0.024928 -0.116545
C84   C     C_R   0.951646 0.138573 0.941568 0.081202
C85   C     C_R   0.945076 0.773817 0.948708 0.078360
C86   C     C_R   0.952412 0.871682 0.848480 -0.201544
F1    F     F_    0.547224 0.124824 0.021322 -0.715662
F2    F     F_    0.464351 0.915494 0.030617 -0.692763
F3    F     F_    0.901951 0.197702 0.253607 -0.635021
F4    F     F_    0.229687 0.792134 0.661728 -0.677884
F5    F     F_    0.000494 0.002204 0.696123 -0.695875
F6    F     F_    0.907391 0.007817 0.147909 -0.632010
F7    F     F_    0.102118 0.688832 0.397476 -0.698663
F8    F     F_    0.980981 0.311049 0.638391 -0.728705
H1    H     H_    0.856501 0.168986 0.024149 0.115746
H2    H     H_    0.271916 0.557461 0.778013 0.194326
H3    H     H_    0.706141 0.079450 0.083157 0.195060
H4    H     H_    0.374691 0.937673 0.863504 0.237823
H5    H     H_    0.887759 0.367821 0.493888 0.126081
H6    H     H_    0.218664 0.618672 0.516793 0.166061
H7    H     H_    0.400306 0.335396 0.070558 0.132163
H8    H     H_    0.639701 0.666186 0.099009 0.151357
H9    H     H_    0.340865 0.831862 0.169061 0.121270
H10   H     H_    0.619099 0.224705 0.795497 0.103443
H11   H     H_    0.178871 0.070925 0.040660 0.166988
H12   H     H_    0.061279 0.762210 0.888769 0.101955
H13   H     H_    0.644175 0.691713 0.833418 0.156599
H14   H     H_    0.000691 0.899144 0.281132 0.181435
H15   H     H_    0.860590 0.009067 0.545347 0.243094
H16   H     H_    0.184800 0.011261 0.318279 0.160128
H17   H     H_    0.691130 0.995983 0.547719 0.160649
H18   H     H_    0.324175 0.010623 0.617688 0.168285
H19   H     H_    0.669062 0.173535 0.377153 0.161130
H20   H     H_    0.139125 0.907371 0.584510 0.211478
H21   H     H_    0.837537 0.185989 0.377750 0.192397
H22   H     H_    0.470361 0.175664 0.635335 0.127931
H23   H     H_    0.200590 0.092241 0.728333 0.173479
H24   H     H_    0.481412 0.973422 0.307056 0.147581
H25   H     H_    0.992386 0.834248 0.813544 0.142468
H26   H     H_    0.786034 0.993641 0.935762 0.120443
H27   H     H_    0.416081 0.511012 0.922880 0.117984
H28   H     H_    0.621545 0.491979 0.238325 0.131950
H29   H     H_    0.464533 0.342311 0.912375 0.116273
H30   H     H_    0.565880 0.657190 0.245741 0.118817
H31   H     H_    0.207706 0.325219 0.943155 0.107068
H32   H     H_    0.814153 0.674075 0.147673 0.157788
H33   H     H_    0.379316 0.675420 0.119740 0.107171
H34   H     H_    0.759469 0.960940 0.207109 0.186993
H35   H     H_    0.644356 0.325727 0.976550 0.120053
H36   H     H_    0.966144 0.326583 0.194023 0.202125
H37   H     H_    0.129129 0.674969 0.810097 0.147568
H38   H     H_    0.183619 0.818916 0.359200 0.178613
H39   H     H_    0.803998 0.259106 0.630935 0.157300
H40   H     H_    0.024801 0.173887 0.845080 0.133102
H41   H     H_    0.876418 0.756875 0.056311 0.104036
H42   H     H_    0.369142 0.156143 0.893707 0.171737
H43   H     H_    0.575615 0.800826 0.093257 0.161289
H44   H     H_    0.765478 0.798860 0.326211 0.356179
H45   H     H_    0.358137 0.145832 0.049951 0.162076
H46   H     H_    0.077044 0.154976 0.632517 0.361474
H47   H     H_    0.519833 0.662397 0.907401 0.142119
H48   H     H_    0.606920 0.320836 0.164342 0.157146
H49   H     H_    0.394731 0.707576 0.965593 0.154069
H50   H     H_    0.787702 0.448673 0.331411 0.202277
N1    N     N_R   0.947560 0.293820 0.002910 -0.052034
N2    N     N_R   0.789450 0.443190 0.997090 -0.041431
N3    N     N_R   0.945970 0.443180 0.152110 -0.075713
N4    N     N_R   0.054030 0.556820 0.847890 -0.072689
N5    N     N_R   0.151530 0.706170 0.208880 -0.059883
N6    N     N_R   0.848470 0.293830 0.791120 -0.042456
N7    N     N_R   0.004980 0.293810 0.946140 -0.045762
N8    N     N_R   0.995020 0.706190 0.053860 -0.052496
N9    N     N_R   0.052440 0.706180 0.997090 -0.041892
N10   N     N_R   0.208960 0.706170 0.152110 -0.045048
N11   N     N_R   0.791040 0.293830 0.847890 -0.045014
N12   N     N_R   0.154330 0.443160 0.946140 -0.041856
N13   N     N_R   0.845670 0.556840 0.053860 -0.053179
N14   N     N_R   0.002190 0.556820 0.208880 -0.103131
N15   N     N_R   0.997810 0.443180 0.791120 -0.108756
N16   N     N_R   0.210550 0.556810 0.002910 -0.040582
Ni1   Ni    Ni4+2 0.869690 0.369690 0.000000 0.213458
Ni2   Ni    Ni4+2 0.130310 0.630310 0.000000 0.211038
Ni3   Ni    Ni4+2 0.001390 0.369680 0.869810 0.258143
Ni4   Ni    Ni4+2 0.998610 0.630320 0.130190 0.245220
O1    O     O_2   0.898010 0.694725 0.341660 -0.311850
O2    O     O_2   0.919598 0.833384 0.502975 -0.229985
O3    O     O_3   0.832009 0.831242 0.321473 -0.582307
O4    O     O_2   0.969796 0.057119 0.361351 -0.215977
O5    O     O_2   0.055501 0.243425 0.505126 -0.220779
O6    O     O_3   0.058669 0.098786 0.561244 -0.532389
S1    S     S_3+6 0.924365 0.810989 0.400525 -0.030909
S2    S     S_3+6 0.989165 0.126456 0.471388 0.036440

loop_
_geom_bond_atom_site_label_1
_geom_bond_atom_site_label_2
_ccdc_geom_bond_type
C75   N16   A    
O1    S1    D    
C12   H12   S    
C58   C62   A    
C80   H38   S    
C45   C71   S    
C14   C18   A    
C1    N1    A    
C67   C77   A    
C24   C27   A    
C12   N9    A    
C65   N15   A    
C68   H30   S    
C41   C56   A    
N2    N13   A    
N11   Ni1   S    
C1    C84   A    
C15   C19   A    
N6    Ni3   S    
C62   C86   A    
C34   C51   S    
N1    Ni1   S    
C46   H21   S    
C56   C76   A    
C26   C67   S    
C19   C21   A    
C17   H10   S    
C24   C26   A    
C64   F7    S    
C38   C42   A    
C11   C14   A    
C66   C69   S    
C68   C74   S    
C81   N6    A    
C20   F1    S    
C33   C36   A    
C69   C71   S    
C42   H18   S    
C82   C84   A    
C3    H23   S    
C48   S2    S    
C3    C55   A    
C9    H50   S    
C66   C72   S    
C29   C59   S    
N12   Ni3   S    
C49   C51   A    
C22   C25   A    
C4    C57   A    
C50   C52   A    
C86   H25   S    
C65   C78   A    
C34   C81   A    
C10   H2    S    
C23   C80   A    
C49   C54   A    
C77   N3    A    
C83   H41   S    
C82   N7    A    
C35   H15   S    
C44   C47   A    
N14   Ni4   S    
C74   H8    S    
C73   H7    S    
C21   F2    S    
C44   H20   S    
O2    S1    D    
C24   H6    S    
C40   C45   A    
C33   H14   S    
C42   C44   A    
C32   C57   A    
C35   C48   A    
C22   C28   A    
N2    Ni1   S    
C19   H4    S    
C52   C54   A    
C5    C29   A    
C80   N5    A    
C62   C85   S    
C46   C48   A    
C50   C53   A    
C4    H34   S    
C25   C78   S    
C64   C67   A    
N12   N16   A    
C72   C74   S    
N3    Ni1   S    
C71   C73   S    
C2    H26   S    
C78   C79   A    
C39   C43   A    
C56   C72   S    
C66   C73   S    
C6    C30   A    
H44   O3    S    
C51   C53   A    
N4    N15   A    
N16   Ni2   S    
C31   C60   A    
C82   H40   S    
N5    N10   A    
C14   F3    S    
C76   H35   S    
C70   H28   S    
C16   H9    S    
C38   C54   S    
C29   C60   A    
C69   H27   S    
C1    H1    S    
C79   H37   S    
C70   C73   S    
C8    C21   A    
C57   H43   S    
C69   C74   S    
N5    Ni4   S    
N1    N7    A    
C9    C11   A    
N13   Ni4   S    
C32   H47   S    
N8    Ni4   S    
C41   N13   A    
C12   C85   A    
C4    C6    A    
C65   F8    S    
C18   H3    S    
C16   C23   A    
N7    Ni3   S    
N6    N11   A    
C13   C15   A    
C36   H16   S    
C33   C47   A    
O5    S2    D    
N15   Ni3   S    
C17   C34   A    
C31   H45   S    
C17   N11   A    
C2    C63   A    
C35   C37   A    
C83   N8    A    
C7    C9    A    
H46   O6    S    
C22   H5    S    
C83   C85   A    
C50   H24   S    
C26   C28   A    
C41   H32   S    
N10   Ni2   S    
C8    C10   A    
C40   N12   A    
C3    C5    A    
C10   C13   A    
C32   C61   A    
C47   S1    S    
C2    C58   A    
C81   H39   S    
C79   N4    A    
C25   C27   A    
C63   C84   S    
C59   C63   A    
O3    S1    S    
N9    Ni2   S    
C45   C75   A    
N4    Ni2   S    
C36   C38   A    
C59   C86   A    
C37   C39   A    
C43   H19   S    
C15   F4    S    
C16   N10   A    
C23   C52   S    
C39   C53   S    
O6    S2    S    
C11   C28   S    
C68   C71   S    
C6    F6    S    
C40   H31   S    
C30   C58   S    
C8    H49   S    
C18   C20   A    
C77   H36   S    
C61   H13   S    
C43   C46   A    
C37   H17   S    
C76   N2    A    
O4    S2    D    
C49   H22   S    
N8    N9    A    
C5    F5    S    
C68   C70   S    
C7    C20   A    
C30   C61   A    
C64   N14   A    
C66   H29   S    
C13   C27   S    
C70   C72   S    
C31   C55   A    
N3    N14   A    
C7    H48   S    
C60   H11   S    
C55   H42   S    
C75   H33   S    
