data_str_m4_o4_o24_f0_acs.sym.89
_audit_creation_date              2012-12-11T15:50:45-0500
_audit_creation_method            fapswitch 2.2
_symmetry_space_group_name_H-M    P1
_symmetry_Int_Tables_number       1
_space_group_crystal_system       triclinic
_cell_length_a                    18.949409
_cell_length_b                    11.0672
_cell_length_c                    18.800707
_cell_angle_alpha                 89.933795
_cell_angle_beta                  90.951629
_cell_angle_gamma                 90.065558
_cell_volume                      3942.27702596

loop_
_atom_site_label
_atom_site_type_symbol
_atom_type_description
_atom_site_fract_x
_atom_site_fract_y
_atom_site_fract_z
_atom_type_partial_charge
C1    C     C_R   0.272571 0.041769 0.853997 0.527124
C2    C     C_R   0.727330 0.041860 0.146108 0.528631
C3    C     C_R   0.772643 0.541862 0.853889 0.527960
C4    C     C_R   0.227161 0.541449 0.145930 0.529681
C5    C     C_3   0.529119 0.727102 0.971699 -0.056444
C6    C     C_3   0.470626 0.727288 0.028564 -0.056570
C7    C     C_3   0.028906 0.226729 0.971469 -0.084328
C8    C     C_3   0.970462 0.227378 0.028434 -0.081433
C9    C     C_R   0.242385 0.578641 0.073166 -0.010404
C10   C     C_R   0.756911 0.580224 0.926329 -0.005395
C11   C     C_R   0.743045 0.080273 0.073657 -0.005250
C12   C     C_R   0.256432 0.079778 0.926594 0.000789
C13   C     C_R   0.305275 0.550190 0.039114 -0.002333
C14   C     C_R   0.694482 0.549732 0.960792 -0.001601
C15   C     C_R   0.805488 0.050039 0.039284 -0.002773
C16   C     C_R   0.195041 0.044491 0.961824 -0.010984
C17   C     C_R   0.310325 0.558914 0.965348 0.129963
C18   C     C_R   0.689627 0.558536 0.034555 0.129167
C19   C     C_R   0.810402 0.058876 0.965532 0.129639
C20   C     C_R   0.191089 0.051926 0.035951 0.079869
C21   C     C_R   0.188664 0.620925 0.957599 -0.191393
C22   C     C_R   0.810581 0.624993 0.041566 -0.190345
C23   C     C_R   0.689407 0.124691 0.958374 -0.189746
C24   C     C_R   0.310503 0.126311 0.041402 -0.183701
C25   C     C_R   0.185113 0.619827 0.030981 -0.174857
C26   C     C_R   0.813668 0.624567 0.968128 -0.177892
C27   C     C_R   0.686286 0.124314 0.031792 -0.177734
C28   C     C_R   0.312810 0.126481 0.967940 -0.174321
C29   C     C_3   0.346896 0.436455 0.042480 -0.237038
C30   C     C_3   0.653523 0.435101 0.957808 -0.236880
C31   C     C_3   0.846506 0.935636 0.042489 -0.233849
C32   C     C_3   0.158332 0.925575 0.959082 -0.229821
C33   C     C_3   0.352304 0.444782 0.962165 -0.060131
C34   C     C_3   0.648307 0.443542 0.038150 -0.060629
C35   C     C_3   0.851894 0.944198 0.962154 -0.059996
C36   C     C_3   0.156096 0.930655 0.039581 -0.056138
C37   C     C_R   0.251255 0.590564 0.923434 -0.002429
C38   C     C_R   0.748576 0.591965 0.076182 -0.000518
C39   C     C_R   0.751429 0.091892 0.923841 0.000486
C40   C     C_R   0.249404 0.090510 0.076660 0.008077
C41   C     C_R   0.491124 0.832323 0.419481 0.016539
C42   C     C_R   0.479348 0.831566 0.568488 0.036781
C43   C     C_R   0.990066 0.329912 0.418521 0.007579
C44   C     C_R   0.976204 0.332928 0.567157 0.013737
C45   C     C_R   0.469927 0.821368 0.855420 0.552508
C46   C     C_R   0.530027 0.821404 0.144608 0.549076
C47   C     C_R   0.969966 0.321376 0.855372 0.552422
C48   C     C_R   0.030110 0.321348 0.144541 0.546791
C49   C     C_R   0.475660 0.725943 0.456523 -0.017007
C50   C     C_R   0.470066 0.726375 0.529208 -0.002836
C51   C     C_R   0.979578 0.223341 0.456951 -0.011257
C52   C     C_R   0.972730 0.225585 0.529203 -0.000404
C53   C     C_R   0.482817 0.942785 0.531630 0.088189
C54   C     C_R   0.485146 0.943775 0.455843 0.085536
C55   C     C_R   0.973357 0.443922 0.528400 0.106476
C56   C     C_R   0.976409 0.441238 0.452438 0.088879
C57   C     C_3   0.513665 0.607453 0.458595 -0.265743
C58   C     C_3   0.508402 0.609893 0.538372 -0.273638
C59   C     C_3   0.022180 0.109550 0.460956 -0.263657
C60   C     C_3   0.014347 0.112908 0.540594 -0.274361
C61   C     C_R   0.241191 0.577099 0.426489 0.017205
C62   C     C_R   0.751909 0.590152 0.577363 0.016176
C63   C     C_R   0.744096 0.084114 0.424373 0.013132
C64   C     C_R   0.254151 0.082474 0.574813 0.019420
C65   C     C_R   0.181026 0.595797 0.466796 0.055625
C66   C     C_R   0.806319 0.644942 0.541197 0.078283
C67   C     C_R   0.685106 0.114977 0.463478 0.062440
C68   C     C_R   0.308481 0.138252 0.539104 0.038959
C69   C     C_R   0.185417 0.603652 0.539291 0.010363
C70   C     C_R   0.805209 0.650151 0.468703 0.010266
C71   C     C_R   0.689177 0.123387 0.535994 0.015020
C72   C     C_R   0.309265 0.141182 0.466452 0.016705
C73   C     C_R   0.310053 0.558804 0.534100 -0.163025
C74   C     C_R   0.697043 0.536477 0.464726 -0.175724
C75   C     C_R   0.811782 0.062985 0.532668 -0.163286
C76   C     C_R   0.201556 0.024356 0.461687 -0.172739
C77   C     C_R   0.306009 0.555884 0.460292 -0.178609
C78   C     C_R   0.695842 0.538205 0.538893 -0.182696
C79   C     C_R   0.808330 0.059793 0.458754 -0.178590
C80   C     C_R   0.200102 0.025298 0.535835 -0.171191
C81   C     C_3   0.131651 0.699896 0.459937 -0.267766
C82   C     C_3   0.830126 0.771975 0.549864 -0.280929
C83   C     C_3   0.646529 0.230857 0.454624 -0.274438
C84   C     C_3   0.330944 0.266064 0.547686 -0.290174
C85   C     C_3   0.138230 0.712115 0.539164 -0.271690
C86   C     C_3   0.827808 0.779494 0.470000 -0.264234
C87   C     C_3   0.654527 0.244926 0.533445 -0.270929
C88   C     C_3   0.332842 0.270631 0.467902 -0.260337
C89   C     C_R   0.260712 0.635982 0.851465 0.551001
C90   C     C_R   0.739244 0.636215 0.148420 0.551763
C91   C     C_R   0.760751 0.136207 0.851581 0.552741
C92   C     C_R   0.239431 0.135887 0.148578 0.552627
C93   C     C_R   0.250298 0.588716 0.573818 0.009522
C94   C     C_R   0.750511 0.597541 0.429006 0.016448
C95   C     C_R   0.751969 0.095707 0.571696 0.008816
C96   C     C_R   0.253871 0.089604 0.426542 0.018691
C97   C     C_R   0.270968 0.046099 0.646354 0.545389
C98   C     C_R   0.728991 0.046833 0.353097 0.540529
C99   C     C_R   0.770490 0.547649 0.647229 0.547371
C100  C     C_R   0.228380 0.545613 0.353827 0.541444
C101  C     C_R   0.465889 0.823437 0.644652 0.568343
C102  C     C_R   0.528566 0.823518 0.352018 0.557240
C103  C     C_R   0.964092 0.323627 0.643735 0.552577
C104  C     C_R   0.028431 0.323138 0.351754 0.546048
C105  C     C_R   0.260241 0.637836 0.643652 0.550372
C106  C     C_R   0.739831 0.638745 0.357009 0.541728
C107  C     C_R   0.760696 0.139164 0.643032 0.550221
C108  C     C_R   0.240575 0.136788 0.356133 0.540371
C109  C     C_3   0.470687 0.928352 0.028574 -0.152164
C110  C     C_3   0.529499 0.928173 0.971233 -0.151870
C111  C     C_3   0.971150 0.428413 0.028483 -0.146456
C112  C     C_3   0.029945 0.427703 0.971115 -0.146069
C113  C     C_3   0.432292 0.827423 0.987158 0.099813
C114  C     C_3   0.567684 0.827246 0.012878 0.099536
C115  C     C_3   0.932402 0.327844 0.987101 0.107677
C116  C     C_3   0.067850 0.326377 0.012699 0.095881
C117  C     C_3   0.489793 0.827484 0.930644 0.041305
C118  C     C_3   0.510174 0.827655 0.069390 0.041211
C119  C     C_3   0.989851 0.327475 0.930552 0.051951
C120  C     C_3   0.010363 0.327371 0.069262 0.040512
Cr1   Cr    Cr6+3 0.229640 0.835880 0.747370 1.000673
Cr2   Cr    Cr6+3 0.770360 0.835880 0.252630 1.003223
Cr3   Cr    Cr6+3 0.729640 0.335880 0.747370 1.004759
Cr4   Cr    Cr6+3 0.270360 0.335880 0.252630 0.999935
Cr5   Cr    Cr6+3 0.387390 0.989720 0.750850 1.027087
Cr6   Cr    Cr6+3 0.612610 0.989720 0.249150 1.023205
Cr7   Cr    Cr6+3 0.887390 0.489720 0.750850 1.019684
Cr8   Cr    Cr6+3 0.112610 0.489720 0.249150 1.021670
Cr9   Cr    Cr6+3 0.385770 0.677220 0.749340 1.006413
Cr10  Cr    Cr6+3 0.614230 0.677220 0.250660 1.004270
Cr11  Cr    Cr6+3 0.885770 0.177220 0.749340 1.007775
Cr12  Cr    Cr6+3 0.114230 0.177220 0.250660 1.004684
H1    H     H_    0.077138 0.125478 0.444760 0.173461
H2    H     H_    0.982551 0.036811 0.561405 0.134249
H3    H     H_    0.568384 0.617426 0.441004 0.174804
H4    H     H_    0.475969 0.535439 0.559865 0.132559
H5    H     H_    0.482894 0.533241 0.433093 0.127362
H6    H     H_    0.559704 0.623308 0.566500 0.139147
H7    H     H_    0.994912 0.031607 0.435266 0.130579
H8    H     H_    0.064628 0.130304 0.570075 0.138398
H9    H     H_    0.360503 0.545031 0.559883 0.145286
H10   H     H_    0.654557 0.493722 0.435351 0.119263
H11   H     H_    0.861655 0.044751 0.559051 0.144475
H12   H     H_    0.158633 0.982823 0.432098 0.117197
H13   H     H_    0.352377 0.534147 0.429997 0.126890
H14   H     H_    0.653190 0.494270 0.566317 0.120719
H15   H     H_    0.854195 0.033028 0.429006 0.128753
H16   H     H_    0.156673 0.983543 0.562959 0.117069
H17   H     H_    0.078297 0.672382 0.441623 0.189853
H18   H     H_    0.884364 0.778601 0.572899 0.145939
H19   H     H_    0.591185 0.217858 0.436346 0.161361
H20   H     H_    0.383603 0.276711 0.573623 0.130919
H21   H     H_    0.154775 0.776278 0.429992 0.131629
H22   H     H_    0.789982 0.828856 0.576260 0.135542
H23   H     H_    0.677109 0.296872 0.423121 0.134140
H24   H     H_    0.288671 0.322516 0.570878 0.141613
H25   H     H_    0.167624 0.793685 0.554809 0.171664
H26   H     H_    0.784323 0.837087 0.449535 0.179136
H27   H     H_    0.694189 0.313615 0.548185 0.176618
H28   H     H_    0.291515 0.330268 0.445117 0.183648
H29   H     H_    0.088561 0.698560 0.567832 0.123542
H30   H     H_    0.880296 0.794996 0.446103 0.130071
H31   H     H_    0.604183 0.251558 0.562272 0.129354
H32   H     H_    0.386676 0.283581 0.446601 0.123475
H33   H     H_    0.445981 0.008372 0.053167 0.107924
H34   H     H_    0.554203 0.008052 0.946335 0.108139
H35   H     H_    0.946824 0.508694 0.053147 0.110204
H36   H     H_    0.054505 0.507390 0.945972 0.107956
H37   H     H_    0.553964 0.647252 0.947074 0.154819
H38   H     H_    0.445622 0.647698 0.053479 0.154211
H39   H     H_    0.053749 0.147204 0.946316 0.132269
H40   H     H_    0.945073 0.148130 0.053342 0.141360
H41   H     H_    0.142787 0.651691 0.927648 0.136817
H42   H     H_    0.856523 0.656389 0.071221 0.135798
H43   H     H_    0.643496 0.155992 0.928662 0.131787
H44   H     H_    0.356248 0.159694 0.070597 0.129272
H45   H     H_    0.134809 0.642973 0.053841 0.169206
H46   H     H_    0.863579 0.649640 0.945003 0.149839
H47   H     H_    0.636363 0.149198 0.054860 0.147777
H48   H     H_    0.362049 0.154070 0.944357 0.145382
H49   H     H_    0.813234 0.859549 0.060116 0.158431
H50   H     H_    0.193598 0.854103 0.939274 0.165989
H51   H     H_    0.313936 0.360118 0.060245 0.157304
H52   H     H_    0.686797 0.359232 0.940161 0.158133
H53   H     H_    0.397771 0.447576 0.072038 0.148574
H54   H     H_    0.602485 0.445224 0.928411 0.148514
H55   H     H_    0.897473 0.945975 0.071996 0.153120
H56   H     H_    0.105913 0.931270 0.931835 0.145930
H57   H     H_    0.325255 0.371190 0.932042 0.123582
H58   H     H_    0.675809 0.370436 0.068316 0.124601
H59   H     H_    0.824582 0.870878 0.932010 0.125256
H60   H     H_    0.189288 0.861460 0.066964 0.148144
O1    O     O_R   0.214300 0.709080 0.827500 -0.535215
O2    O     O_R   0.785700 0.709080 0.172500 -0.532745
O3    O     O_R   0.714300 0.209080 0.827500 -0.532444
O4    O     O_R   0.285700 0.209080 0.172500 -0.534556
O5    O     O_R   0.445900 0.919370 0.676500 -0.461531
O6    O     O_R   0.554100 0.919370 0.323500 -0.464502
O7    O     O_R   0.945900 0.419370 0.676500 -0.480378
O8    O     O_R   0.054100 0.419370 0.323500 -0.483152
O9    O     O_R   0.456660 0.717710 0.669820 -0.534850
O10   O     O_R   0.543340 0.717710 0.330180 -0.537147
O11   O     O_R   0.956660 0.217710 0.669820 -0.528464
O12   O     O_R   0.043340 0.217710 0.330180 -0.530419
O13   O     O_R   0.320590 0.625770 0.672930 -0.516091
O14   O     O_R   0.679410 0.625770 0.327070 -0.514616
O15   O     O_R   0.820590 0.125770 0.672930 -0.516651
O16   O     O_R   0.179410 0.125770 0.327070 -0.513049
O17   O     O_3   0.334270 0.834280 0.749190 -0.255041
O18   O     O_3   0.665730 0.834280 0.250810 -0.252445
O19   O     O_3   0.834270 0.334280 0.749190 -0.253640
O20   O     O_3   0.165730 0.334280 0.250810 -0.250693
O21   O     O_R   0.236190 0.958390 0.823150 -0.506229
O22   O     O_R   0.763810 0.958390 0.176850 -0.504858
O23   O     O_R   0.736190 0.458390 0.823150 -0.506071
O24   O     O_R   0.263810 0.458390 0.176850 -0.505228
O25   O     O_R   0.332090 0.075280 0.831290 -0.533273
O26   O     O_R   0.667910 0.075280 0.168710 -0.533452
O27   O     O_R   0.832090 0.575280 0.831290 -0.534388
O28   O     O_R   0.167910 0.575280 0.168710 -0.527584
O29   O     O_R   0.446280 0.918040 0.826620 -0.509880
O30   O     O_R   0.553720 0.918040 0.173380 -0.512526
O31   O     O_R   0.946280 0.418040 0.826620 -0.513084
O32   O     O_R   0.053720 0.418040 0.173380 -0.509941
O33   O     O_R   0.457080 0.716270 0.831760 -0.514168
O34   O     O_R   0.542920 0.716270 0.168240 -0.514073
O35   O     O_R   0.957080 0.216270 0.831760 -0.511614
O36   O     O_R   0.042920 0.216270 0.168240 -0.521103
O37   O     O_R   0.320980 0.624440 0.823040 -0.493576
O38   O     O_R   0.679020 0.624440 0.176960 -0.493113
O39   O     O_R   0.820980 0.124440 0.823040 -0.493564
O40   O     O_R   0.179020 0.124440 0.176960 -0.494069
O41   O     O_R   0.213880 0.710510 0.665560 -0.526358
O42   O     O_R   0.786120 0.710510 0.334440 -0.526178
O43   O     O_R   0.713880 0.210510 0.665560 -0.520721
O44   O     O_R   0.286120 0.210510 0.334440 -0.528649
O45   O     O_R   0.235800 0.959720 0.673040 -0.512661
O46   O     O_R   0.764200 0.959720 0.326960 -0.516196
O47   O     O_R   0.735800 0.459720 0.673040 -0.516009
O48   O     O_R   0.264200 0.459720 0.326960 -0.516435
O49   O     O_R   0.331670 0.076720 0.669350 -0.509012
O50   O     O_R   0.668330 0.076720 0.330650 -0.504608
O51   O     O_R   0.831670 0.576720 0.669350 -0.495255
O52   O     O_R   0.168330 0.576720 0.330650 -0.509329
N1    N     N_3   0.356852 0.823208 0.972069 -0.612295
H61   H     H_    0.346226 0.885607 0.931991 0.249889
H62   H     H_    0.330854 0.851962 0.017591 0.218162
N2    N     N_3   0.643127 0.822739 0.027974 -0.610548
H63   H     H_    0.653908 0.884326 0.068397 0.250457
H64   H     H_    0.669228 0.852187 0.982597 0.220601
N3    N     N_3   0.856931 0.323925 0.972093 -0.610116
H65   H     H_    0.846407 0.385312 0.931443 0.249625
H66   H     H_    0.830997 0.353905 0.017387 0.220550
N4    N     N_3   0.143289 0.320364 0.027732 -0.615284
H67   H     H_    0.154490 0.380476 0.068828 0.250796
H68   H     H_    0.169551 0.350627 0.982647 0.223821
N5    N     N_3   0.490891 0.051703 0.571670 -0.605368
H69   H     H_    0.448974 0.108920 0.559521 0.234463
H70   H     H_    0.537916 0.091947 0.556660 0.228229
N6    N     N_3   0.486285 0.054817 0.415859 -0.604113
H71   H     H_    0.479355 0.130190 0.448015 0.204463
H72   H     H_    0.442583 0.053600 0.381170 0.231369
N7    N     N_3   0.969722 0.556490 0.566470 -0.585383
H73   H     H_    0.976058 0.630902 0.533245 0.218579
H74   H     H_    0.012953 0.559176 0.601603 0.224208
N8    N     N_3   0.970275 0.550155 0.410832 -0.633837
H75   H     H_    0.928762 0.600429 0.430293 0.226574
H76   H     H_    0.951366 0.528528 0.359880 0.237357
N9    N     N_3   0.424438 0.467415 0.939569 -0.615869
H77   H     H_    0.422971 0.482319 0.884669 0.257977
H78   H     H_    0.453073 0.387712 0.947562 0.215417
N10   N     N_3   0.576117 0.464847 0.060892 -0.616079
H79   H     H_    0.577656 0.480110 0.115732 0.257697
H80   H     H_    0.547904 0.384541 0.053249 0.215002
N11   N     N_3   0.924112 0.966152 0.939575 -0.626140
H81   H     H_    0.922791 0.979916 0.884568 0.257468
H82   H     H_    0.952748 0.886648 0.948297 0.225672
N12   N     N_3   0.084216 0.935561 0.066776 -0.636442
H83   H     H_    0.057560 0.010542 0.045966 0.255368
H84   H     H_    0.087801 0.947850 0.121838 0.252271

loop_
_geom_bond_atom_site_label_1
_geom_bond_atom_site_label_2
_ccdc_geom_bond_type
C54   N6    S    
C73   C93   A    
Cr8   O32   S    
C75   C95   A    
C48   C120  S    
C116  N4    S    
C104  O12   A    
C16   C20   A    
C63   C98   S    
Cr3   O23   S    
C5    C6    S    
C20   C40   A    
C71   C95   A    
C92   O40   A    
C3    O23   A    
C22   C38   A    
C29   C33   S    
C33   H57   S    
C9    C13   A    
C109  H33   S    
N4    H68   S    
C72   C88   S    
C11   C15   A    
C12   C16   A    
N10   H79   S    
C107  O15   A    
Cr10  O10   S    
C96   C108  S    
C59   C60   S    
C35   N11   S    
N1    H61   S    
C31   H49   S    
C34   N10   S    
Cr2   O2    S    
C41   C49   A    
N2    H64   S    
C109  C118  S    
C81   H17   S    
C9    C25   A    
C51   C52   A    
C7    C119  S    
N3    H65   S    
C30   C34   S    
C105  O41   A    
Cr1   O21   S    
C66   C82   S    
C91   O3    A    
C11   C27   A    
C68   C72   A    
C89   O1    A    
C45   O33   A    
C28   H48   S    
C75   H11   S    
C76   H12   S    
C64   C97   S    
Cr2   O42   S    
C2    O22   A    
C21   H41   S    
N9    H78   S    
C71   C87   S    
Cr8   O52   S    
C111  H35   S    
Cr9   O17   S    
C24   H44   S    
C60   H2    S    
N7    H74   S    
C47   O31   A    
C84   C88   S    
C92   O4    A    
C106  O14   A    
C97   O45   A    
C38   C90   S    
C69   C93   A    
C46   O30   A    
C18   C38   A    
C19   C35   S    
C76   C96   A    
C84   H24   S    
C44   C55   A    
C66   C70   A    
C113  N1    S    
C87   H27   S    
C88   H28   S    
C98   O50   A    
C78   H14   S    
C62   C99   S    
C72   C96   A    
C61   C65   A    
C80   H16   S    
Cr10  O34   S    
C31   H55   S    
C2    O26   A    
C73   C77   A    
C57   H3    S    
C101  O9    A    
C75   C79   A    
Cr6   O26   S    
C67   C83   S    
C4    O24   A    
C111  C112  S    
C108  O16   A    
Cr11  O15   S    
C7    C8    S    
C53   C54   A    
C64   C68   A    
C42   C53   A    
C48   O36   A    
C101  O5    A    
C115  N3    S    
C49   C57   S    
C41   C102  S    
N5    H69   S    
C43   C104  S    
C52   C60   S    
C61   C77   A    
Cr6   O50   S    
Cr2   O18   S    
C56   N8    S    
Cr8   O28   S    
C100  O52   A    
Cr9   O9    S    
Cr6   O6    S    
C104  O8    A    
C1    C12   S    
C2    C11   S    
C44   C103  S    
Cr3   O47   S    
C62   C66   A    
C34   H58   S    
Cr7   O51   S    
C10   C14   A    
Cr5   O17   S    
C103  O7    A    
C48   O32   A    
C88   H32   S    
C116  C120  S    
C91   O39   A    
Cr4   O44   S    
C7    C116  S    
Cr10  O14   S    
C18   C34   S    
Cr4   O4    S    
C57   H5    S    
C114  C118  S    
C36   N12   S    
N8    H76   S    
C42   C50   A    
C113  C117  S    
C60   H8    S    
C115  C119  S    
Cr11  O19   S    
C61   C100  S    
C42   C101  S    
C112  C116  S    
C69   C85   S    
C6    H38   S    
Cr11  O39   S    
C21   C25   A    
C35   H59   S    
C106  O42   A    
C36   H60   S    
C62   C78   A    
C76   C80   A    
N6    H71   S    
Cr7   O7    S    
C15   C31   S    
Cr5   O29   S    
C16   C32   S    
C13   C17   A    
C45   O29   A    
C57   C58   S    
Cr2   O46   S    
C29   H53   S    
C100  O48   A    
C47   O35   A    
N10   H80   S    
C49   C50   A    
Cr9   O33   S    
N12   H83   S    
C90   O38   A    
C4    C9    S    
C81   C85   S    
C83   C87   S    
C55   C56   A    
C108  O44   A    
C7    H39   S    
C85   H29   S    
C74   C94   A    
N11   H81   S    
Cr7   O27   S    
N7    H73   S    
C73   H9    S    
C15   C19   A    
C85   H25   S    
C12   C28   A    
C13   C29   S    
C70   C94   A    
C27   H47   S    
Cr12  O36   S    
Cr4   O48   S    
C25   H45   S    
C23   H43   S    
Cr10  O38   S    
C45   C117  S    
C46   C118  S    
C39   C91   S    
C107  O43   A    
C114  N2    S    
C4    O28   A    
Cr11  O11   S    
C99   O47   A    
N9    H77   S    
C64   C80   A    
Cr3   O3    S    
C17   C33   S    
C110  C117  S    
Cr1   O1    S    
C83   H19   S    
Cr12  O12   S    
C53   N5    S    
C68   C84   S    
C24   C28   A    
C79   H15   S    
Cr4   O20   S    
C82   C86   S    
Cr2   O22   S    
C50   C58   S    
Cr8   O8    S    
N4    H67   S    
Cr9   O13   S    
C65   C81   S    
C90   O2    A    
C59   H7    S    
C95   C107  S    
Cr3   O43   S    
Cr1   O41   S    
N1    H62   S    
C1    O21   A    
C31   C35   S    
C32   C36   S    
N2    H63   S    
C112  C119  S    
C105  O13   A    
C98   O46   A    
C37   C89   S    
C102  O10   A    
C109  C110  S    
Cr8   O20   S    
C43   C51   A    
C65   C69   A    
C67   C71   A    
C99   O51   A    
C97   O49   A    
C20   C36   S    
Cr11  O35   S    
C21   C37   A    
C3    O27   A    
C22   C26   A    
C5    H37   S    
C1    O25   A    
C8    H40   S    
Cr5   O25   S    
C87   H31   S    
C5    C114  S    
C14   C18   A    
Cr12  O20   S    
C81   H21   S    
C63   C79   A    
C55   N7    S    
C30   H54   S    
C32   H50   S    
N11   H82   S    
C102  O6    A    
C23   C39   A    
N3    H66   S    
C112  H36   S    
Cr9   O37   S    
C8    C115  S    
C93   C105  S    
Cr3   O19   S    
Cr5   O49   S    
C86   H30   S    
C23   C27   A    
C74   C78   A    
Cr7   O31   S    
C83   H23   S    
C10   C26   A    
C47   C119  S    
C74   H10   S    
Cr5   O5    S    
C14   C30   S    
Cr12  O40   S    
C22   H42   S    
C26   H46   S    
C63   C67   A    
C32   H56   S    
N6    H72   S    
Cr6   O18   S    
C58   H4    S    
C59   H1    S    
C5    C117  S    
C111  C120  S    
N5    H70   S    
C6    C113  S    
C46   O34   A    
C17   C37   A    
C40   C92   S    
C86   H26   S    
C82   H18   S    
C19   C39   A    
C84   H20   S    
Cr7   O19   S    
Cr12  O16   S    
Cr1   O17   S    
N12   H84   S    
Cr10  O18   S    
C51   C59   S    
C70   C86   S    
C77   H13   S    
C8    C120  S    
Cr4   O24   S    
C110  C114  S    
C94   C106  S    
C29   H51   S    
C33   N9    S    
C30   H52   S    
C44   C52   A    
Cr6   O30   S    
C109  C113  S    
C3    C10   S    
C110  H34   S    
C58   H6    S    
Cr1   O45   S    
C24   C40   A    
C103  O11   A    
C41   C54   A    
N8    H75   S    
C82   H22   S    
C43   C56   A    
C111  C115  S    
C89   O37   A    
C6    C118  S    
