data_str_m2_o10_o16_f0_pcu.sym.121
_audit_creation_date              2012-12-10T16:44:14-0500
_audit_creation_method            fapswitch 2.2
_symmetry_space_group_name_H-M    P1
_symmetry_Int_Tables_number       1
_space_group_crystal_system       triclinic
_cell_length_a                    7.427725
_cell_length_b                    8.694416
_cell_length_c                    13.370187
_cell_angle_alpha                 93.985672
_cell_angle_beta                  77.088356
_cell_angle_gamma                 103.17526
_cell_volume                      819.301231052

loop_
_atom_site_label
_atom_site_type_symbol
_atom_type_description
_atom_site_fract_x
_atom_site_fract_y
_atom_site_fract_z
_atom_type_partial_charge
C1    C     C_R   0.545247 0.800208 0.503188 0.904839
C2    C     C_R   0.417067 0.509057 0.976131 0.008640
C3    C     C_R   0.461017 0.560852 0.873305 -0.029240
C4    C     C_R   0.559564 0.545563 0.035056 0.079221
C5    C     C_R   0.736945 0.645077 0.994371 0.104214
C6    C     C_R   0.768295 0.712442 0.898792 -0.308693
C7    C     C_R   0.629331 0.677229 0.839780 0.423419
C8    C     C_R   0.530555 0.487012 0.134012 -0.225979
C9    C     C_R   0.841266 0.630760 0.152624 -0.204898
C10   C     C_R   0.332606 0.497051 0.808116 -0.135970
C11   C     C_2   0.570651 0.968078 0.504938 -0.351660
C12   C     C_R   0.398313 0.497532 0.694877 0.899357
C13   C     C_2   0.428952 0.031901 0.495802 -0.370359
C14   C     C_R   0.454575 0.199788 0.497129 0.880023
C15   C     C_R   0.602228 0.510881 0.305590 0.779244
C16   C     C_R   0.877990 0.683421 0.052361 -0.156597
C17   C     C_R   0.664455 0.536709 0.194803 -0.057895
C18   C     C_R   0.146860 0.414652 0.851577 0.388669
C19   C     C_R   0.096994 0.384759 0.956662 -0.228382
C20   C     C_R   0.230360 0.426529 0.017184 -0.216943
Cu1   Cu    Cu3+1 0.321300 0.483160 0.488710 0.975069
Cu2   Cu    Cu3+1 0.678700 0.516840 0.511290 0.978966
H1    H     H_    0.946855 0.670072 0.198559 0.155544
H2    H     H_    0.292393 0.960466 0.487169 0.177524
H3    H     H_    0.010602 0.617477 0.579499 0.237923
H4    H     H_    0.989292 0.382433 0.420587 0.219747
H5    H     H_    0.899422 0.797057 0.871286 0.140604
H6    H     H_    0.014020 0.759469 0.021593 0.144307
H7    H     H_    0.402029 0.405495 0.167552 0.140622
H8    H     H_    0.180012 0.396791 0.096930 0.148086
H9    H     H_    0.954878 0.323574 0.991647 0.145216
H10   H     H_    0.707175 0.039496 0.513644 0.181440
N1    N     N_2   0.947230 0.542220 0.528320 -0.200820
N2    N     N_2   0.052770 0.457780 0.471680 -0.214737
O1    O     O_R   0.383920 0.714220 0.492660 -0.595219
O2    O     O_R   0.685730 0.742660 0.511730 -0.571379
O3    O     O_R   0.275440 0.478800 0.636790 -0.537391
O4    O     O_R   0.577250 0.507240 0.655860 -0.544088
O5    O     O_R   0.314270 0.257340 0.488270 -0.581939
O6    O     O_R   0.616080 0.285780 0.507340 -0.586227
O7    O     O_R   0.422750 0.492760 0.344140 -0.586333
O8    O     O_R   0.724560 0.521200 0.363210 -0.598094
O9    O     O_3   0.017407 0.361145 0.790119 -0.716336
H11   H     H_    0.894755 0.307962 0.833019 0.320420
O10   O     O_3   0.648052 0.765630 0.754469 -0.735812
H12   H     H_    0.771937 0.842011 0.742404 0.321900

loop_
_geom_bond_atom_site_label_1
_geom_bond_atom_site_label_2
_ccdc_geom_bond_type
C16   H6    S    
C2    C4    A    
O9    H11   S    
C6    C7    A    
Cu1   O1    S    
C13   C14   S    
Cu2   O2    S    
C15   O8    A    
C8    C17   A    
Cu1   O5    S    
C6    H5    S    
C4    C8    A    
Cu2   O6    S    
C2    C3    A    
C19   H9    S    
C3    C10   A    
C20   H8    S    
C18   O9    S    
C11   C13   D    
C15   O7    A    
Cu2   O8    S    
C10   C12   S    
C10   C18   A    
Cu1   O7    S    
C8    H7    S    
C7    O10   S    
C9    C17   A    
C9    C16   A    
C11   H10   S    
N1    N2    D    
C3    C7    A    
C12   O4    A    
C5    C6    A    
C13   H2    S    
C14   O6    A    
Cu2   O4    S    
O10   H12   S    
Cu1   O3    S    
C1    O1    A    
C18   C19   A    
C12   O3    A    
C15   C17   S    
Cu2   N1    S    
C9    H1    S    
C5    C16   A    
Cu1   N2    S    
C14   O5    A    
Cu1   Cu2   S    
C2    C20   A    
H4    N2    S    
C19   C20   A    
C1    O2    A    
H3    N1    S    
C4    C5    A    
C1    C11   S    
