data_str_m9_o16_o23_f0_sra.sym.66
_audit_creation_date              2012-12-11T15:12:47-0500
_audit_creation_method            fapswitch 2.2
_symmetry_space_group_name_H-M    P1
_symmetry_Int_Tables_number       1
_space_group_crystal_system       triclinic
_cell_length_a                    22.339601
_cell_length_b                    6.954157
_cell_length_c                    19.375838
_cell_angle_alpha                 89.999044
_cell_angle_beta                  99.212943
_cell_angle_gamma                 89.999798
_cell_volume                      2971.26648333

loop_
_atom_site_label
_atom_site_type_symbol
_atom_type_description
_atom_site_fract_x
_atom_site_fract_y
_atom_site_fract_z
_atom_type_partial_charge
O1    O     O_R   0.448420 0.506120 0.415750 -0.535259
O2    O     O_R   0.551580 0.006120 0.584250 -0.535259
O3    O     O_R   0.436490 0.174470 0.555610 -0.536685
O4    O     O_R   0.563510 0.674470 0.444390 -0.536684
C1    C     C_R   0.421123 0.344554 0.575773 0.718137
C2    C     C_R   0.578877 0.844555 0.424227 0.718139
O5    O     O_R   0.441310 0.176330 0.414520 -0.536502
O6    O     O_R   0.558690 0.676330 0.585480 -0.536503
O7    O     O_R   0.556430 0.007110 0.442150 -0.535331
O8    O     O_R   0.443570 0.507110 0.557850 -0.535328
C3    C     C_R   0.426817 0.345061 0.388373 0.686581
C4    C     C_R   0.573183 0.845058 0.611627 0.686580
O9    O     O_3   0.537770 0.339560 0.509230 -0.365798
O10   O     O_3   0.462230 0.839560 0.490770 -0.365797
V1    V     V_3+5 0.492990 0.064280 0.498290 1.431745
V2    V     V_3+5 0.507010 0.564280 0.501710 1.431747
C5    C     C_R   0.867170 0.975051 0.695603 -0.150209
C6    C     C_R   0.132825 0.474938 0.304400 -0.150207
H1    H     H_    0.954360 0.001935 0.759641 0.140835
H2    H     H_    0.045634 0.501817 0.240362 0.140835
H3    H     H_    0.885588 0.001178 0.647993 0.126790
H4    H     H_    0.114404 0.501013 0.352011 0.126791
C7    C     C_R   0.884510 0.941185 0.821497 -0.049615
C8    C     C_R   0.115489 0.441169 0.178503 -0.049611
C9    C     C_R   0.590017 0.819392 0.739873 -0.162234
C10   C     C_R   0.409986 0.319473 0.260125 -0.162238
C11   C     C_R   0.626633 0.818195 0.805022 -0.108644
C12   C     C_R   0.373373 0.318305 0.194975 -0.108644
C13   C     C_R   0.688946 0.847947 0.811052 -0.154338
C14   C     C_R   0.311058 0.348027 0.188946 -0.154339
C15   C     C_R   0.716627 0.880419 0.751326 0.076756
C16   C     C_R   0.283374 0.380437 0.248673 0.076755
C17   C     C_R   0.678485 0.883247 0.684344 0.068985
C18   C     C_R   0.321514 0.383229 0.315656 0.068985
C19   C     C_R   0.780767 0.909903 0.755850 0.076117
C20   C     C_R   0.219232 0.409892 0.244150 0.076117
C21   C     C_R   0.804808 0.943198 0.693264 0.133064
C22   C     C_R   0.195188 0.443121 0.306738 0.133064
C23   C     C_R   0.766612 0.945280 0.628581 -0.196437
C24   C     C_R   0.233383 0.445169 0.371422 -0.196435
C25   C     C_R   0.704591 0.915476 0.624069 -0.192204
C26   C     C_R   0.295405 0.415396 0.375933 -0.192199
C27   C     C_R   0.822149 0.908308 0.820027 -0.213071
C28   C     C_R   0.177852 0.408330 0.179972 -0.213070
C29   C     C_R   0.906506 0.975122 0.759117 -0.156037
C30   C     C_R   0.093490 0.475037 0.240885 -0.156042
C31   C     C_R   0.614910 0.852086 0.679179 -0.086206
C32   C     C_R   0.385091 0.352102 0.320821 -0.086202
H5    H     H_    0.807512 0.884140 0.869670 0.092259
H6    H     H_    0.192492 0.384213 0.130328 0.092256
H7    H     H_    0.541773 0.794306 0.736726 0.108672
H8    H     H_    0.458233 0.294416 0.263272 0.108670
H9    H     H_    0.606520 0.793120 0.851487 0.130464
H10   H     H_    0.393487 0.293280 0.148509 0.130467
H11   H     H_    0.677129 0.918244 0.572682 0.109095
H12   H     H_    0.322867 0.418137 0.427321 0.109088
C33   C     C_3   0.816795 0.792926 0.274466 -0.128971
C34   C     C_3   0.183204 0.292938 0.725533 -0.128970
C35   C     C_3   0.773563 0.110042 0.232902 -0.330219
C36   C     C_3   0.226440 0.610044 0.767099 -0.330219
C37   C     C_3   0.725187 0.092040 0.282060 -0.323561
C38   C     C_3   0.274817 0.592040 0.717942 -0.323556
H13   H     H_    0.785019 0.820316 0.375697 0.150956
H14   H     H_    0.214979 0.320345 0.624303 0.150955
H15   H     H_    0.854438 0.878486 0.304555 0.158835
H16   H     H_    0.145560 0.378504 0.695446 0.158834
H17   H     H_    0.756519 0.205568 0.188101 0.182839
H18   H     H_    0.243483 0.705565 0.811900 0.182835
H19   H     H_    0.742992 0.158225 0.333563 0.139043
H20   H     H_    0.257014 0.658237 0.666440 0.139041
H21   H     H_    0.683899 0.174076 0.259448 0.161892
H22   H     H_    0.316106 0.674064 0.740556 0.161896
C39   C     C_1   0.624625 0.853898 0.378779 -0.187401
C40   C     C_1   0.375375 0.353895 0.621221 -0.187401
C41   C     C_3   0.790819 0.909293 0.206985 0.154083
C42   C     C_3   0.209181 0.409295 0.793015 0.154081
C43   C     C_3   0.767137 0.766818 0.322221 -0.390923
C44   C     C_3   0.232861 0.266833 0.677778 -0.390924
C45   C     C_3   0.708463 0.878354 0.292389 0.237688
C46   C     C_3   0.291537 0.378353 0.707611 0.237686
C47   C     C_3   0.683462 0.792643 0.219596 -0.313288
C48   C     C_3   0.316536 0.292626 0.780403 -0.313284
C49   C     C_3   0.731586 0.808381 0.169305 -0.097125
C50   C     C_3   0.268413 0.308370 0.830695 -0.097124
C51   C     C_1   0.662475 0.863647 0.340197 -0.075425
C52   C     C_1   0.337525 0.363644 0.659803 -0.075424
C53   C     C_1   0.837297 0.928442 0.159603 -0.076959
C54   C     C_1   0.162703 0.428445 0.840397 -0.076961
C55   C     C_1   0.875272 0.940061 0.121258 -0.161563
C56   C     C_1   0.124728 0.440065 0.878741 -0.161563
H23   H     H_    0.743305 0.659717 0.155284 0.057418
H24   H     H_    0.256692 0.159709 0.844717 0.057417
H25   H     H_    0.671632 0.638597 0.225453 0.121252
H26   H     H_    0.328361 0.138577 0.774545 0.121251
H27   H     H_    0.755895 0.612036 0.327690 0.139524
H28   H     H_    0.244101 0.112049 0.672306 0.139524
H29   H     H_    0.640429 0.866849 0.197838 0.178705
H30   H     H_    0.359571 0.366817 0.802161 0.178705
O11   O     O_R   0.056480 0.288780 0.942210 -0.534672
O12   O     O_R   0.943520 0.788780 0.057790 -0.534673
O13   O     O_R   0.058700 0.616820 0.085490 -0.537899
O14   O     O_R   0.941300 0.116820 0.914510 -0.537901
C57   C     C_R   0.073162 0.448403 0.111712 0.697924
C58   C     C_R   0.926837 0.948407 0.888288 0.697924
O15   O     O_R   0.063520 0.618570 0.944410 -0.536847
O16   O     O_R   0.936480 0.118570 0.055590 -0.536847
O17   O     O_R   0.948420 0.787670 0.915740 -0.535718
O18   O     O_R   0.051580 0.287670 0.084260 -0.535719
C59   C     C_R   0.078934 0.449881 0.924083 0.725478
C60   C     C_R   0.921066 0.949880 0.075917 0.725481
O19   O     O_3   0.962260 0.453430 0.990800 -0.368133
O20   O     O_3   0.037740 0.953430 0.009200 -0.368132
V3    V     V_3+5 0.007000 0.728750 0.001710 1.445697
V4    V     V_3+5 0.993000 0.228750 0.998290 1.445697
H31   H     H_    0.814777 0.179756 0.262106 0.148215
H32   H     H_    0.185227 0.679766 0.737893 0.148212
C61   C     C_2   0.705829 0.903378 0.100590 0.369232
H33   H     H_    0.716249 0.843898 0.052097 0.039302
O21   O     O_2   0.675067 0.049065 0.098615 -0.535270
C62   C     C_2   0.294171 0.403361 0.899409 0.369232
H34   H     H_    0.283748 0.343888 0.947902 0.039302
O22   O     O_2   0.324938 0.549037 0.901384 -0.535270
C63   C     C_2   0.843311 0.601771 0.258162 0.365993
H35   H     H_    0.815434 0.496577 0.227042 0.036503
O23   O     O_2   0.896492 0.564770 0.279405 -0.531934
C64   C     C_2   0.156687 0.101783 0.741837 0.365996
H36   H     H_    0.184564 0.996582 0.772955 0.036504
O24   O     O_2   0.103505 0.064790 0.720595 -0.531933
H37   H     H_    0.784917 0.970299 0.580814 0.125179
H38   H     H_    0.215076 0.470139 0.419191 0.125178
H39   H     H_    0.714140 0.844497 0.863293 0.109215
H40   H     H_    0.285865 0.344604 0.136705 0.109217

loop_
_geom_bond_atom_site_label_1
_geom_bond_atom_site_label_2
_ccdc_geom_bond_type
C22   C24   A    
O12   C60   A    
C64   H36   S    
C48   H26   S    
C11   C13   A    
O13   V3    S    
O1    C3    A    
O2    C4    A    
C42   C50   S    
O11   V4    S    
O20   V4    S    
C34   C42   S    
C63   H35   S    
C23   C25   A    
O5    C3    A    
O16   V4    S    
C7    C29   A    
C16   C20   A    
O15   V3    S    
C19   C21   A    
C5    C29   A    
C61   O21   D    
H13   C43   S    
C44   C46   S    
C63   O23   D    
C28   H6    S    
O11   C59   A    
C7    C27   A    
C50   C62   S    
C38   H20   S    
C36   C38   S    
O18   V4    S    
C1    C40   S    
O17   V3    S    
C24   H38   S    
C26   H12   S    
C34   H16   S    
C25   H11   S    
C44   H28   S    
C18   C26   A    
C46   C52   S    
C15   C17   A    
C57   O18   A    
C19   C27   A    
C9    C31   A    
C10   C32   A    
C35   H17   S    
C37   H21   S    
C24   C26   A    
O6    V2    S    
C48   H30   S    
C3    C32   S    
C2    O7    A    
C4    C31   S    
C6    C30   A    
O20   V3    S    
C47   C49   S    
C62   O22   D    
C43   C45   S    
C21   C23   A    
C35   C37   S    
C41   C49   S    
C33   C43   S    
C17   C25   A    
C46   C48   S    
C45   C47   S    
C12   H10   S    
C27   H5    S    
O5    V1    S    
C23   H37   S    
C55   C60   S    
C36   C42   S    
C5    H3    S    
C42   C54   S    
C16   C18   A    
O4    V2    S    
C9    H7    S    
O14   V4    S    
C10   H8    S    
C33   C63   S    
C47   H25   S    
C7    C58   S    
O6    C4    A    
C11   H9    S    
C38   H22   S    
O19   V3    S    
O1    V2    S    
C5    C21   A    
C40   C52   T    
O14   C58   A    
O2    V1    S    
C39   C51   T    
C41   C53   S    
C54   C56   T    
C34   C64   S    
C48   C50   S    
O9    V1    S    
C8    C28   A    
C15   C19   A    
C20   C28   A    
O4    C2    A    
C18   C32   A    
C35   C41   S    
C45   C51   S    
O3    V1    S    
C62   H34   S    
C2    C39   S    
O16   C60   A    
C38   C46   S    
O15   C59   A    
C64   O24   D    
C6    H4    S    
H14   C44   S    
O12   V3    S    
C33   H15   S    
O3    C1    A    
H1    C29   S    
C9    C11   A    
C49   H23   S    
C10   C12   A    
O13   C57   A    
C8    C57   S    
C37   H19   S    
C33   C41   S    
C53   C55   T    
C6    C22   A    
C8    C30   A    
C12   C14   A    
C13   C15   A    
O8    V2    S    
C61   H33   S    
C14   C16   A    
C49   C61   S    
C13   H39   S    
C47   H29   S    
C37   C45   S    
C17   C31   A    
C20   C22   A    
C43   H27   S    
O19   V4    S    
O10   V2    S    
O7    V1    S    
C36   H32   S    
C34   C44   S    
C14   H40   S    
C1    O8    A    
C36   H18   S    
C35   H31   S    
O9    V2    S    
O10   V1    S    
C50   H24   S    
C56   C59   S    
C58   O17   A    
H2    C30   S    
