data_str_m4_o4_o24_f0_acs.sym.139
_audit_creation_date              2013-03-05T15:51:59-0500
_audit_creation_method            fapswitch 2.2
_symmetry_space_group_name_H-M    P1
_symmetry_Int_Tables_number       1
_space_group_crystal_system       triclinic
_cell_length_a                    18.94859
_cell_length_b                    11.044973
_cell_length_c                    18.698544
_cell_angle_alpha                 89.988483
_cell_angle_beta                  90.461271
_cell_angle_gamma                 90.440981
_cell_volume                      3913.11315242

loop_
_atom_site_label
_atom_site_type_symbol
_atom_site_description
_atom_site_fract_x
_atom_site_fract_y
_atom_site_fract_z
_atom_type_partial_charge
O1    O     O_R   0.214300 0.709080 0.827500 -0.531758
O2    O     O_R   0.785700 0.709080 0.172500 -0.529577
O3    O     O_R   0.714300 0.209080 0.827500 -0.534930
O4    O     O_R   0.285700 0.209080 0.172500 -0.532955
O5    O     O_R   0.236190 0.958390 0.823150 -0.493494
O6    O     O_R   0.763810 0.958390 0.176850 -0.492991
O7    O     O_R   0.736190 0.458390 0.823150 -0.492492
O8    O     O_R   0.263810 0.458390 0.176850 -0.513281
C1    C     C_R   0.290874 0.996407 0.860836 0.544291
C2    C     C_R   0.709443 0.997536 0.139224 0.545468
C3    C     C_R   0.790937 0.496237 0.860814 0.545126
C4    C     C_R   0.226126 0.539625 0.145008 0.558893
O9    O     O_R   0.332090 0.075280 0.831290 -0.485531
O10   O     O_R   0.667910 0.075280 0.168710 -0.476997
O11   O     O_R   0.832090 0.575280 0.831290 -0.490237
O12   O     O_R   0.167910 0.575280 0.168710 -0.433348
O13   O     O_R   0.446280 0.918040 0.826620 -0.544403
O14   O     O_R   0.553720 0.918040 0.173380 -0.536338
O15   O     O_R   0.946280 0.418040 0.826620 -0.550709
O16   O     O_R   0.053720 0.418040 0.173380 -0.484888
C5    C     C_R   0.468165 0.821054 0.856381 0.532021
C6    C     C_R   0.529928 0.820838 0.144681 0.538738
C7    C     C_R   0.970735 0.322233 0.855016 0.527241
C8    C     C_R   0.032942 0.320841 0.143121 0.550705
O17   O     O_R   0.457080 0.716270 0.831760 -0.504989
O18   O     O_R   0.542920 0.716270 0.168240 -0.506859
O19   O     O_R   0.957080 0.216270 0.831760 -0.511609
O20   O     O_R   0.042920 0.216270 0.168240 -0.516792
O21   O     O_R   0.320980 0.624440 0.823040 -0.495316
O22   O     O_R   0.679020 0.624440 0.176960 -0.492051
O23   O     O_R   0.820980 0.124440 0.823040 -0.500080
O24   O     O_R   0.179020 0.124440 0.176960 -0.489765
C9    C     C_R   0.260092 0.634587 0.850531 0.539348
C10   C     C_R   0.740270 0.634320 0.149071 0.542293
C11   C     C_R   0.759532 0.134193 0.850691 0.529985
C12   C     C_R   0.240332 0.134166 0.149112 0.536767
O25   O     O_R   0.213880 0.710510 0.665560 -0.512823
O26   O     O_R   0.786120 0.710510 0.334440 -0.498164
O27   O     O_R   0.713880 0.210510 0.665560 -0.506318
O28   O     O_R   0.286120 0.210510 0.334440 -0.509441
O29   O     O_R   0.235800 0.959720 0.673040 -0.466252
O30   O     O_R   0.764200 0.959720 0.326960 -0.454892
O31   O     O_R   0.735800 0.459720 0.673040 -0.462891
O32   O     O_R   0.264200 0.459720 0.326960 -0.471599
C13   C     C_R   0.269785 0.051133 0.648945 0.576469
C14   C     C_R   0.729186 0.046380 0.353426 0.562155
C15   C     C_R   0.770375 0.549966 0.647840 0.601540
C16   C     C_R   0.230729 0.550609 0.351157 0.556046
O33   O     O_R   0.331670 0.076720 0.669350 -0.480591
O34   O     O_R   0.668330 0.076720 0.330650 -0.481663
O35   O     O_R   0.831670 0.576720 0.669350 -0.463892
O36   O     O_R   0.168330 0.576720 0.330650 -0.494034
O37   O     O_R   0.445900 0.919370 0.676500 -0.480629
O38   O     O_R   0.554100 0.919370 0.323500 -0.467011
O39   O     O_R   0.945900 0.419370 0.676500 -0.416743
O40   O     O_R   0.054100 0.419370 0.323500 -0.474489
C17   C     C_R   0.472195 0.823928 0.648780 0.554959
C18   C     C_R   0.561310 0.819910 0.360349 0.516023
C19   C     C_R   0.975345 0.323980 0.650366 0.586709
C20   C     C_R   0.064838 0.319610 0.359797 0.545352
O41   O     O_R   0.456660 0.717710 0.669820 -0.456417
O42   O     O_R   0.543340 0.717710 0.330180 -0.456761
O43   O     O_R   0.956660 0.217710 0.669820 -0.505103
O44   O     O_R   0.043340 0.217710 0.330180 -0.499401
O45   O     O_R   0.320590 0.625770 0.672930 -0.497270
O46   O     O_R   0.679410 0.625770 0.327070 -0.494161
O47   O     O_R   0.820590 0.125770 0.672930 -0.508858
O48   O     O_R   0.179410 0.125770 0.327070 -0.504843
C21   C     C_R   0.261244 0.640523 0.641926 0.544329
C22   C     C_R   0.725449 0.686840 0.363457 0.537450
C23   C     C_R   0.759247 0.136424 0.644200 0.550269
C24   C     C_R   0.238618 0.140874 0.358081 0.547450
Cr1   Cr    Cr6+3 0.229640 0.835880 0.747370 1.063244
Cr2   Cr    Cr6+3 0.770360 0.835880 0.252630 1.074793
Cr3   Cr    Cr6+3 0.729640 0.335880 0.747370 1.082930
Cr4   Cr    Cr6+3 0.270360 0.335880 0.252630 1.065735
Cr5   Cr    Cr6+3 0.387390 0.989720 0.750850 1.080442
Cr6   Cr    Cr6+3 0.612610 0.989720 0.249150 1.077690
Cr7   Cr    Cr6+3 0.887390 0.489720 0.750850 1.087904
Cr8   Cr    Cr6+3 0.112610 0.489720 0.249150 1.108699
Cr9   Cr    Cr6+3 0.385770 0.677220 0.749340 1.082551
Cr10  Cr    Cr6+3 0.614230 0.677220 0.250660 1.079796
Cr11  Cr    Cr6+3 0.885770 0.177220 0.749340 1.044182
Cr12  Cr    Cr6+3 0.114230 0.177220 0.250660 1.070504
O49   O     O_3   0.334270 0.834280 0.749190 -0.307379
O50   O     O_3   0.665730 0.834280 0.250810 -0.345955
O51   O     O_3   0.834270 0.334280 0.749190 -0.297579
O52   O     O_3   0.165730 0.334280 0.250810 -0.314948
C25   C     C_3   0.470984 0.925581 0.030119 -0.119423
C26   C     C_3   0.528035 0.922628 0.971220 -0.119689
C27   C     C_3   0.968753 0.418503 0.030526 -0.102383
C28   C     C_3   0.025344 0.436804 0.971980 -0.102457
C29   C     C_3   0.427690 0.827548 0.989619 -0.116191
C30   C     C_3   0.567298 0.821397 0.011884 -0.127369
C31   C     C_3   0.935346 0.313175 0.987332 -0.128361
C32   C     C_3   0.073824 0.345299 0.010448 -0.105495
H1    H     H_    0.370134 0.825920 0.978750 0.107124
H2    H     H_    0.624889 0.816749 0.022627 0.101489
H3    H     H_    0.878063 0.300457 0.976457 0.103160
H4    H     H_    0.130995 0.357595 0.022112 0.111480
H5    H     H_    0.452686 0.007095 0.058581 0.154223
H6    H     H_    0.549212 0.001710 0.942016 0.150342
H7    H     H_    0.942998 0.489876 0.062084 0.146423
H8    H     H_    0.041557 0.524040 0.947741 0.119750
C33   C     C_3   0.485533 0.825293 0.932316 0.043706
C34   C     C_3   0.509608 0.824859 0.069435 0.036557
C35   C     C_3   0.992456 0.331012 0.929987 0.043385
C36   C     C_3   0.016301 0.326892 0.067181 0.053598
C37   C     C_3   0.523886 0.723874 0.971846 -0.113931
C38   C     C_3   0.466908 0.726687 0.030251 -0.106196
C39   C     C_3   0.040506 0.240173 0.967106 -0.130444
C40   C     C_3   0.983897 0.221594 0.024968 -0.127573
H9    H     H_    0.543010 0.641639 0.944856 0.122279
H10   H     H_    0.442366 0.646960 0.056405 0.131484
H11   H     H_    0.068649 0.170579 0.936722 0.118186
H12   H     H_    0.969280 0.133314 0.048869 0.123376
C41   C     C_R   0.239806 0.576460 0.071486 0.048424
C42   C     C_R   0.783914 0.510758 0.938757 0.001532
C43   C     C_R   0.716868 0.013133 0.061478 -0.000176
C44   C     C_R   0.283789 0.011153 0.938747 -0.005766
C45   C     C_R   0.302057 0.544533 0.036900 -0.059980
C46   C     C_R   0.727926 0.457425 0.976560 -0.023215
C47   C     C_R   0.772713 0.960659 0.023849 -0.022575
C48   C     C_R   0.228398 0.956361 0.976750 -0.020356
C49   C     C_R   0.307844 0.553813 0.963210 -0.007920
C50   C     C_R   0.715485 0.486940 0.047695 0.016150
C51   C     C_R   0.784491 0.988283 0.952330 0.014506
C52   C     C_R   0.215649 0.986788 0.047661 0.020162
C53   C     C_R   0.187140 0.619176 0.955476 -0.159494
C54   C     C_R   0.822289 0.604167 0.050392 -0.108866
C55   C     C_R   0.677392 0.101918 0.949172 -0.108365
C56   C     C_R   0.322868 0.102675 0.050776 -0.121052
C57   C     C_R   0.182911 0.622993 0.029537 0.215594
C58   C     C_R   0.834899 0.577921 0.979162 0.193016
C59   C     C_R   0.665594 0.078010 0.020879 0.191455
C60   C     C_R   0.334882 0.078150 0.979161 0.182484
C61   C     C_3   0.341795 0.428787 0.039572 -0.248597
C62   C     C_3   0.650867 0.453443 0.959662 -0.250184
C63   C     C_3   0.849944 0.959696 0.040181 -0.252910
C64   C     C_3   0.151449 0.949327 0.959859 -0.254873
C65   C     C_3   0.348716 0.438815 0.959220 -0.230037
C66   C     C_3   0.637527 0.484445 0.037657 -0.253655
C67   C     C_3   0.862554 0.987502 0.961612 -0.256392
C68   C     C_3   0.137725 0.983887 0.037338 -0.258850
C69   C     C_R   0.249438 0.586619 0.921586 -0.016754
C70   C     C_R   0.759361 0.569305 0.083802 -0.027207
C71   C     C_R   0.740274 0.068552 0.915825 -0.025947
C72   C     C_R   0.259607 0.068729 0.083972 -0.031314
H13   H     H_    0.142212 0.648506 0.924006 0.118572
H14   H     H_    0.860868 0.660565 0.077774 0.162205
H15   H     H_    0.638553 0.156186 0.921401 0.160940
H16   H     H_    0.361608 0.158770 0.078255 0.167756
H17   H     H_    0.868827 0.868877 0.056310 0.166002
H18   H     H_    0.133796 0.856235 0.946602 0.148860
H19   H     H_    0.307800 0.351794 0.056154 0.164167
H20   H     H_    0.632214 0.361409 0.944911 0.170547
H21   H     H_    0.392920 0.437630 0.068690 0.151160
H22   H     H_    0.635710 0.525519 0.921323 0.149480
H23   H     H_    0.865648 0.034402 0.076882 0.149229
H24   H     H_    0.135822 0.017670 0.919658 0.149404
H25   H     H_    0.403941 0.454964 0.941740 0.164046
H26   H     H_    0.613654 0.574559 0.046015 0.146061
H27   H     H_    0.886791 0.077426 0.951702 0.151548
H28   H     H_    0.113997 0.074446 0.044189 0.147485
H29   H     H_    0.320060 0.365997 0.929560 0.178823
H30   H     H_    0.612328 0.409158 0.067812 0.191623
H31   H     H_    0.887190 0.911304 0.932370 0.184895
H32   H     H_    0.112288 0.910482 0.068728 0.185294
C73   C     C_R   0.539464 0.830512 0.433781 0.039089
C74   C     C_R   0.497725 0.831553 0.576621 0.072650
C75   C     C_R   0.058149 0.325650 0.438429 -0.021788
C76   C     C_R   0.018747 0.327654 0.584665 0.067234
C77   C     C_R   0.470811 0.798459 0.451810 0.122961
C78   C     C_R   0.450463 0.797942 0.522536 0.056612
C79   C     C_R   0.036870 0.222525 0.473367 -0.027248
C80   C     C_R   0.015554 0.224568 0.543112 0.086852
C81   C     C_R   0.567761 0.860393 0.559782 -0.089585
C82   C     C_R   0.588514 0.860536 0.487934 -0.137930
C83   C     C_R   0.056353 0.427119 0.555633 -0.079590
C84   C     C_R   0.072876 0.427768 0.481351 -0.124570
C85   C     C_3   0.404521 0.859588 0.428118 -0.251721
C86   C     C_3   0.382301 0.857969 0.505465 -0.297862
C87   C     C_3   0.978328 0.142668 0.452135 -0.153076
C88   C     C_3   0.953450 0.146537 0.528355 -0.185740
H33   H     H_    0.605695 0.882483 0.601490 0.126869
H34   H     H_    0.642708 0.881793 0.474668 0.097870
H35   H     H_    0.069589 0.504948 0.587995 0.176429
H36   H     H_    0.093089 0.507960 0.456695 0.189499
H37   H     H_    0.000774 0.055494 0.433976 0.262034
H38   H     H_    0.902993 0.196225 0.534411 0.140827
H39   H     H_    0.370902 0.801270 0.393307 0.175701
H40   H     H_    0.380351 0.948194 0.530309 0.188503
H41   H     H_    0.414020 0.952504 0.407127 0.175068
H42   H     H_    0.335531 0.800385 0.515855 0.125565
H43   H     H_    0.941200 0.188820 0.414861 0.193020
H44   H     H_    0.956671 0.060081 0.558099 0.234626
C89   C     C_R   0.253287 0.602987 0.418394 -0.021717
C90   C     C_R   0.745995 0.614341 0.584524 0.007184
C91   C     C_R   0.746509 0.081646 0.425326 -0.027252
C92   C     C_R   0.250267 0.102158 0.580863 -0.020626
C93   C     C_R   0.197328 0.648099 0.456830 -0.025198
C94   C     C_R   0.795268 0.684303 0.546285 -0.049943
C95   C     C_R   0.690239 0.130846 0.462182 0.001215
C96   C     C_R   0.308081 0.138055 0.540793 -0.019591
C97   C     C_R   0.196518 0.644966 0.529758 -0.070650
C98   C     C_R   0.787696 0.695462 0.474309 -0.049148
C99   C     C_R   0.689041 0.133813 0.534772 -0.025282
C100  C     C_R   0.306976 0.136739 0.468109 -0.060288
C101  C     C_R   0.313771 0.561579 0.530415 -0.173005
C102  C     C_R   0.670579 0.615316 0.478180 -0.155611
C103  C     C_R   0.797560 0.021491 0.539349 -0.170448
C104  C     C_R   0.185565 0.068548 0.470684 -0.168111
C105  C     C_R   0.314849 0.564850 0.455110 0.128745
C106  C     C_R   0.678553 0.593563 0.552383 0.147073
C107  C     C_R   0.801453 0.024097 0.464266 0.159788
C108  C     C_R   0.186940 0.069813 0.545829 0.147380
C109  C     C_3   0.167424 0.771804 0.452292 0.088113
C110  C     C_3   0.874500 0.686533 0.535223 0.139260
C111  C     C_3   0.657213 0.252378 0.453796 0.091406
C112  C     C_3   0.349887 0.252281 0.545676 0.101133
C113  C     C_3   0.163729 0.767508 0.532744 -0.167681
C114  C     C_3   0.862465 0.675476 0.455776 -0.138372
C115  C     C_3   0.655209 0.256954 0.534502 -0.168047
C116  C     C_3   0.349957 0.251372 0.464895 -0.163316
C117  C     C_R   0.254347 0.602585 0.568216 -0.045919
C118  C     C_R   0.728020 0.659936 0.438568 -0.043469
C119  C     C_R   0.745292 0.086806 0.574481 -0.037928
C120  C     C_R   0.245614 0.103938 0.431465 -0.043542
H45   H     H_    0.361419 0.537752 0.559316 0.209895
H46   H     H_    0.620651 0.596673 0.451691 0.201071
H47   H     H_    0.839798 0.981730 0.570466 0.156758
H48   H     H_    0.136721 0.046703 0.443114 0.195495
H49   H     H_    0.206093 0.838103 0.430445 0.101226
H50   H     H_    0.896963 0.773838 0.554145 0.183489
H51   H     H_    0.692485 0.321704 0.429262 0.115046
H52   H     H_    0.319901 0.327359 0.570237 0.102244
H53   H     H_    0.199452 0.835032 0.557932 0.147904
H54   H     H_    0.886428 0.742738 0.420128 0.241507
H55   H     H_    0.690245 0.329613 0.555961 0.146377
H56   H     H_    0.319260 0.327012 0.442027 0.154079
H57   H     H_    0.109925 0.760988 0.555616 0.238952
H58   H     H_    0.869516 0.582493 0.434194 0.176123
H59   H     H_    0.601229 0.254610 0.557391 0.243832
H60   H     H_    0.402521 0.236953 0.440457 0.238772
N1    N     N_R   0.379168 0.538082 0.417541 0.070357
O53   O     O_R   0.433270 0.493976 0.451747 -0.278288
O54   O     O_R   0.387650 0.573188 0.351700 -0.317336
N2    N     N_R   0.619016 0.552254 0.593306 0.071307
O55   O     O_R   0.564680 0.503171 0.561296 -0.274727
O56   O     O_R   0.613451 0.582600 0.660255 -0.321787
N3    N     N_R   0.863157 0.976079 0.429804 0.051499
O57   O     O_R   0.910448 0.921836 0.468347 -0.427720
O58   O     O_R   0.881807 0.011776 0.366262 -0.330971
N4    N     N_R   0.124726 0.039302 0.585743 0.067230
O59   O     O_R   0.074908 0.973830 0.556841 -0.376126
O60   O     O_R   0.114604 0.085674 0.648803 -0.335788
N5    N     N_R   0.098343 0.775701 0.416600 0.116364
O61   O     O_R   0.089882 0.844840 0.360932 -0.319893
O62   O     O_R   0.044410 0.715280 0.440964 -0.319931
N6    N     N_R   0.914228 0.586574 0.562876 0.103773
O63   O     O_R   0.966072 0.611561 0.606414 -0.350698
O64   O     O_R   0.898407 0.475405 0.545483 -0.392027
N7    N     N_R   0.586857 0.246379 0.421048 0.125040
O65   O     O_R   0.567440 0.330236 0.376368 -0.284236
O66   O     O_R   0.544081 0.156449 0.434230 -0.299391
N8    N     N_R   0.420035 0.235188 0.577272 0.125263
O67   O     O_R   0.444018 0.312859 0.623913 -0.287359
O68   O     O_R   0.458305 0.142064 0.560753 -0.316088
O69   O     O_3   0.121929 0.665460 0.060985 -0.672419
H61   H     H_    0.087680 0.691726 0.023860 0.308551
O70   O     O_3   0.894845 0.629120 0.950543 -0.712660
H62   H     H_    0.916543 0.568299 0.919288 0.351892
O71   O     O_3   0.606198 0.129206 0.049703 -0.697481
H63   H     H_    0.583379 0.067517 0.079994 0.353928
O72   O     O_3   0.394551 0.130011 0.950291 -0.697066
H64   H     H_    0.417022 0.068741 0.919837 0.354983

loop_
_geom_bond_atom_site_label_1
_geom_bond_atom_site_label_2
_geom_bond_distance
_ccdc_geom_bond_type
C18   O42   1.303691 A    
C101  H45   1.082681 S    
C103  C107  1.406762 A    
O4    C12   1.264141 A    
C99   C115  1.508040 S    
C8    O20   1.261771 A    
O39   C19   1.293745 A    
O20   Cr12  2.088563 S    
C31   C35   1.541097 S    
O29   C13   1.277324 A    
O37   Cr5   1.950434 S    
C39   C40   1.542234 S    
C38   H10   1.108161 S    
C28   C32   1.544695 S    
C115  H55   1.110592 S    
C112  N8    1.463780 S    
C43   C47   1.404379 A    
C78   C86   1.488648 S    
O26   C22   1.299900 A    
C50   C70   1.397923 A    
C81   H33   1.082934 S    
N7    O65   1.300464 A    
C30   H2    1.109595 S    
C113  H57   1.110562 S    
C85   C86   1.509635 S    
O45   C21   1.272596 A    
C13   C92   1.438864 S    
O7    C3    1.314738 A    
O5    C1    1.314613 A    
C103  H47   1.081559 S    
C112  H52   1.110404 S    
C68   H32   1.110178 S    
C91   C107  1.419806 A    
O24   C12   1.280702 A    
C98   C114  1.479473 S    
C55   C59   1.386101 A    
C31   C40   1.538945 S    
O26   Cr2   2.084423 S    
C104  H48   1.081438 S    
C31   H3    1.110561 S    
C54   C70   1.401840 A    
N3    O58   1.302477 A    
O47   C23   1.282791 A    
C83   H35   1.078164 S    
C66   H26   1.108066 S    
C63   H17   1.108535 S    
C75   C79   1.372433 A    
O70   H62   0.984948 S    
O21   C9    1.272593 A    
O8    Cr4   1.962941 S    
Cr8   O52   1.996920 S    
O23   Cr11  1.939598 S    
C61   H19   1.108562 S    
N7    O66   1.301940 A    
N5    O61   1.300465 A    
O30   C14   1.271409 A    
C45   C61   1.489296 S    
O32   Cr4   1.955016 S    
C1    O9    1.292415 A    
O44   Cr12  2.063234 S    
N4    O60   1.301856 A    
C2    C43   1.471609 S    
C84   H36   1.068260 S    
C29   C33   1.539259 S    
C41   C57   1.427038 A    
C3    O11   1.292777 A    
C109  H49   1.111950 S    
C12   C72   1.466607 S    
O11   Cr7   2.072340 S    
C57   O69   1.385782 S    
C4    O12   1.258177 A    
C115  H59   1.112078 S    
C101  C105  1.408853 A    
C25   C34   1.522237 S    
C54   H14   1.082426 S    
C87   H43   1.112665 S    
C15   C90   1.454825 S    
C110  C114  1.505984 S    
C86   H42   1.105297 S    
O6    Cr2   1.962941 S    
C7    O19   1.272605 A    
O13   C5    1.277511 A    
O3    Cr3   2.071410 S    
Cr4   O52   1.982554 S    
C53   C69   1.393919 A    
C42   C58   1.425424 A    
O8    C4    1.293141 A    
C29   C38   1.540702 S    
C48   C52   1.391402 A    
O2    C10   1.264078 A    
O10   Cr6   2.064695 S    
O42   Cr10  2.063234 S    
C64   H24   1.105504 S    
C77   C85   1.494618 S    
O18   Cr10  2.088563 S    
C77   C78   1.380505 A    
O69   H61   0.991360 S    
C68   H28   1.107660 S    
C107  N3    1.444079 S    
C102  C118  1.407387 A    
C112  C116  1.510541 S    
C64   H18   1.106340 S    
C54   C58   1.386160 A    
C35   C39   1.523461 S    
C95   C111  1.493077 S    
C91   C95   1.388524 A    
O34   Cr6   2.078349 S    
C67   H27   1.107243 S    
C97   C117  1.389968 A    
N2    O56   1.301321 A    
C26   C30   1.544393 S    
O35   Cr7   2.085567 S    
C50   C66   1.487614 S    
C114  H58   1.112913 S    
O24   Cr12  1.945435 S    
C32   C39   1.544149 S    
O9    Cr5   2.072340 S    
O30   Cr2   1.955016 S    
O22   C10   1.280087 A    
C74   C81   1.400700 A    
O1    C9    1.272845 A    
O48   Cr12  1.967669 S    
C111  H51   1.113720 S    
N3    O57   1.295771 A    
C18   C73   1.442347 S    
C111  N7    1.463602 S    
C46   C62   1.491786 S    
C109  C113  1.507260 S    
N6    O64   1.302383 A    
C2    O10   1.295477 A    
C49   C65   1.494905 S    
C27   C28   1.550684 S    
O16   Cr8   1.959765 S    
C98   C118  1.363945 A    
C52   C72   1.397646 A    
O7    Cr3   1.962016 S    
C58   O70   1.377031 S    
C88   H44   1.106810 S    
C109  N5    1.465426 S    
C111  C115  1.510724 S    
C114  H54   1.096289 S    
C43   C59   1.425610 A    
C36   C40   1.527820 S    
C93   C109  1.485339 S    
C113  H53   1.106107 S    
O48   C24   1.268637 A    
O12   Cr8   2.064695 S    
C104  C108  1.405191 A    
C56   C72   1.402742 A    
O41   Cr9   2.058616 S    
C46   C50   1.391928 A    
O15   C7    1.272695 A    
C87   C88   1.505473 S    
C39   H11   1.099717 S    
C45   C49   1.386848 A    
N4    O59   1.299038 A    
C9    C69   1.445354 S    
C92   C96   1.387473 A    
C66   H30   1.111497 S    
C116  H56   1.105658 S    
O39   Cr7   1.950434 S    
O25   C21   1.271021 A    
C62   H22   1.109108 S    
C28   C35   1.533474 S    
C47   C51   1.390998 A    
C79   C80   1.368584 A    
O3    C11   1.269463 A    
C56   C60   1.387226 A    
C7    C35   1.460869 S    
C55   C71   1.401134 A    
C33   C37   1.527353 S    
O13   Cr5   1.966463 S    
C13   O33   1.260261 A    
C102  H46   1.082716 S    
C63   C67   1.521221 S    
O36   Cr8   2.078349 S    
C51   C67   1.488031 S    
O47   Cr11  1.962337 S    
Cr2   O50   1.982554 S    
C105  N1    1.444191 S    
O32   C16   1.276442 A    
C52   C68   1.487673 S    
C110  H50   1.107969 S    
O2    Cr2   2.074840 S    
Cr7   O51   1.983566 S    
N8    O68   1.301700 A    
C8    C36   1.453705 S    
C90   C94   1.406934 A    
C87   H37   1.109950 S    
C76   C83   1.415378 A    
Cr3   O51   1.982826 S    
O14   Cr6   1.959765 S    
O72   H64   0.985909 S    
C22   C118  1.436017 S    
O21   Cr9   1.939598 S    
C25   C26   1.549951 S    
O27   Cr3   2.081777 S    
C61   C65   1.513188 S    
N1    O54   1.301493 A    
C94   C98   1.358011 A    
C56   H16   1.083412 S    
C47   C63   1.492658 S    
C53   C57   1.388467 A    
C75   C84   1.409284 A    
C60   O72   1.377536 S    
O27   C23   1.258794 A    
C41   C45   1.397412 A    
C19   C76   1.484240 S    
C90   C106  1.424825 A    
C29   H1    1.107785 S    
C73   C82   1.406896 A    
C40   H12   1.106713 S    
C96   C112  1.486962 S    
C85   H41   1.112567 S    
N2    O55   1.301463 A    
C59   O71   1.377165 S    
O31   Cr3   1.953367 S    
C79   C87   1.464261 S    
C17   C74   1.439267 S    
O38   C18   1.304109 A    
C49   C69   1.397872 A    
C62   H20   1.107846 S    
C19   O43   1.277061 A    
C80   C88   1.477493 S    
C5    O17   1.261114 A    
C30   C34   1.540795 S    
C88   H38   1.112629 S    
O37   C17   1.280860 A    
O22   Cr10  1.945435 S    
O28   C24   1.262039 A    
C25   H5    1.105435 S    
O14   C6    1.277771 A    
C20   C75   1.478334 S    
C23   C119  1.436061 S    
C27   C36   1.519583 S    
C48   C64   1.490845 S    
O5    Cr1   1.962016 S    
C116  H60   1.111754 S    
C64   C68   1.523169 S    
C26   C33   1.520232 S    
C27   H7    1.103892 S    
N6    O63   1.298847 A    
C85   H39   1.109753 S    
O17   Cr9   2.084391 S    
C21   C117  1.445259 S    
Cr11  O51   1.996889 S    
O6    C2    1.318429 A    
C15   O35   1.259088 A    
C17   O41   1.270490 A    
C96   C100  1.359160 A    
C74   C78   1.393919 A    
C37   H9    1.104169 S    
C100  C116  1.501616 S    
C14   O34   1.273326 A    
C30   C37   1.540819 S    
O25   Cr1   2.081777 S    
O40   Cr8   1.943400 S    
C89   C93   1.381922 A    
C61   H21   1.111091 S    
C16   C89   1.444258 S    
C20   O44   1.314883 A    
O1    Cr1   2.071410 S    
C65   H29   1.112602 S    
C94   C110  1.517186 S    
C26   H6    1.104577 S    
O19   Cr11  2.084391 S    
C99   C119  1.397351 A    
O15   Cr7   1.966463 S    
Cr1   O49   1.982826 S    
C101  C117  1.411884 A    
O43   Cr11  2.058616 S    
C102  C106  1.415179 A    
C37   C38   1.542334 S    
C100  C120  1.390472 A    
O46   Cr10  1.967669 S    
Cr10  O50   1.983798 S    
C63   H23   1.110621 S    
C10   C70   1.465424 S    
C73   C77   1.389664 A    
Cr6   O50   1.996920 S    
C14   C91   1.434615 S    
O46   C22   1.288608 A    
Cr12  O52   1.983798 S    
C95   C99   1.358106 A    
C67   H31   1.111540 S    
Cr5   O49   1.983566 S    
C42   C46   1.405152 A    
C32   H4    1.110631 S    
O23   C11   1.283082 A    
C97   C113  1.494852 S    
C92   C108  1.406248 A    
C44   C48   1.405310 A    
O33   Cr5   2.085567 S    
C55   H15   1.082149 S    
C62   C66   1.521691 S    
C11   C71   1.464519 S    
C86   H40   1.100581 S    
C25   C29   1.547763 S    
C65   H25   1.111896 S    
O16   C8    1.271934 A    
Cr9   O49   1.996889 S    
O4    Cr4   2.074840 S    
C6    C34   1.456481 S    
N8    O67   1.300373 A    
C28   H8    1.107097 S    
O29   Cr1   1.953367 S    
C83   C84   1.426290 A    
C104  C120  1.411303 A    
C82   H34   1.082375 S    
C16   O36   1.275186 A    
C89   C105  1.415634 A    
O40   C20   1.310352 A    
C108  N4    1.438146 S    
C27   C31   1.545061 S    
C34   C38   1.531175 S    
C81   C82   1.402851 A    
C6    O18   1.261353 A    
O28   Cr4   2.084423 S    
N5    O62   1.301594 A    
C1    C44   1.473254 S    
C93   C97   1.364277 A    
O45   Cr9   1.962337 S    
C32   C36   1.539445 S    
C103  C119  1.398037 A    
C4    C41   1.458256 S    
C44   C60   1.425948 A    
C53   H13   1.082626 S    
N1    O53   1.301677 A    
C3    C42   1.473456 S    
O31   C15   1.280438 A    
C110  N6    1.435004 S    
C5    C33   1.455600 S    
C76   C80   1.379225 A    
C106  N2    1.439522 S    
C51   C71   1.398527 A    
O38   Cr6   1.943400 S    
C24   C120  1.436852 S    
O71   H63   0.985528 S    
