data_str_m2_o9_o21_f0_pcu.sym.136
_audit_creation_date              2012-12-10T19:47:23-0500
_audit_creation_method            fapswitch 2.2
_symmetry_space_group_name_H-M    P1
_symmetry_Int_Tables_number       1
_space_group_crystal_system       triclinic
_cell_length_a                    10.904911
_cell_length_b                    10.894571
_cell_length_c                    12.693111
_cell_angle_alpha                 92.056137
_cell_angle_beta                  91.607454
_cell_angle_gamma                 90.065678
_cell_volume                      1506.42904204

loop_
_atom_site_label
_atom_site_type_symbol
_atom_type_description
_atom_site_fract_x
_atom_site_fract_y
_atom_site_fract_z
_atom_type_partial_charge
C1    C     C_R   0.261789 0.498977 0.501897 0.788611
C2    C     C_R   0.738096 0.504299 0.497924 0.789925
C3    C     C_R   0.494001 0.871584 0.496753 -0.096629
C4    C     C_R   0.501337 0.128199 0.503808 -0.096577
C5    C     C_R   0.473724 0.935720 0.403155 0.042252
C6    C     C_R   0.519589 0.063895 0.597680 0.041087
C7    C     C_R   0.206374 0.378760 0.845008 -0.173708
C8    C     C_R   0.787016 0.621626 0.152071 -0.188314
C9    C     C_R   0.172945 0.392097 0.738875 -0.088313
C10   C     C_R   0.823542 0.613523 0.258070 -0.072006
C11   C     C_R   0.118612 0.501699 0.705940 0.132662
C12   C     C_R   0.880060 0.506208 0.293504 0.148324
C13   C     C_R   0.098846 0.597492 0.780647 -0.221539
C14   C     C_R   0.898336 0.407084 0.221785 -0.185765
C15   C     C_R   0.130980 0.583106 0.886717 -0.071314
C16   C     C_R   0.862466 0.415930 0.115882 -0.062584
C17   C     C_R   0.184220 0.473739 0.919014 -0.080064
C18   C     C_R   0.808194 0.523562 0.080787 -0.089032
C19   C     C_R   0.935844 0.516498 0.592145 -0.255757
C20   C     C_R   0.064202 0.499751 0.406754 -0.222997
C21   C     C_R   0.871649 0.509911 0.495081 -0.088988
C22   C     C_R   0.128181 0.500559 0.504158 -0.097260
C23   C     C_R   0.501507 0.261809 0.501560 0.798077
C24   C     C_R   0.497006 0.738085 0.498574 0.796630
C25   C     C_R   0.937058 0.504053 0.400585 -0.010493
C26   C     C_R   0.062703 0.508302 0.598603 0.003765
C27   C     C_2   0.471452 0.460872 0.031552 -0.157317
C28   C     C_2   0.525872 0.540482 0.968345 -0.178692
C29   C     C_1   0.521888 0.527210 0.852704 0.200094
C30   C     C_1   0.476891 0.473341 0.147265 0.234030
C31   C     C_R   0.695554 0.203607 0.834177 0.473784
C32   C     C_R   0.295312 0.776641 0.177045 0.475674
C33   C     C_R   0.665451 0.163216 0.729880 -0.299476
C34   C     C_R   0.329316 0.819882 0.279282 -0.277603
C35   C     C_R   0.546384 0.122463 0.702691 0.094904
C36   C     C_R   0.443708 0.876257 0.298999 0.085841
C37   C     C_R   0.457263 0.121600 0.780040 -0.239403
C38   C     C_R   0.525749 0.885449 0.216727 -0.250905
C39   C     C_R   0.487121 0.159387 0.883820 -0.358975
C40   C     C_R   0.492843 0.841983 0.115130 -0.357993
C41   C     C_R   0.607424 0.197232 0.912234 0.501284
C42   C     C_R   0.375722 0.790309 0.093549 0.491144
C43   C     C_R   0.515439 0.936727 0.592652 -0.248271
C44   C     C_R   0.478852 0.062994 0.407992 -0.253856
Cu1   Cu    Cu3+1 0.492140 0.492110 0.395880 0.984151
Cu2   Cu    Cu3+1 0.507860 0.507890 0.604120 0.969675
H1    H     H_    0.112230 0.655924 0.944120 0.189493
H2    H     H_    0.879084 0.340209 0.060712 0.191001
H3    H     H_    0.886659 0.524422 0.664964 0.156751
H4    H     H_    0.113367 0.496900 0.333584 0.187694
H5    H     H_    0.735419 0.159442 0.670983 0.146829
H6    H     H_    0.265917 0.811078 0.342811 0.149064
H7    H     H_    0.365278 0.088988 0.760351 0.153213
H8    H     H_    0.614937 0.927580 0.231225 0.151606
H9    H     H_    0.416569 0.158508 0.941990 0.147127
H10   H     H_    0.558920 0.848861 0.053695 0.148860
H11   H     H_    0.531379 0.888518 0.665089 0.166102
H12   H     H_    0.462619 0.111254 0.335635 0.165313
H13   H     H_    0.246224 0.293534 0.870326 0.128149
H14   H     H_    0.745417 0.705210 0.124690 0.120573
H15   H     H_    0.185591 0.315861 0.683110 0.114534
H16   H     H_    0.811232 0.691853 0.311704 0.109152
N1    N     N_1   0.480320 0.480250 0.239400 -0.160855
N2    N     N_1   0.519680 0.519750 0.760600 -0.167444
O1    O     O_R   0.313000 0.493330 0.412070 -0.581361
O2    O     O_R   0.687000 0.506670 0.587930 -0.594269
O3    O     O_R   0.326280 0.506660 0.587930 -0.567954
O4    O     O_R   0.673720 0.493340 0.412070 -0.570764
O5    O     O_R   0.493370 0.312980 0.412070 -0.587648
O6    O     O_R   0.506630 0.687020 0.587930 -0.587892
O7    O     O_R   0.506650 0.326310 0.587930 -0.568726
O8    O     O_R   0.493350 0.673690 0.412070 -0.568215
O9    O     O_3   0.638877 0.239257 0.013735 -0.572421
C45   C     C_3   0.620352 0.145895 0.085702 -0.334804
H17   H     H_    0.663419 0.057828 0.059274 0.153536
H18   H     H_    0.521219 0.132867 0.099898 0.162855
H19   H     H_    0.664840 0.174466 0.162379 0.194340
O10   O     O_3   0.339185 0.745199 0.993883 -0.572315
C46   C     C_3   0.363360 0.830729 0.916035 -0.345201
H20   H     H_    0.460785 0.825806 0.893037 0.167463
H21   H     H_    0.338346 0.926202 0.941390 0.148926
H22   H     H_    0.306573 0.806103 0.844504 0.198425
H23   H     H_    0.054375 0.681486 0.757233 0.130846
H24   H     H_    0.943761 0.324503 0.247388 0.121237
H25   H     H_    0.574226 0.619332 0.003442 0.140433
H26   H     H_    0.422392 0.382502 0.996413 0.142827
O11   O     O_3   0.814090 0.237236 0.864549 -0.581295
C47   C     C_3   0.850369 0.339671 0.808328 -0.342318
H27   H     H_    0.777495 0.411171 0.804408 0.161116
H28   H     H_    0.879119 0.310578 0.728008 0.173868
H29   H     H_    0.930741 0.382633 0.850346 0.199162
O12   O     O_3   0.184268 0.717553 0.158627 -0.571482
C48   C     C_3   0.091954 0.807166 0.148731 -0.365897
H30   H     H_    0.112553 0.872528 0.086007 0.162210
H31   H     H_    0.077918 0.857626 0.225187 0.159304
H32   H     H_    0.004630 0.760398 0.125284 0.197020
H33   H     H_    0.206757 0.462192 0.001613 0.148795
H34   H     H_    0.783678 0.531162 0.998134 0.124956

loop_
_geom_bond_atom_site_label_1
_geom_bond_atom_site_label_2
_ccdc_geom_bond_type
O11   C47   S    
C48   H30   S    
C40   H10   S    
O9    C45   S    
C23   O5    A    
C14   H24   S    
C16   H2    S    
C24   O6    A    
C39   C41   A    
Cu1   Cu2   S    
C3    C43   A    
C45   H18   S    
C9    H15   S    
C28   C29   S    
C19   C21   A    
Cu2   O2    S    
C2    O4    A    
C20   C25   A    
C5    C36   S    
C6    C35   S    
C7    C9    A    
C19   C26   A    
C20   H4    S    
C33   C35   A    
C39   H9    S    
C44   H12   S    
C7    C17   A    
C45   H19   S    
C1    O1    A    
C31   C33   A    
C15   H1    S    
C37   H7    S    
C40   C42   A    
C29   N2    T    
C1    C22   S    
C48   H31   S    
C30   N1    T    
C27   C30   S    
C3    C24   S    
C10   H16   S    
C2    C21   S    
C7    H13   S    
C31   O11   S    
C45   H17   S    
Cu1   O5    S    
C23   O7    A    
C4    C6    A    
C46   H21   S    
C4    C23   S    
O10   C46   S    
C4    C44   A    
C11   C26   S    
C2    O2    A    
Cu1   N1    S    
C8    C18   A    
Cu2   N2    S    
C32   C34   A    
C27   H26   S    
C19   H3    S    
C38   H8    S    
C47   H29   S    
Cu1   O4    S    
C9    C11   A    
Cu2   O7    S    
C10   C12   A    
C16   C18   A    
C5    C44   A    
C47   H28   S    
C42   O10   S    
C48   H32   S    
C6    C43   A    
C13   C15   A    
Cu1   O1    S    
C14   C16   A    
C28   H25   S    
C24   O8    A    
C15   C17   A    
C21   C25   A    
C31   C41   A    
C35   C37   A    
C20   C22   A    
C3    C5    A    
C46   H22   S    
C33   H5    S    
C13   H23   S    
C34   H6    S    
C12   C25   S    
C36   C38   A    
C12   C14   A    
Cu2   O3    S    
C37   C39   A    
C8    H14   S    
C38   C40   A    
C11   C13   A    
C32   O12   S    
O12   C48   S    
C1    O3    A    
C34   C36   A    
Cu2   O6    S    
C43   H11   S    
C41   O9    S    
C46   H20   S    
C47   H27   S    
C8    C10   A    
C22   C26   A    
C27   C28   D    
C32   C42   A    
C18   H34   S    
C17   H33   S    
Cu1   O8    S    
