data_str_m4_o15_o24_f0_acs.sym.44
_audit_creation_date              2012-12-11T14:28:24-0500
_audit_creation_method            fapswitch 2.2
_symmetry_space_group_name_H-M    P1
_symmetry_Int_Tables_number       1
_space_group_crystal_system       triclinic
_cell_length_a                    10.94294
_cell_length_b                    18.96704
_cell_length_c                    18.623896
_cell_angle_alpha                 89.8598
_cell_angle_beta                  89.620205
_cell_angle_gamma                 89.8612
_cell_volume                      3865.37841294

loop_
_atom_site_label
_atom_site_type_symbol
_atom_type_description
_atom_site_fract_x
_atom_site_fract_y
_atom_site_fract_z
_atom_type_partial_charge
C1    C     C_R   0.321276 0.970474 0.646903 0.527057
C2    C     C_3   0.207198 0.721436 0.040912 -0.120917
C3    C     C_3   0.045238 0.190723 0.975237 -0.117497
C4    C     C_3   0.564031 0.315753 0.469971 -0.117793
C5    C     C_3   0.597807 0.318730 0.038035 -0.127927
C6    C     C_3   0.512693 0.706617 0.517201 -0.110524
C7    C     C_3   0.545238 0.690723 0.975237 -0.117497
C8    C     C_3   0.196871 0.807612 0.497450 -0.135602
C9    C     C_3   0.219380 0.793779 0.002999 -0.148757
C10   C     C_3   0.137905 0.178118 0.490915 -0.129090
C11   C     C_3   0.180013 0.181833 0.998929 -0.147738
C12   C     C_3   0.696871 0.307612 0.497450 -0.135602
C13   C     C_3   0.206070 0.223831 0.546427 -0.149450
C14   C     C_3   0.719380 0.293778 0.002999 -0.148757
C15   C     C_3   0.637905 0.678118 0.490915 -0.129090
C16   C     C_3   0.680014 0.681833 0.998929 -0.147738
C17   C     C_3   0.147264 0.764145 0.560779 0.056443
C18   C     C_3   0.145945 0.764408 0.939806 0.044587
C19   C     C_3   0.144535 0.238737 0.437755 0.055041
C20   C     C_3   0.156399 0.234900 0.059567 0.043493
C21   C     C_3   0.647265 0.264145 0.560779 0.056443
C22   C     C_3   0.645945 0.264408 0.939806 0.044587
C23   C     C_3   0.644535 0.738737 0.437755 0.055041
C24   C     C_3   0.218981 0.243331 0.949293 -0.137214
C25   C     C_3   0.656398 0.734900 0.059567 0.043493
C26   C     C_3   0.015872 0.772561 0.534615 -0.118817
C27   C     C_3   0.025116 0.789326 0.973551 -0.125710
C28   C     C_3   0.020992 0.267459 0.462385 -0.118781
C29   C     C_3   0.023423 0.244198 0.036669 -0.124584
C30   C     C_3   0.515871 0.272561 0.534615 -0.118817
C31   C     C_3   0.525116 0.289326 0.973551 -0.125710
C32   C     C_3   0.520992 0.767459 0.462385 -0.118781
C33   C     C_3   0.523423 0.744198 0.036669 -0.124584
C34   C     C_3   0.030854 0.703673 0.491580 -0.108568
C35   C     C_3   0.711519 0.238252 0.454323 -0.137535
C36   C     C_3   0.014197 0.717338 0.011288 -0.102557
C37   C     C_3   0.088299 0.312878 0.517463 -0.106704
C38   C     C_3   0.063492 0.305274 0.987629 -0.105430
C39   C     C_3   0.530854 0.203673 0.491580 -0.108568
C40   C     C_3   0.514196 0.217338 0.011288 -0.102557
C41   C     C_3   0.588299 0.812878 0.517463 -0.106704
C42   C     C_3   0.563492 0.805274 0.987629 -0.105430
C43   C     C_3   0.162590 0.695107 0.518567 -0.100610
C44   C     C_3   0.134762 0.692427 0.977000 -0.094214
C45   C     C_3   0.213031 0.284813 0.491496 -0.116293
C46   C     C_3   0.707198 0.221436 0.040912 -0.120917
C47   C     C_3   0.197151 0.296255 0.011066 -0.098602
C48   C     C_3   0.662590 0.195107 0.518567 -0.100610
C49   C     C_3   0.634762 0.192427 0.977000 -0.094214
C50   C     C_3   0.713031 0.784813 0.491496 -0.116293
C51   C     C_3   0.697151 0.796255 0.011066 -0.098602
C52   C     C_3   0.706070 0.723831 0.546427 -0.149450
C53   C     C_3   0.718981 0.743331 0.949293 -0.137214
C54   C     C_3   0.080462 0.747114 0.428187 0.052785
C55   C     C_3   0.087033 0.747184 0.074182 0.061042
C56   C     C_3   0.081861 0.251885 0.571663 0.051310
C57   C     C_R   0.317876 0.962865 0.856247 0.536554
C58   C     C_3   0.085756 0.251722 0.927092 0.058001
C59   C     C_3   0.580462 0.247114 0.428187 0.052785
C60   C     C_3   0.587033 0.247184 0.074182 0.061042
C61   C     C_3   0.581861 0.751885 0.571663 0.051310
C62   C     C_3   0.585756 0.751722 0.927092 0.058001
C63   C     C_R   0.322803 0.995945 0.425541 -0.046866
C64   C     C_R   0.315799 0.006775 0.074807 -0.023867
C65   C     C_R   0.331191 0.005714 0.576297 -0.044878
C66   C     C_R   0.317054 0.981130 0.930383 -0.024250
C67   C     C_R   0.822803 0.495945 0.425541 -0.046866
C68   C     C_R   0.319266 0.029892 0.353697 0.522003
C69   C     C_R   0.815799 0.506774 0.074807 -0.023867
C70   C     C_R   0.831191 0.505714 0.576297 -0.044878
C71   C     C_R   0.817054 0.481130 0.930383 -0.024250
C72   C     C_R   0.543360 0.974262 0.422582 -0.077591
C73   C     C_R   0.537330 0.976945 0.076798 -0.075651
C74   C     C_R   0.557163 0.005767 0.568543 -0.092466
C75   C     C_R   0.541005 0.007287 0.930964 -0.086834
C76   C     C_R   0.043360 0.474262 0.422582 -0.077591
C77   C     C_R   0.037330 0.476945 0.076798 -0.075651
C78   C     C_R   0.057162 0.505767 0.568543 -0.092466
C79   C     C_R   0.318103 0.033745 0.145872 0.533746
C80   C     C_R   0.041005 0.507287 0.930964 -0.086834
C81   C     C_R   0.655538 0.973431 0.456788 -0.127888
C82   C     C_R   0.648396 0.981415 0.040414 -0.126570
C83   C     C_R   0.663148 0.991307 0.529153 -0.146451
C84   C     C_R   0.650088 0.001146 0.968356 -0.140930
C85   C     C_R   0.155538 0.473431 0.456788 -0.127888
C86   C     C_R   0.148396 0.481415 0.040414 -0.126570
C87   C     C_R   0.163148 0.491307 0.529153 -0.146451
C88   C     C_R   0.150088 0.501146 0.968356 -0.140930
C89   C     C_R   0.441306 0.001103 0.536014 -0.008129
C90   C     C_R   0.821276 0.470474 0.646903 0.527057
C91   C     C_R   0.428256 0.994132 0.965933 -0.020278
C92   C     C_R   0.435779 0.990967 0.460831 -0.005593
C93   C     C_R   0.426834 0.990592 0.040314 -0.016598
C94   C     C_R   0.941306 0.501103 0.536014 -0.008129
C95   C     C_R   0.928256 0.494132 0.965933 -0.020278
C96   C     C_R   0.935779 0.490967 0.460831 -0.005593
C97   C     C_R   0.926834 0.490592 0.040314 -0.016598
C98   C     C_R   0.220077 0.014534 0.540079 0.003534
C99   C     C_R   0.203729 0.977292 0.969584 0.002915
C100  C     C_R   0.213443 0.996688 0.467232 -0.003861
C101  C     C_R   0.817876 0.462865 0.856247 0.536554
C102  C     C_R   0.202034 0.007317 0.036084 -0.003802
C103  C     C_R   0.720077 0.514535 0.540079 0.003534
C104  C     C_R   0.703729 0.477292 0.969584 0.002915
C105  C     C_R   0.713443 0.496688 0.467232 -0.003861
C106  C     C_R   0.702034 0.507317 0.036084 -0.003802
C107  C     C_R   0.113402 0.038343 0.576218 -0.069085
C108  C     C_R   0.090027 0.949353 0.944908 -0.078362
C109  C     C_R   0.096164 0.987950 0.437094 -0.086524
C110  C     C_R   0.086968 0.038198 0.058002 -0.083117
C111  C     C_R   0.613402 0.538343 0.576218 -0.069085
C112  C     C_R   0.819266 0.529892 0.353697 0.522003
C113  C     C_R   0.590027 0.449353 0.944908 -0.078362
C114  C     C_R   0.596164 0.487950 0.437094 -0.086524
C115  C     C_R   0.586968 0.538198 0.058002 -0.083117
C116  C     C_R   0.000227 0.035247 0.543411 -0.124992
C117  C     C_R   0.978972 0.968730 0.974518 -0.152357
C118  C     C_R   0.991590 0.009086 0.474172 -0.137439
C119  C     C_R   0.977395 0.018448 0.027744 -0.154490
C120  C     C_R   0.500227 0.535247 0.543411 -0.124992
C121  C     C_R   0.478973 0.468730 0.974518 -0.152357
C122  C     C_R   0.491590 0.509086 0.474172 -0.137439
C123  C     C_R   0.818103 0.533745 0.145872 0.533746
C124  C     C_R   0.477395 0.518448 0.027744 -0.154490
C125  C     C_R   0.183133 0.771279 0.635880 0.567569
C126  C     C_R   0.182522 0.771273 0.864175 0.556845
C127  C     C_R   0.182418 0.229112 0.363723 0.562429
C128  C     C_R   0.186554 0.228092 0.136179 0.559908
C129  C     C_R   0.683133 0.271279 0.635880 0.567569
C130  C     C_R   0.682522 0.271273 0.864175 0.556845
C131  C     C_R   0.682418 0.729112 0.363723 0.562429
C132  C     C_R   0.686554 0.728092 0.136179 0.559908
C133  C     C_R   0.543303 0.769152 0.644657 0.541349
C134  C     C_3   0.211519 0.738252 0.454323 -0.137535
C135  C     C_R   0.542515 0.769536 0.855503 0.543832
C136  C     C_R   0.541878 0.230270 0.355688 0.542778
C137  C     C_R   0.546192 0.231469 0.146312 0.541759
C138  C     C_R   0.043303 0.269152 0.644657 0.541349
C139  C     C_R   0.042515 0.269537 0.855503 0.543832
C140  C     C_R   0.041878 0.730270 0.355688 0.542778
C141  C     C_R   0.046192 0.731469 0.146312 0.541759
C142  C     C_3   0.064031 0.815753 0.469971 -0.117793
C143  C     C_3   0.097807 0.818731 0.038035 -0.127927
C144  C     C_3   0.012693 0.206617 0.517201 -0.110524
Cr1   Cr    Cr6+3 0.488160 0.884660 0.750000 0.993766
Cr2   Cr    Cr6+3 0.333410 0.272740 0.250000 0.995478
Cr3   Cr    Cr6+3 0.833410 0.227260 0.750000 0.998235
Cr4   Cr    Cr6+3 0.833410 0.772740 0.250000 0.995478
Cr5   Cr    Cr6+3 0.488160 0.115340 0.250000 1.000242
Cr6   Cr    Cr6+3 0.988160 0.384660 0.750000 0.993766
Cr7   Cr    Cr6+3 0.988160 0.615340 0.250000 1.000242
Cr8   Cr    Cr6+3 0.173480 0.883120 0.750000 1.002147
Cr9   Cr    Cr6+3 0.173480 0.116880 0.250000 0.993660
Cr10  Cr    Cr6+3 0.673480 0.383120 0.750000 1.002147
Cr11  Cr    Cr6+3 0.673480 0.616880 0.250000 0.993660
Cr12  Cr    Cr6+3 0.333410 0.727260 0.750000 0.998235
H1    H     H_    0.015594 0.861614 0.447268 0.116625
H2    H     H_    0.951101 0.816991 0.944535 0.106253
H3    H     H_    0.951983 0.289020 0.425019 0.112572
H4    H     H_    0.948696 0.247513 0.076679 0.119704
H5    H     H_    0.439429 0.288060 0.570616 0.125668
H6    H     H_    0.451101 0.316992 0.944535 0.106253
H7    H     H_    0.451983 0.789021 0.425019 0.112572
H8    H     H_    0.448696 0.747513 0.076679 0.119704
H9    H     H_    0.961785 0.661070 0.487492 0.119015
H10   H     H_    0.931819 0.684183 0.017545 0.106263
H11   H     H_    0.060349 0.366657 0.532057 0.157166
H12   H     H_    0.082299 0.868458 0.067945 0.141516
H13   H     H_    0.014326 0.355845 0.980891 0.133139
H14   H     H_    0.461785 0.161070 0.487492 0.119015
H15   H     H_    0.431819 0.184183 0.017545 0.106263
H16   H     H_    0.560349 0.866657 0.532057 0.157166
H17   H     H_    0.514326 0.855845 0.980891 0.133139
H18   H     H_    0.203540 0.645517 0.539196 0.127936
H19   H     H_    0.150891 0.641212 0.950386 0.137041
H20   H     H_    0.292205 0.318647 0.477597 0.118818
H21   H     H_    0.260293 0.339169 0.026727 0.124152
H22   H     H_    0.703540 0.145517 0.539196 0.127937
H23   H     H_    0.929844 0.175379 0.529563 0.119010
H24   H     H_    0.650891 0.141212 0.950386 0.137041
H25   H     H_    0.792205 0.818647 0.477597 0.118818
H26   H     H_    0.760293 0.839169 0.026727 0.124152
H27   H     H_    0.286403 0.721178 0.418014 0.120816
H28   H     H_    0.275544 0.690021 0.070834 0.113245
H29   H     H_    0.278597 0.203988 0.582633 0.107395
H30   H     H_    0.295876 0.241355 0.910283 0.116738
H31   H     H_    0.786403 0.221178 0.418014 0.120816
H32   H     H_    0.775544 0.190021 0.070834 0.113245
H33   H     H_    0.778597 0.703989 0.582633 0.107395
H34   H     H_    0.981552 0.148618 0.958317 0.132910
H35   H     H_    0.795876 0.741355 0.910283 0.116738
H36   H     H_    0.734981 0.956303 0.427035 0.107473
H37   H     H_    0.732209 0.971667 0.069042 0.109437
H38   H     H_    0.750073 0.990110 0.555932 0.111006
H39   H     H_    0.734793 0.011889 0.940703 0.105543
H40   H     H_    0.234981 0.456303 0.427035 0.107473
H41   H     H_    0.232209 0.471667 0.069042 0.109437
H42   H     H_    0.250073 0.490110 0.555932 0.111006
H43   H     H_    0.234793 0.511889 0.940703 0.105543
H44   H     H_    0.540532 0.958634 0.366740 0.131506
H45   H     H_    0.515594 0.361614 0.447268 0.116625
H46   H     H_    0.538705 0.963013 0.133140 0.136258
H47   H     H_    0.566650 0.020040 0.624422 0.137901
H48   H     H_    0.546513 0.023693 0.875452 0.139715
H49   H     H_    0.040532 0.458634 0.366740 0.131506
H50   H     H_    0.038705 0.463013 0.133140 0.136258
H51   H     H_    0.066650 0.520040 0.624422 0.137901
H52   H     H_    0.046513 0.523693 0.875452 0.139715
H53   H     H_    0.266360 0.849852 0.501976 0.113889
H54   H     H_    0.302643 0.826489 0.997745 0.101527
H55   H     H_    0.162935 0.126622 0.469268 0.148782
H56   H     H_    0.582299 0.368458 0.067945 0.141516
H57   H     H_    0.237698 0.134394 0.001976 0.112806
H58   H     H_    0.766360 0.349852 0.501976 0.113889
H59   H     H_    0.802643 0.326489 0.997745 0.101527
H60   H     H_    0.662935 0.626622 0.469268 0.148782
H61   H     H_    0.737698 0.634394 0.001976 0.112806
H62   H     H_    0.920269 0.054524 0.571536 0.098658
H63   H     H_    0.895802 0.946078 0.954276 0.103002
H64   H     H_    0.904954 0.008038 0.447701 0.105466
H65   H     H_    0.892778 0.041775 0.046227 0.104702
H66   H     H_    0.420269 0.554524 0.571536 0.098658
H67   H     H_    0.429844 0.675379 0.529563 0.119009
H68   H     H_    0.395802 0.446078 0.954276 0.103002
H69   H     H_    0.404954 0.508038 0.447701 0.105466
H70   H     H_    0.392778 0.541775 0.046227 0.104702
H71   H     H_    0.084396 0.965764 0.384102 0.136327
H72   H     H_    0.076631 0.081379 0.094638 0.180177
H73   H     H_    0.118077 0.060649 0.629644 0.132331
H74   H     H_    0.082018 0.909725 0.905103 0.181204
H75   H     H_    0.584396 0.465764 0.384102 0.136327
H76   H     H_    0.576631 0.581379 0.094638 0.180177
H77   H     H_    0.618077 0.560649 0.629644 0.132331
H78   H     H_    0.481552 0.648618 0.958317 0.132910
H79   H     H_    0.582018 0.409725 0.905103 0.181204
H80   H     H_    0.939429 0.788060 0.570616 0.125668
O1    O     O_R   0.575450 0.828820 0.667950 -0.517722
O2    O     O_R   0.416860 0.942890 0.825320 -0.513552
O3    O     O_R   0.416860 0.057110 0.325320 -0.500815
O4    O     O_R   0.416860 0.057110 0.174680 -0.507347
O5    O     O_R   0.916860 0.442890 0.674680 -0.508539
O6    O     O_R   0.916860 0.442890 0.825320 -0.513552
O7    O     O_R   0.916860 0.557110 0.325320 -0.500815
O8    O     O_R   0.916860 0.557110 0.174680 -0.507347
O9    O     O_R   0.213790 0.953680 0.668330 -0.518029
O10   O     O_R   0.213790 0.953680 0.831670 -0.544906
O11   O     O_R   0.213790 0.046320 0.331670 -0.531578
O12   O     O_R   0.575450 0.828820 0.832050 -0.517140
O13   O     O_R   0.213790 0.046320 0.168330 -0.549027
O14   O     O_R   0.713790 0.453680 0.668330 -0.518029
O15   O     O_R   0.713790 0.453680 0.831670 -0.544906
O16   O     O_R   0.713790 0.546320 0.331670 -0.531578
O17   O     O_R   0.713790 0.546320 0.168330 -0.549027
O18   O     O_R   0.121360 0.817890 0.672660 -0.491270
O19   O     O_R   0.121360 0.817890 0.827340 -0.525170
O20   O     O_R   0.121360 0.182110 0.327340 -0.494527
O21   O     O_R   0.121360 0.182110 0.172660 -0.519708
O22   O     O_R   0.621360 0.317890 0.672660 -0.491270
O23   O     O_R   0.575450 0.171180 0.332050 -0.512017
O24   O     O_R   0.621360 0.317890 0.827340 -0.525170
O25   O     O_R   0.621360 0.682110 0.327340 -0.494527
O26   O     O_R   0.621360 0.682110 0.172660 -0.519708
O27   O     O_R   0.206850 0.711370 0.665820 -0.528877
O28   O     O_R   0.206850 0.711370 0.834180 -0.520729
O29   O     O_R   0.206850 0.288630 0.334180 -0.525489
O30   O     O_R   0.206850 0.288630 0.165820 -0.517353
O31   O     O_R   0.706850 0.211370 0.665820 -0.528877
O32   O     O_R   0.706850 0.211370 0.834180 -0.520729
O33   O     O_R   0.706850 0.788630 0.334180 -0.525489
O34   O     O_R   0.575450 0.171180 0.167950 -0.517257
O35   O     O_R   0.706850 0.788630 0.165820 -0.517353
O36   O     O_R   0.457710 0.733190 0.672630 -0.527407
O37   O     O_R   0.457710 0.733190 0.827370 -0.522651
O38   O     O_R   0.457710 0.266810 0.327370 -0.530840
O39   O     O_R   0.457710 0.266810 0.172630 -0.525046
O40   O     O_R   0.957710 0.233190 0.672630 -0.527407
O41   O     O_R   0.957710 0.233190 0.827370 -0.522651
O42   O     O_R   0.957710 0.766810 0.327370 -0.530840
O43   O     O_R   0.957710 0.766810 0.172630 -0.525046
O44   O     O_3   0.331690 0.831680 0.750000 -0.287530
O45   O     O_R   0.075450 0.328820 0.667950 -0.517722
O46   O     O_3   0.331690 0.168320 0.250000 -0.287890
O47   O     O_3   0.831690 0.331680 0.750000 -0.287530
O48   O     O_3   0.831690 0.668320 0.250000 -0.287890
O49   O     O_R   0.075450 0.328820 0.832050 -0.517140
O50   O     O_R   0.075450 0.671180 0.332050 -0.512017
O51   O     O_R   0.075450 0.671180 0.167950 -0.517257
O52   O     O_R   0.416860 0.942890 0.674680 -0.508539

loop_
_geom_bond_atom_site_label_1
_geom_bond_atom_site_label_2
_ccdc_geom_bond_type
C6    C32   S    
C71   C104  A    
C73   C82   A    
C44   H19   S    
C41   C61   S    
C74   C83   A    
Cr9   O21   S    
C9    C143  S    
C61   C133  S    
C27   H2    S    
C65   C89   A    
C90   O14   A    
C2    C55   S    
C117  C119  A    
C86   C88   A    
C71   C95   A    
C74   H47   S    
C69   C123  S    
C84   H39   S    
C54   C134  S    
C32   H7    S    
C78   H51   S    
C37   C56   S    
C50   C52   S    
C28   C144  S    
Cr6   O49   S    
C12   H58   S    
C4    C12   S    
C21   C48   S    
C100  C109  A    
C22   C130  S    
C7    C33   S    
Cr3   O41   S    
C109  C118  A    
C109  H71   S    
C11   C20   S    
C13   H29   S    
C140  O42   A    
C141  O43   A    
C14   C46   S    
C70   C103  A    
C67   C105  A    
C122  H69   S    
C137  O39   A    
C17   C43   S    
C7    C62   S    
C18   C44   S    
C137  O34   A    
C94   C96   A    
Cr8   O9    S    
C22   C49   S    
C34   C54   S    
C82   C84   A    
C107  H73   S    
C64   C79   S    
C36   C44   S    
C116  H62   S    
Cr10  O24   S    
C38   H13   S    
C21   C30   S    
C26   H80   S    
C16   C25   S    
C5    H56   S    
C120  H66   S    
C127  O29   A    
C46   C60   S    
C139  O41   A    
Cr2   O38   S    
Cr7   O51   S    
C130  O24   A    
C95   C97   A    
C8    C17   S    
Cr4   O43   S    
C106  C115  A    
C52   C61   S    
C80   C88   A    
C36   C55   S    
C110  H72   S    
C41   H16   S    
C76   C96   A    
C13   C45   S    
C4    H45   S    
C78   C94   A    
C138  O45   A    
Cr5   O3    S    
C116  C118  A    
C117  H63   S    
C52   H33   S    
C20   C47   S    
C3    C11   S    
Cr7   O7    S    
Cr11  O25   S    
C67   C112  S    
C1    O9    A    
C87   H42   S    
C51   C53   S    
C76   C85   A    
C40   H15   S    
C78   C87   A    
C40   C60   S    
C57   C66   S    
C48   H22   S    
C108  H74   S    
Cr11  O16   S    
C64   C102  A    
C99   C108  A    
C33   C42   S    
C88   H43   S    
C24   H30   S    
Cr5   O34   S    
C75   C84   A    
C40   C49   S    
C59   C136  S    
C119  H65   S    
C3    C29   S    
Cr1   O52   S    
C82   H37   S    
Cr12  O28   S    
Cr6   O5    S    
C2    C44   S    
C29   C38   S    
C1    C65   S    
C32   C41   S    
C77   C97   A    
C34   H9    S    
C42   C62   S    
Cr10  O22   S    
C75   C91   A    
Cr6   O47   S    
C13   C56   S    
C7    H78   S    
C133  O1    A    
C79   O4    A    
C81   C83   A    
C29   H4    S    
C55   C143  S    
C8    C134  S    
C114  H75   S    
Cr10  O14   S    
C135  O37   A    
Cr6   O45   S    
C62   C135  S    
Cr2   O29   S    
C101  O6    A    
C27   C143  S    
C9    H54   S    
Cr1   O2    S    
C23   C131  S    
C103  C105  A    
C10   C144  S    
C12   C35   S    
C19   C28   S    
C21   C129  S    
C115  H76   S    
C35   H31   S    
C80   H52   S    
C118  H64   S    
C132  O26   A    
C63   C68   S    
C5    C60   S    
Cr9   O46   S    
Cr4   O33   S    
C34   C43   S    
C57   O10   A    
C110  C119  A    
C19   C45   S    
C80   C95   A    
C128  O21   A    
C14   C22   S    
Cr7   O48   S    
C18   C126  S    
C28   C37   S    
C73   C93   A    
C121  H68   S    
Cr4   O42   S    
C30   C39   S    
C1    O52   A    
C125  O18   A    
C107  C116  A    
C104  C113  A    
Cr1   O44   S    
C9    C18   S    
C113  C121  A    
C128  O30   A    
C140  O50   A    
C25   C132  S    
C141  O51   A    
C25   C33   S    
C131  O25   A    
C69   C97   A    
C55   C141  S    
C104  C106  A    
C37   H11   S    
C46   C49   S    
C70   C94   A    
C65   C98   A    
Cr12  O44   S    
C72   C92   A    
C31   C40   S    
C103  C111  A    
Cr5   O23   S    
C38   C58   S    
Cr8   O10   S    
C72   C81   A    
Cr2   O46   S    
C130  O32   A    
C71   C101  S    
C31   H6    S    
Cr4   O35   S    
Cr10  O47   S    
C101  O15   A    
C35   C48   S    
C108  C117  A    
Cr2   O39   S    
C3    H34   S    
Cr3   O32   S    
C133  O36   A    
C10   C13   S    
C98   C107  A    
C43   C134  S    
C91   C93   A    
Cr3   O47   S    
C10   C19   S    
C39   C59   S    
C125  O27   A    
C136  O23   A    
C126  O28   A    
C2    H28   S    
C15   C52   S    
C53   H35   S    
C5    C14   S    
C11   H57   S    
C7    C16   S    
C54   C142  S    
C98   C100  A    
C102  C110  A    
C142  H1    S    
C41   C50   S    
C76   H49   S    
C6    C61   S    
C6    H67   S    
C113  H79   S    
C115  C124  A    
C136  O38   A    
C15   H60   S    
C23   C50   S    
C68   O3    A    
Cr8   O19   S    
C124  H70   S    
C69   C106  A    
C85   H40   S    
Cr12  O36   S    
C27   C36   S    
C73   H46   S    
C23   C32   S    
C77   H50   S    
Cr9   O11   S    
C111  H77   S    
C123  O17   A    
C86   H41   S    
C56   C144  S    
C3    C58   S    
C10   H55   S    
Cr6   O6    S    
C99   C102  A    
C24   C58   S    
C8    C142  S    
C30   H5    S    
C39   C48   S    
C58   C139  S    
Cr11  O17   S    
C134  H27   S    
C51   H26   S    
C132  O35   A    
C17   C26   S    
C74   C89   A    
C64   C93   A    
C20   C128  S    
C39   H14   S    
C43   H18   S    
Cr10  O15   S    
C11   C24   S    
Cr5   O4    S    
C139  O49   A    
Cr11  O48   S    
Cr2   O30   S    
C16   C53   S    
C121  C124  A    
Cr8   O44   S    
C6    C15   S    
Cr11  O26   S    
C26   C34   S    
C112  O7    A    
C54   C140  S    
Cr1   O1    S    
C63   C92   A    
Cr5   O46   S    
C126  O19   A    
Cr3   O40   S    
C129  O31   A    
C60   C137  S    
C49   H24   S    
C15   C23   S    
Cr7   O8    S    
C79   O13   A    
C70   C90   S    
C123  O8    A    
C120  C122  A    
C112  O16   A    
C20   C29   S    
C85   C87   A    
C68   O11   A    
C35   C59   S    
C22   C31   S    
C127  O20   A    
C105  C114  A    
C33   H8    S    
Cr3   O31   S    
C129  O22   A    
C45   H20   S    
Cr9   O13   S    
C12   C21   S    
C28   H3    S    
C138  O40   A    
C111  C120  A    
C66   C99   A    
C25   C51   S    
C81   H36   S    
C63   C100  A    
C72   H44   S    
Cr12  O27   S    
C56   C138  S    
C53   C62   S    
C131  O33   A    
C144  H23   S    
C36   H10   S    
Cr12  O37   S    
C16   H61   S    
C89   C92   A    
C38   C47   S    
Cr9   O20   S    
C77   C86   A    
C67   C96   A    
C50   H25   S    
C8    H53   S    
Cr7   O50   S    
Cr4   O48   S    
Cr1   O12   S    
C24   C47   S    
C135  O12   A    
C18   C27   S    
C57   O2    A    
C42   H17   S    
C75   H48   S    
C66   C91   A    
C42   C51   S    
C83   H38   S    
C47   H21   S    
Cr8   O18   S    
C2    C9    S    
C17   C125  S    
C4    C59   S    
C19   C127  S    
C14   H59   S    
C143  H12   S    
C114  C122  A    
C90   O5    A    
C46   H32   S    
C26   C142  S    
C37   C45   S    
C4    C30   S    
C5    C31   S    
