data_str_m4_o1_o14_f0_acs.sym.98
_audit_creation_date              2012-12-11T14:44:20-0500
_audit_creation_method            fapswitch 2.2
_symmetry_space_group_name_H-M    P1
_symmetry_Int_Tables_number       1
_space_group_crystal_system       triclinic
_cell_length_a                    18.942527
_cell_length_b                    10.91323
_cell_length_c                    18.841536
_cell_angle_alpha                 90.121466
_cell_angle_beta                  89.899179
_cell_angle_gamma                 89.925944
_cell_volume                      3894.98253314

loop_
_atom_site_label
_atom_site_type_symbol
_atom_type_description
_atom_site_fract_x
_atom_site_fract_y
_atom_site_fract_z
_atom_type_partial_charge
C1    C     C_R   0.729177 0.374372 0.144718 0.578039
C2    C     C_R   0.270830 0.374484 0.855268 0.567513
C3    C     C_R   0.229185 0.874392 0.144726 0.568030
C4    C     C_R   0.770828 0.874490 0.855266 0.565262
C5    C     C_R   0.512081 0.389222 0.927291 -0.095427
C6    C     C_R   0.488013 0.389375 0.073187 -0.095409
C7    C     C_R   0.012090 0.889227 0.927284 -0.095109
C8    C     C_R   0.988024 0.889373 0.073180 -0.095137
C9    C     C_R   0.007222 0.999670 0.964160 -0.100267
C10   C     C_R   0.993096 0.999754 0.036555 -0.101034
C11   C     C_R   0.507212 0.499666 0.964166 -0.100208
C12   C     C_R   0.493086 0.499754 0.036560 -0.100846
C13   C     C_R   0.702171 0.847312 0.040935 0.002884
C14   C     C_R   0.297829 0.847174 0.958867 0.002806
C15   C     C_R   0.202178 0.347293 0.040944 0.003053
C16   C     C_R   0.797821 0.347144 0.958854 0.003809
C17   C     C_R   0.704668 0.839537 0.966858 -0.075522
C18   C     C_R   0.295303 0.839088 0.032940 -0.075645
C19   C     C_R   0.204674 0.339519 0.966865 -0.075753
C20   C     C_R   0.795292 0.339057 0.032928 -0.076712
C21   C     C_R   0.756254 0.903935 0.928747 0.012968
C22   C     C_R   0.243851 0.903876 0.071302 0.013102
C23   C     C_R   0.256260 0.403916 0.928753 0.012963
C24   C     C_R   0.743829 0.403826 0.071286 0.011171
C25   C     C_R   0.806226 0.974075 0.964588 -0.136092
C26   C     C_R   0.194097 0.974837 0.035702 -0.135671
C27   C     C_R   0.306236 0.474047 0.964594 -0.135802
C28   C     C_R   0.694060 0.474750 0.035680 -0.136156
C29   C     C_R   0.805399 0.980593 0.036839 -0.136061
C30   C     C_R   0.194996 0.981795 0.963454 -0.136340
C31   C     C_R   0.305409 0.480564 0.036846 -0.136046
C32   C     C_R   0.694961 0.481701 0.963431 -0.135596
C33   C     C_R   0.752140 0.922384 0.075945 -0.012349
C34   C     C_R   0.248022 0.922926 0.924106 -0.013824
C35   C     C_R   0.252148 0.422364 0.075952 -0.012897
C36   C     C_R   0.748006 0.422875 0.924090 -0.011954
C37   C     C_R   0.571753 0.083621 0.483981 -0.141521
C38   C     C_R   0.551462 0.086161 0.554745 -0.129335
C39   C     C_R   0.051400 0.555386 0.477691 -0.129669
C40   C     C_R   0.033260 0.557693 0.548743 -0.126330
C41   C     C_R   0.499477 0.168812 0.576882 0.030106
C42   C     C_R   0.539671 0.161487 0.434922 0.028667
C43   C     C_R   0.006648 0.665483 0.579439 0.030902
C44   C     C_R   0.045761 0.661279 0.436502 0.030526
C45   C     C_R   0.530094 0.155385 0.146832 0.582288
C46   C     C_R   0.469910 0.155411 0.853176 0.572350
C47   C     C_R   0.030099 0.655384 0.146827 0.583069
C48   C     C_R   0.969913 0.655412 0.853174 0.572117
C49   C     C_R   0.468428 0.249513 0.528099 -0.138635
C50   C     C_R   0.487546 0.244301 0.457011 -0.134699
C51   C     C_R   0.004625 0.773779 0.539533 -0.128994
C52   C     C_R   0.024132 0.771675 0.468234 -0.126358
C53   C     C_R   0.805150 0.991992 0.464741 -0.107393
C54   C     C_R   0.212150 0.048152 0.525945 -0.107452
C55   C     C_R   0.290115 0.528868 0.472922 -0.112460
C56   C     C_R   0.676193 0.427710 0.549817 -0.105073
C57   C     C_R   0.805529 0.990782 0.537597 -0.004828
C58   C     C_R   0.201404 0.021742 0.455058 0.000598
C59   C     C_R   0.291092 0.521244 0.546253 -0.011931
C60   C     C_R   0.666393 0.415197 0.477441 -0.010868
C61   C     C_R   0.757851 0.911476 0.573361 0.038462
C62   C     C_R   0.249365 0.940171 0.419782 0.042426
C63   C     C_R   0.249145 0.430720 0.579673 0.043508
C64   C     C_R   0.721045 0.360016 0.436061 0.037231
C65   C     C_R   0.708654 0.842253 0.534149 -0.157064
C66   C     C_R   0.311022 0.902764 0.454991 -0.150154
C67   C     C_R   0.198759 0.366440 0.539904 -0.154268
C68   C     C_R   0.784891 0.326861 0.468748 -0.141511
C69   C     C_R   0.706410 0.851270 0.460630 -0.157223
C70   C     C_R   0.321873 0.935418 0.525783 -0.144376
C71   C     C_R   0.197663 0.376900 0.466538 -0.155810
C72   C     C_R   0.796573 0.355709 0.539525 -0.145924
C73   C     C_R   0.753744 0.928761 0.426058 0.016756
C74   C     C_R   0.269733 0.001219 0.562511 0.011207
C75   C     C_R   0.245305 0.454067 0.432581 0.016764
C76   C     C_R   0.742452 0.407791 0.579877 0.012178
C77   C     C_R   0.741939 0.967585 0.147940 0.531096
C78   C     C_R   0.258108 0.967738 0.852091 0.535747
C79   C     C_R   0.241941 0.467576 0.147945 0.530629
C80   C     C_R   0.758105 0.467726 0.852086 0.524531
C81   C     C_R   0.711518 0.334759 0.360250 0.545289
C82   C     C_R   0.269216 0.382242 0.648921 0.541874
C83   C     C_R   0.229773 0.881811 0.352090 0.544905
C84   C     C_R   0.771104 0.877793 0.646793 0.552762
C85   C     C_R   0.561644 0.153376 0.361206 0.533160
C86   C     C_R   0.468220 0.157433 0.646760 0.536672
C87   C     C_R   0.063169 0.653304 0.361064 0.560051
C88   C     C_R   0.969253 0.657081 0.647107 0.552915
C89   C     C_R   0.742166 0.969954 0.353938 0.530111
C90   C     C_R   0.273113 0.023584 0.638836 0.561606
C91   C     C_R   0.239803 0.478331 0.357062 0.536880
C92   C     C_R   0.757559 0.467824 0.646966 0.542408
C93   C     C_R   0.502410 0.163318 0.925085 0.008327
C94   C     C_R   0.497585 0.163335 0.074940 0.006889
C95   C     C_R   0.002426 0.663322 0.925075 0.009449
C96   C     C_R   0.997601 0.663332 0.074930 0.007698
C97   C     C_R   0.503099 0.276146 0.962588 0.001920
C98   C     C_R   0.496912 0.276181 0.037664 0.001117
C99   C     C_R   0.003112 0.776149 0.962580 0.001914
C100  C     C_R   0.996926 0.776180 0.037656 0.001223
C101  C     C_R   0.491566 0.052650 0.036214 -0.034772
C102  C     C_R   0.508444 0.052607 0.963581 -0.032978
C103  C     C_R   0.991594 0.552646 0.036200 -0.035173
C104  C     C_R   0.008473 0.552612 0.963568 -0.032956
Cr1   Cr    Cr6+3 0.772000 0.169640 0.250110 1.033526
Cr2   Cr    Cr6+3 0.228000 0.169640 0.749890 1.028075
Cr3   Cr    Cr6+3 0.272000 0.669640 0.250110 1.033004
Cr4   Cr    Cr6+3 0.728000 0.669640 0.749890 1.035287
Cr5   Cr    Cr6+3 0.614960 0.323350 0.249260 1.002937
Cr6   Cr    Cr6+3 0.385040 0.323350 0.750740 1.002540
Cr7   Cr    Cr6+3 0.114960 0.823350 0.249260 1.006469
Cr8   Cr    Cr6+3 0.885040 0.823350 0.750740 1.010580
Cr9   Cr    Cr6+3 0.616670 0.010620 0.250840 1.038971
Cr10  Cr    Cr6+3 0.383330 0.010620 0.749160 1.037255
Cr11  Cr    Cr6+3 0.116670 0.510620 0.250840 1.038549
Cr12  Cr    Cr6+3 0.883330 0.510620 0.749160 1.040696
H1    H     H_    0.843267 0.050189 0.438310 0.137099
H2    H     H_    0.172924 0.101546 0.553994 0.128619
H3    H     H_    0.323716 0.596096 0.447464 0.136597
H4    H     H_    0.634225 0.467960 0.581418 0.136231
H5    H     H_    0.672763 0.779370 0.560089 0.138915
H6    H     H_    0.349111 0.843684 0.428960 0.127665
H7    H     H_    0.162380 0.304147 0.565249 0.116720
H8    H     H_    0.827574 0.285828 0.438657 0.133869
H9    H     H_    0.666196 0.802164 0.431331 0.126892
H10   H     H_    0.369108 0.904396 0.552594 0.137414
H11   H     H_    0.159234 0.326693 0.436092 0.117921
H12   H     H_    0.848782 0.343386 0.561640 0.129758
H13   H     H_    0.525269 0.393320 0.871491 0.132349
H14   H     H_    0.474772 0.393648 0.128981 0.135105
H15   H     H_    0.025274 0.893327 0.871483 0.133782
H16   H     H_    0.974781 0.893646 0.128973 0.135492
H17   H     H_    0.014119 0.085417 0.936293 0.171977
H18   H     H_    0.986328 0.085583 0.064615 0.171589
H19   H     H_    0.514111 0.585412 0.936297 0.171952
H20   H     H_    0.486320 0.585585 0.064619 0.171736
H21   H     H_    0.668654 0.778956 0.939257 0.176937
H22   H     H_    0.331177 0.777995 0.060322 0.176332
H23   H     H_    0.168656 0.278945 0.939264 0.176821
H24   H     H_    0.831177 0.277988 0.060313 0.176027
H25   H     H_    0.848670 0.019902 0.937013 0.187239
H26   H     H_    0.151763 0.021017 0.063464 0.186573
H27   H     H_    0.348681 0.519872 0.937019 0.187340
H28   H     H_    0.651719 0.520922 0.063438 0.186613
H29   H     H_    0.845079 0.037866 0.061455 0.158198
H30   H     H_    0.155495 0.039698 0.939038 0.158299
H31   H     H_    0.345090 0.537836 0.061462 0.158194
H32   H     H_    0.655453 0.539585 0.939012 0.158453
H33   H     H_    0.611659 0.019918 0.466896 0.123753
H34   H     H_    0.574928 0.022075 0.591713 0.127444
H35   H     H_    0.067053 0.469263 0.454132 0.126796
H36   H     H_    0.035760 0.472762 0.578315 0.131949
H37   H     H_    0.426541 0.311456 0.544157 0.133951
H38   H     H_    0.461182 0.303570 0.419351 0.129455
H39   H     H_    0.984004 0.857827 0.562001 0.122017
H40   H     H_    0.018558 0.854385 0.437353 0.121850
O1    O     O_R   0.787540 0.042690 0.170470 -0.524017
O2    O     O_R   0.212460 0.042690 0.829530 -0.522316
O3    O     O_R   0.287540 0.542690 0.170470 -0.523451
O4    O     O_R   0.712460 0.542690 0.829530 -0.528016
O5    O     O_R   0.556540 0.252920 0.323970 -0.531944
O6    O     O_R   0.443460 0.252920 0.676030 -0.511003
O7    O     O_R   0.056540 0.752920 0.323970 -0.507576
O8    O     O_R   0.943460 0.752920 0.676030 -0.508574
O9    O     O_R   0.545870 0.051100 0.330840 -0.492949
O10   O     O_R   0.454130 0.051100 0.669160 -0.522296
O11   O     O_R   0.045870 0.551100 0.330840 -0.505177
O12   O     O_R   0.954130 0.551100 0.669160 -0.518535
O13   O     O_R   0.681340 0.959300 0.325510 -0.524276
O14   O     O_R   0.318660 0.959300 0.674490 -0.509171
O15   O     O_R   0.181340 0.459300 0.325510 -0.527680
O16   O     O_R   0.818660 0.459300 0.674490 -0.508354
O17   O     O_3   0.667880 0.167870 0.250070 -0.286733
O18   O     O_3   0.332120 0.167870 0.749930 -0.270283
O19   O     O_3   0.167880 0.667870 0.250070 -0.271127
O20   O     O_3   0.832120 0.667870 0.749930 -0.248258
O21   O     O_R   0.765660 0.292160 0.175050 -0.478593
O22   O     O_R   0.234340 0.292160 0.824950 -0.485661
O23   O     O_R   0.265660 0.792160 0.175050 -0.483646
O24   O     O_R   0.734340 0.792160 0.824950 -0.486358
O25   O     O_R   0.670190 0.408980 0.168550 -0.523737
O26   O     O_R   0.329810 0.408980 0.831450 -0.528079
O27   O     O_R   0.170190 0.908980 0.168550 -0.529357
O28   O     O_R   0.829810 0.908980 0.831450 -0.530098
O29   O     O_R   0.556580 0.251450 0.175160 -0.513669
O30   O     O_R   0.443420 0.251450 0.824840 -0.516553
O31   O     O_R   0.056580 0.751450 0.175160 -0.514009
O32   O     O_R   0.943420 0.751450 0.824840 -0.518900
O33   O     O_R   0.545920 0.049510 0.170320 -0.456787
O34   O     O_R   0.454080 0.049510 0.829680 -0.462080
O35   O     O_R   0.045920 0.549510 0.170320 -0.457349
O36   O     O_R   0.954080 0.549510 0.829680 -0.463174
O37   O     O_R   0.681390 0.957840 0.176710 -0.510026
O38   O     O_R   0.318610 0.957840 0.823290 -0.508179
O39   O     O_R   0.181390 0.457840 0.176710 -0.511284
O40   O     O_R   0.818610 0.457840 0.823290 -0.513747
O41   O     O_R   0.787500 0.044280 0.330990 -0.536111
O42   O     O_R   0.212500 0.044280 0.669010 -0.521864
O43   O     O_R   0.287500 0.544280 0.330990 -0.526196
O44   O     O_R   0.712500 0.544280 0.669010 -0.528661
O45   O     O_R   0.765610 0.293630 0.323860 -0.491823
O46   O     O_R   0.234390 0.293630 0.676140 -0.519715
O47   O     O_R   0.265610 0.793630 0.323860 -0.501984
O48   O     O_R   0.734390 0.793630 0.676140 -0.500154
O49   O     O_R   0.670140 0.410570 0.329080 -0.523532
O50   O     O_R   0.329860 0.410570 0.670920 -0.528155
O51   O     O_R   0.170140 0.910570 0.329080 -0.537683
O52   O     O_R   0.829860 0.910570 0.670920 -0.528798
C105  C     C_2   0.463796 0.939785 0.071025 0.258833
H41   H     H_    0.473513 0.849510 0.049751 0.161494
O53   O     O_2   0.426201 0.947471 0.123605 -0.503128
C106  C     C_2   0.536174 0.939569 0.928511 0.258226
H42   H     H_    0.526298 0.849338 0.949493 0.161617
O54   O     O_2   0.573857 0.947043 0.876012 -0.508960
C107  C     C_2   0.963826 0.439772 0.071003 0.259130
H43   H     H_    0.973550 0.349502 0.049727 0.161140
O55   O     O_2   0.926222 0.447445 0.123576 -0.499219
C108  C     C_2   0.036206 0.439581 0.928492 0.258307
H44   H     H_    0.026340 0.349347 0.949473 0.161454
O56   O     O_2   0.073879 0.447066 0.875986 -0.507972
C109  C     C_3   0.858443 0.074407 0.573799 -0.371679
H45   H     H_    0.832497 0.126219 0.617447 0.149157
H46   H     H_    0.904050 0.021316 0.594048 0.157130
H47   H     H_    0.881488 0.142045 0.536568 0.088473
C110  C     C_3   0.136064 0.078124 0.421864 -0.368690
H48   H     H_    0.150428 0.127642 0.372481 0.151163
H49   H     H_    0.095803 0.007358 0.410950 0.157604
H50   H     H_    0.109298 0.144230 0.457780 0.083334
C111  C     C_3   0.338232 0.608953 0.586222 -0.369077
H51   H     H_    0.311716 0.641332 0.635443 0.158716
H52   H     H_    0.389394 0.564496 0.598919 0.151427
H53   H     H_    0.350378 0.690723 0.553815 0.107904
C112  C     C_3   0.601548 0.477013 0.447070 -0.372727
H54   H     H_    0.617658 0.560318 0.417478 0.152371
H55   H     H_    0.572463 0.415731 0.411365 0.172868
H56   H     H_    0.563668 0.506561 0.488850 0.099971
C113  C     C_2   0.649400 0.773622 0.080204 0.210466
H57   H     H_    0.657520 0.750683 0.135554 0.136388
O57   O     O_2   0.596495 0.735646 0.050711 -0.604622
C114  C     C_2   0.350451 0.773088 0.919320 0.209950
H58   H     H_    0.342218 0.750257 0.863918 0.134176
O58   O     O_2   0.403386 0.734767 0.948618 -0.604131
C115  C     C_2   0.149406 0.273613 0.080217 0.209852
H59   H     H_    0.157531 0.250664 0.135566 0.133435
O59   O     O_2   0.096494 0.235655 0.050729 -0.604575
C116  C     C_2   0.850460 0.273091 0.919309 0.209982
H60   H     H_    0.842237 0.250264 0.863906 0.131779
O60   O     O_2   0.903400 0.234794 0.948611 -0.603994

loop_
_geom_bond_atom_site_label_1
_geom_bond_atom_site_label_2
_ccdc_geom_bond_type
C58   C62   A    
C87   O7    A    
C62   C83   S    
C101  C102  A    
C56   C76   A    
C48   C95   S    
C55   C59   A    
C85   O5    A    
C14   C18   A    
Cr10  O34   S    
C86   O10   A    
C13   C113  S    
C6    H14   S    
C43   C51   A    
C68   H8    S    
C1    O25   A    
C97   C98   A    
Cr6   O6    S    
Cr8   O28   S    
C57   C109  S    
Cr5   O49   S    
C15   C19   A    
C41   C86   S    
C26   H26   S    
C51   H39   S    
C70   H10   S    
C37   C38   A    
C57   C61   A    
C7    C99   A    
C72   H12   S    
Cr7   O19   S    
C43   C88   S    
C64   C68   A    
C49   H37   S    
C46   O34   A    
C48   O32   A    
C109  H47   S    
C107  O55   D    
C79   O3    A    
C95   C99   A    
C80   O4    A    
C94   C98   A    
C115  H59   S    
C29   C33   A    
Cr1   O45   S    
Cr4   O48   S    
C110  H50   S    
C79   O39   A    
Cr12  O16   S    
Cr10  O14   S    
C2    O26   A    
C103  C107  S    
C41   C49   A    
C37   C42   A    
C18   H22   S    
C77   O37   A    
C53   C73   A    
C83   O51   A    
C103  C104  A    
C110  H49   S    
C54   C74   A    
C1    O21   A    
C78   O2    A    
C40   C43   A    
Cr1   O1    S    
C20   C24   A    
C94   C101  A    
C88   O12   A    
C70   C74   A    
C27   H27   S    
C47   C96   S    
C66   H6    S    
Cr10  O10   S    
C86   O6    A    
C65   H5    S    
C44   C87   S    
C112  H54   S    
C67   C71   A    
C72   C76   A    
Cr2   O42   S    
Cr11  O35   S    
C44   C52   A    
Cr1   O41   S    
Cr12  O36   S    
C69   H9    S    
C14   C34   A    
Cr1   O17   S    
C113  H57   S    
C47   O35   A    
C56   H4    S    
C71   H11   S    
Cr3   O47   S    
C4    O24   A    
Cr8   O8    S    
C45   C94   S    
C6    C12   A    
C15   C35   A    
C112  H56   S    
C30   H30   S    
C116  O60   D    
Cr6   O18   S    
C25   C29   A    
C80   O40   A    
C15   C115  S    
C71   C75   A    
C30   C34   A    
C63   C82   S    
C27   C31   A    
C51   C52   A    
C6    C98   A    
C10   H18   S    
C28   C32   A    
Cr7   O7    S    
C9    H17   S    
Cr8   O52   S    
C38   C41   A    
C105  H41   S    
C36   C80   S    
Cr1   O21   S    
C39   C40   A    
C82   O46   A    
C62   C66   A    
C55   H3    S    
C89   O13   A    
C115  O59   D    
Cr2   O2    S    
C31   H31   S    
C102  C106  S    
C4    O28   A    
C3    O23   A    
C68   C72   A    
Cr4   O44   S    
C19   C23   A    
C107  H43   S    
C63   C67   A    
C8    H16   S    
C111  H51   S    
C11   H19   S    
C64   C81   S    
Cr2   O46   S    
C109  H45   S    
C112  H55   S    
C84   O52   A    
C93   C97   A    
C108  O56   D    
C99   C100  A    
C88   O8    A    
C16   C20   A    
C90   O14   A    
Cr7   O27   S    
C114  O58   D    
Cr2   O18   S    
Cr11  O19   S    
Cr6   O50   S    
C42   C85   S    
C46   O30   A    
C69   C73   A    
C14   C114  S    
C104  C108  S    
C58   C110  S    
C76   C92   S    
C28   H28   S    
Cr12  O20   S    
C45   O33   A    
Cr8   O20   S    
C40   H36   S    
C5    C97   A    
C26   C30   A    
C23   C27   A    
C91   O15   A    
C54   H2    S    
C78   O38   A    
C111  H52   S    
C49   C50   A    
C31   C35   A    
C59   C63   A    
C35   C79   S    
Cr11  O15   S    
Cr11  O11   S    
C81   O49   A    
C45   O29   A    
Cr7   O51   S    
C82   O50   A    
C83   O47   A    
Cr9   O33   S    
C95   C104  A    
Cr4   O24   S    
Cr9   O17   S    
C12   H20   S    
C54   C58   A    
Cr5   O25   S    
C91   O43   A    
C7    C9    A    
C21   C25   A    
C116  H60   S    
Cr6   O30   S    
Cr9   O13   S    
C53   C57   A    
Cr10  O38   S    
C42   C50   A    
Cr3   O23   S    
C18   C22   A    
Cr9   O37   S    
C8    C10   A    
C25   H25   S    
C60   C112  S    
C24   C28   A    
Cr9   O9    S    
C37   H33   S    
C61   C84   S    
C67   H7    S    
C93   C102  A    
Cr8   O32   S    
Cr3   O3    S    
C11   C12   A    
C32   C36   A    
C5    C11   A    
C39   C44   A    
C32   H32   S    
C75   C91   S    
C52   H40   S    
C87   O11   A    
C89   O41   A    
C90   O42   A    
C96   C100  A    
Cr7   O31   S    
C13   C17   A    
C3    O27   A    
C60   C64   A    
C85   O9    A    
C20   H24   S    
C113  O57   D    
C8    C100  A    
C55   C75   A    
C7    H15   S    
C109  H46   S    
Cr5   O5    S    
C1    C24   S    
C34   C78   S    
Cr3   O43   S    
C4    C21   S    
C33   C77   S    
C108  H44   S    
C66   C70   A    
C46   C93   S    
Cr3   O19   S    
C50   H38   S    
C53   H1    S    
C65   C69   A    
C74   C90   S    
Cr4   O20   S    
C5    H13   S    
C114  H58   S    
C105  O53   D    
C38   H34   S    
C9    C10   A    
Cr5   O17   S    
C61   C65   A    
Cr11  O39   S    
C39   H35   S    
C17   C21   A    
C16   C116  S    
C48   O36   A    
C106  O54   D    
C73   C89   S    
C111  H53   S    
Cr12  O40   S    
Cr4   O4    S    
C56   C60   A    
Cr5   O29   S    
Cr10  O18   S    
C106  H42   S    
Cr6   O26   S    
C92   O16   A    
C101  C105  S    
C13   C33   A    
C22   C26   A    
C96   C103  A    
C2    C23   S    
Cr12  O12   S    
C3    C22   S    
C17   H21   S    
C2    O22   A    
C84   O48   A    
C92   O44   A    
C47   O31   A    
Cr2   O22   S    
C19   H23   S    
C16   C36   A    
C81   O45   A    
C29   H29   S    
C77   O1    A    
C110  H48   S    
C59   C111  S    
