data_str_m9_o4_o16_f0_sra.sym.12
_audit_creation_date              2012-12-11T17:00:16-0500
_audit_creation_method            fapswitch 2.2
_symmetry_space_group_name_H-M    P1
_symmetry_Int_Tables_number       1
_space_group_crystal_system       triclinic
_cell_length_a                    6.939681
_cell_length_b                    13.641646
_cell_length_c                    20.313536
_cell_angle_alpha                 103.401859
_cell_angle_beta                  89.376742
_cell_angle_gamma                 91.166925
_cell_volume                      1870.26205766

loop_
_atom_site_label
_atom_site_type_symbol
_atom_type_description
_atom_site_fract_x
_atom_site_fract_y
_atom_site_fract_z
_atom_type_partial_charge
O1    O     O_R   0.506770 0.599700 0.449550 -0.543417
O2    O     O_R   0.179980 0.595740 0.587960 -0.550029
O3    O     O_R   0.004580 0.400300 0.550450 -0.542340
C1    C     C_R   0.348292 0.617418 0.615118 0.709871
O4    O     O_R   0.177380 0.611700 0.452380 -0.547503
O5    O     O_R   0.001970 0.416370 0.413900 -0.536420
C2    C     C_R   0.347957 0.636906 0.435037 0.696053
O6    O     O_R   0.509390 0.583630 0.586100 -0.542289
O7    O     O_3   0.337530 0.435890 0.487530 -0.362928
V1    V     V_3+5 0.064660 0.511890 0.502310 1.424037
O8    O     O_R   0.671950 0.404260 0.412040 -0.532580
C3    C     C_R   0.840523 0.386783 0.383352 0.739577
O9    O     O_R   0.674540 0.388300 0.547620 -0.536593
C4    C     C_R   0.841136 0.363748 0.565877 0.705207
V2    V     V_3+5 0.564030 0.488110 0.497690 1.456126
O10   O     O_3   0.841030 0.564110 0.512470 -0.381778
C5    C     C_R   0.751494 0.120458 0.616037 -0.169299
H1    H     H_    0.737883 0.171242 0.524399 0.145994
H2    H     H_    0.723628 0.995576 0.697455 0.115666
H3    H     H_    0.705254 0.044663 0.591138 0.124265
C6    C     C_R   0.840488 0.289086 0.607408 -0.117600
C7    C     C_R   0.891839 0.317318 0.933492 -0.149671
C8    C     C_R   0.882126 0.394910 0.899959 -0.145037
C9    C     C_R   0.857900 0.373442 0.830044 -0.103967
C10   C     C_R   0.848715 0.272665 0.791249 0.093867
C11   C     C_R   0.837897 0.194282 0.827011 0.054108
C12   C     C_R   0.838553 0.247122 0.718741 0.049236
C13   C     C_R   0.784093 0.146661 0.685806 0.089554
C14   C     C_R   0.762719 0.072411 0.722562 -0.188566
C15   C     C_R   0.795279 0.095009 0.791643 -0.165635
C16   C     C_R   0.884096 0.316317 0.677605 0.267445
C17   C     C_R   0.772571 0.192019 0.577799 -0.200714
C18   C     C_R   0.866255 0.217316 0.897914 -0.079882
H4    H     H_    0.912526 0.335437 0.987809 0.121494
H5    H     H_    0.836543 0.437409 0.808462 0.164397
H6    H     H_    0.891359 0.472469 0.928439 0.128616
H7    H     H_    0.780452 0.034192 0.817450 0.139916
C19   C     C_R   0.691503 0.209952 0.217834 0.031692
C20   C     C_R   0.860233 0.197786 0.178788 -0.094161
C21   C     C_R   0.017701 0.262353 0.203543 -0.130469
H8    H     H_    0.147312 0.260355 0.173077 0.143879
C22   C     C_R   0.011595 0.329589 0.268039 0.311260
C23   C     C_R   0.847995 0.328630 0.311487 -0.176370
C24   C     C_R   0.686387 0.272309 0.282308 0.088285
C25   C     C_3   0.552464 0.202048 0.307859 0.205606
C26   C     C_3   0.558358 0.133648 0.236899 -0.415375
H9    H     H_    0.409242 0.235091 0.323905 0.126087
H10   H     H_    0.418560 0.128774 0.210154 0.169695
H11   H     H_    0.628497 0.060110 0.233916 0.196826
C27   C     C_R   0.482584 0.671630 0.732793 0.114308
C28   C     C_R   0.351811 0.684353 0.683757 -0.134333
C29   C     C_R   0.208529 0.757192 0.704134 -0.273034
H12   H     H_    0.100876 0.766511 0.667953 0.119929
C30   C     C_R   0.210100 0.822986 0.769559 0.348756
C31   C     C_R   0.353616 0.813510 0.816659 -0.140175
C32   C     C_R   0.482835 0.734003 0.797432 0.019448
C33   C     C_3   0.697262 0.732957 0.801608 -0.379727
C34   C     C_3   0.696905 0.665220 0.730599 -0.399745
H13   H     H_    0.746468 0.694286 0.840774 0.171780
H14   H     H_    0.763398 0.808479 0.804376 0.200019
H15   H     H_    0.746252 0.587696 0.728953 0.180622
H16   H     H_    0.763134 0.701562 0.691971 0.169439
C35   C     C_R   0.334215 0.887622 0.391699 -0.147487
H17   H     H_    0.330329 0.836897 0.483876 0.102044
H18   H     H_    0.243584 0.003592 0.312226 0.156118
H19   H     H_    0.311479 0.965282 0.418011 0.112871
C36   C     C_R   0.362000 0.713895 0.396282 -0.033713
C37   C     C_R   0.414293 0.689638 0.071621 -0.238680
C38   C     C_R   0.453022 0.614893 0.106441 0.411311
C39   C     C_R   0.439586 0.637266 0.176875 -0.141346
C40   C     C_R   0.380046 0.732809 0.214054 -0.000368
C41   C     C_R   0.328513 0.806437 0.177878 0.007800
C42   C     C_R   0.370608 0.757881 0.286346 0.101826
C43   C     C_R   0.338789 0.859346 0.320766 0.128533
C44   C     C_R   0.288730 0.929575 0.284616 -0.250098
C45   C     C_R   0.256217 0.899305 0.215201 -0.068958
C46   C     C_R   0.382011 0.685460 0.325784 -0.225211
C47   C     C_R   0.343937 0.814920 0.429259 -0.169872
C48   C     C_R   0.355782 0.785519 0.106217 -0.086066
H20   H     H_    0.392806 0.605983 0.303071 0.111627
H21   H     H_    0.436529 0.674219 0.017292 0.097972
H22   H     H_    0.482649 0.579029 0.201326 0.136597
O11   O     O_R   0.203450 0.916320 0.913910 -0.512426
O12   O     O_R   0.535520 0.888300 0.047620 -0.546794
O13   O     O_R   0.710860 0.083650 0.086100 -0.551662
C49   C     C_R   0.365658 0.865626 0.067877 0.697852
O14   O     O_R   0.532860 0.904250 0.912040 -0.553606
O15   O     O_R   0.708190 0.099710 0.949550 -0.543743
C50   C     C_R   0.364352 0.883239 0.884537 0.745799
O16   O     O_R   0.206120 0.900260 0.050460 -0.524801
O17   O     O_3   0.375280 0.064080 0.012470 -0.377232
V3    V     V_3+5 0.648180 0.988110 0.997690 1.434313
O18   O     O_R   0.038220 0.111740 0.952370 -0.536744
C51   C     C_R   0.870954 0.138387 0.935939 0.697901
O19   O     O_R   0.040880 0.095790 0.087940 -0.537506
C52   C     C_R   0.871485 0.121671 0.113520 0.724494
V4    V     V_3+5 0.148800 0.011950 0.002300 1.492081
O20   O     O_3   0.871820 0.935920 0.987530 -0.366150
O21   O     O_3   0.168747 0.393068 0.286337 -0.652793
H23   H     H_    0.121897 0.457762 0.314110 0.282700
O22   O     O_3   0.641413 0.159119 0.355805 -0.632548
H24   H     H_    0.542686 0.113892 0.369408 0.285761
O23   O     O_3   0.081847 0.900957 0.786354 -0.653028
H25   H     H_    0.997339 0.899354 0.747075 0.270810
O24   O     O_3   0.512968 0.520304 0.073276 -0.645663
H26   H     H_    0.516632 0.516265 0.023891 0.283906
C53   C     C_2   0.095791 0.949069 0.190203 0.758841
O25   O     O_2   0.072635 0.039110 0.212312 -0.586179
O26   O     O_R   0.956432 0.890615 0.148675 -0.645762
H27   H     H_    0.842608 0.931222 0.140298 0.289097
O27   O     O_3   0.980592 0.405645 0.706019 -0.670034
H28   H     H_    0.002731 0.447051 0.672691 0.284793

loop_
_geom_bond_atom_site_label_1
_geom_bond_atom_site_label_2
_ccdc_geom_bond_type
C34   H16   S    
C31   C32   A    
O18   C51   A    
C42   C43   A    
O19   C52   A    
C36   C46   A    
C41   C45   A    
C18   C51   S    
V4    O20   S    
V3    O20   S    
C25   C26   S    
C29   H12   S    
C6    C16   A    
C26   H11   S    
O22   H24   S    
C37   H21   S    
C4    C6    S    
C13   C14   A    
O12   C49   A    
C41   C48   A    
O5    C3    A    
C19   C20   A    
O13   C52   A    
C33   H13   S    
V2    O10   S    
C5    H3    S    
C32   C33   S    
O8    V2    S    
O15   V3    S    
C37   C38   A    
C8    C9    A    
C39   C40   A    
O1    V2    S    
O7    V1    S    
O16   V4    S    
C1    O6    A    
C34   H15   S    
C21   C22   A    
C35   H19   S    
O9    C4    A    
C53   O26   S    
C36   C47   A    
C7    H4    S    
O13   V3    S    
C29   C30   A    
C26   H10   S    
C25   H9    S    
O11   C50   A    
C6    C17   A    
O15   C51   A    
C9    H5    S    
C43   C44   A    
C1    C28   S    
C12   C16   A    
C28   C29   A    
C27   C34   S    
C30   O23   S    
C9    C10   A    
C49   O16   A    
C20   C21   A    
C40   C42   A    
C38   O24   S    
C33   H14   S    
O6    V2    S    
C10   C11   A    
C27   C32   A    
C15   H7    S    
O2    C1    A    
C44   C45   A    
C19   C24   A    
C14   C15   A    
C11   C18   A    
O21   H23   S    
C53   O25   D    
C27   C28   A    
O17   V4    S    
O3    C4    A    
C25   O22   S    
C21   H8    S    
C11   C15   A    
C45   C53   S    
O14   C50   A    
C23   C24   A    
C10   C12   A    
H1    C17   S    
C22   C23   A    
O2    V1    S    
O18   V4    S    
O17   V3    S    
O14   V3    S    
C24   C25   S    
O4    C2    A    
C46   H20   S    
C7    C18   A    
C30   C31   A    
C16   O27   S    
O27   H28   S    
O1    C2    A    
C5    C13   A    
H17   C47   S    
O5    V1    S    
O8    C3    A    
O19   V4    S    
C35   C43   A    
C3    C23   S    
O24   H26   S    
H18   C44   S    
O9    V2    S    
O7    V2    S    
O4    V1    S    
C31   C50   S    
O3    V1    S    
V1    O10   S    
C22   O21   S    
C33   C34   S    
C37   C48   A    
C38   C39   A    
C39   H22   S    
C20   C52   S    
C19   C26   S    
C2    C36   S    
C40   C41   A    
C8    H6    S    
O11   V4    S    
O23   H25   S    
C5    C17   A    
C42   C46   A    
C7    C8    A    
O12   V3    S    
O26   H27   S    
C48   C49   S    
C12   C13   A    
C35   C47   A    
H2    C14   S    
