data_str_m2_o16_o18_f0_pcu.sym.15
_audit_creation_date              2012-10-26T18:31:55-0400
_audit_creation_method            fapswitch 2.2
_symmetry_space_group_name_H-M    P1
_symmetry_Int_Tables_number       1
_space_group_crystal_system       triclinic
_cell_length_a                    12.491137
_cell_length_b                    13.343866
_cell_length_c                    14.302135
_cell_angle_alpha                 96.423411
_cell_angle_beta                  108.327902
_cell_angle_gamma                 117.946883
_cell_volume                      1901.12456529

loop_
_atom_site_label
_atom_site_type_symbol
_atom_type_description
_atom_site_fract_x
_atom_site_fract_y
_atom_site_fract_z
_atom_type_partial_charge
C1    C     C_R   0.647957 0.713226 0.505498 0.551599
C2    C     C_R   0.157958 0.425269 0.996518 0.049335
C3    C     C_R   0.150177 0.491512 0.076052 0.034158
C4    C     C_R   0.616452 0.514529 0.687107 0.577512
C5    C     C_R   0.247425 0.386675 0.021428 -0.107001
C6    C     C_R   0.323422 0.407023 0.124725 -0.108949
C7    C     C_R   0.239935 0.522958 0.178701 -0.148029
C8    C     C_R   0.115014 0.956674 0.342425 0.266699
C9    C     C_R   0.244242 0.158607 0.458583 -0.046631
C10   C     C_R   0.735604 0.927767 0.573475 -0.117718
C11   C     C_R   0.829978 0.046918 0.594011 -0.136565
C12   C     C_R   0.857257 0.508007 0.921353 0.011127
C13   C     C_R   0.927204 0.077940 0.556115 -0.113742
C14   C     C_R   0.928698 0.989386 0.492733 0.047156
C15   C     C_R   0.822337 0.869166 0.461539 0.035047
C16   C     C_R   0.344486 0.284546 0.483851 0.542963
C17   C     C_R   0.031218 0.016620 0.457992 -0.007918
C18   C     C_R   0.016772 0.927899 0.381372 0.048518
C19   C     C_R   0.903481 0.812994 0.343526 -0.112047
C20   C     C_R   0.807741 0.784002 0.382532 -0.115502
C21   C     C_R   0.148705 0.129598 0.498414 -0.128738
C22   C     C_R   0.228999 0.071714 0.382341 -0.114458
C23   C     C_R   0.825705 0.543245 0.000771 0.007782
C24   C     C_R   0.732775 0.837726 0.509814 0.013503
C25   C     C_R   0.269972 0.691336 0.671570 -0.155891
C26   C     C_R   0.645715 0.326698 0.370228 0.059287
C27   C     C_R   0.711598 0.267835 0.365598 -0.176089
C28   C     C_R   0.383091 0.484157 0.313014 0.519021
C29   C     C_R   0.847366 0.324329 0.427817 -0.120793
C30   C     C_R   0.921780 0.443813 0.490313 -0.029406
C31   C     C_R   0.847225 0.492932 0.510253 0.151200
C32   C     C_R   0.066616 0.513675 0.538564 -0.026108
C33   C     C_R   0.130849 0.612585 0.626628 -0.013443
C34   C     C_R   0.960415 0.483331 0.945649 0.065270
C35   C     C_R   0.055902 0.631949 0.670727 0.082637
C36   C     C_R   0.922549 0.592873 0.607372 0.123719
C37   C     C_R   0.152260 0.492017 0.504185 0.420704
C38   C     C_R   0.348046 0.666924 0.635787 -0.002542
C39   C     C_R   0.682021 0.520918 0.795743 -0.010591
C40   C     C_R   0.317350 0.473126 0.203914 -0.012571
C41   C     C_R   0.712124 0.551415 0.975685 0.077645
C42   C     C_R   0.643298 0.545127 0.873933 0.275032
C43   C     C_R   0.786296 0.500334 0.820396 -0.162950
C44   C     C_3   0.040866 0.886219 0.166952 -0.033124
C45   C     C_R   0.047798 0.517078 0.051059 0.033496
C46   C     C_3   0.110268 0.876085 0.099208 -0.349586
C47   C     C_3   0.075025 0.419094 0.326121 0.006834
C48   C     C_3   0.928104 0.359246 0.253864 -0.419034
C49   C     C_3   0.574734 0.676037 0.881483 0.006656
C50   C     C_3   0.465979 0.684897 0.900906 -0.339800
C51   C     C_R   0.023497 0.567221 0.128259 -0.144481
C52   C     C_R   0.910322 0.572540 0.103713 -0.113440
C53   C     C_R   0.974915 0.421300 0.868233 -0.107860
C54   C     C_R   0.072285 0.393362 0.893502 -0.120269
Cu1   Cu    Cu3+1 0.416420 0.526630 0.522910 0.989097
Cu2   Cu    Cu3+1 0.583580 0.473370 0.477090 0.955608
H1    H     H_    0.894034 0.605533 0.166979 0.159010
H2    H     H_    0.455255 0.726306 0.671792 0.115423
H3    H     H_    0.249298 0.583460 0.241437 0.111558
H4    H     H_    0.319486 0.772633 0.734377 0.150124
H5    H     H_    0.539521 0.280830 0.323607 0.120178
H6    H     H_    0.892780 0.272935 0.425718 0.175730
H7    H     H_    0.657065 0.177537 0.314379 0.109669
H8    H     H_    0.384564 0.369104 0.142527 0.151713
H9    H     H_    0.077449 0.342744 0.832077 0.112972
H10   H     H_    0.816216 0.484235 0.760386 0.161609
H11   H     H_    0.086007 0.598047 0.209486 0.113002
H12   H     H_    0.253285 0.335246 0.961115 0.139332
H13   H     H_    0.907621 0.387355 0.787394 0.108179
H14   H     H_    0.045882 0.972670 0.171999 0.115570
H15   H     H_    0.933944 0.813279 0.128025 0.154962
H16   H     H_    0.106812 0.790885 0.090426 0.196204
H17   H     H_    0.059933 0.879183 0.021269 0.132518
H18   H     H_    0.216133 0.951291 0.134860 0.152154
H19   H     H_    0.111694 0.378344 0.282896 0.177419
H20   H     H_    0.127012 0.516465 0.336357 0.122897
H21   H     H_    0.886293 0.410074 0.276740 0.163710
H22   H     H_    0.917521 0.358105 0.173719 0.122710
H23   H     H_    0.301379 0.094398 0.349395 0.130686
H24   H     H_    0.871072 0.264908 0.251800 0.160725
H25   H     H_    0.591839 0.715058 0.819166 0.133429
H26   H     H_    0.668732 0.731203 0.953792 0.127295
H27   H     H_    0.460584 0.661797 0.972158 0.195789
H28   H     H_    0.487945 0.777210 0.910684 0.107110
H29   H     H_    0.367682 0.621819 0.835037 0.193912
H30   H     H_    0.889190 0.744310 0.284344 0.164896
H31   H     H_    0.168356 0.197928 0.560993 0.143265
H32   H     H_    0.666976 0.906064 0.609959 0.125665
H33   H     H_    0.997311 0.172135 0.575200 0.110760
H34   H     H_    0.830518 0.115764 0.642458 0.114909
H35   H     H_    0.720197 0.694681 0.347463 0.170247
I1    I     I_    0.150646 0.709431 0.838870 -0.453892
I2    I     I_    0.901796 0.729688 0.679875 -0.321815
I3    I     I_    0.633481 0.561942 0.086877 -0.505272
N1    N     N_R   0.290690 0.566960 0.557640 -0.220665
N2    N     N_R   0.709100 0.433710 0.442970 -0.226127
O1    O     O_R   0.545970 0.684450 0.528810 -0.514764
O2    O     O_3   0.097076 0.392134 0.421150 -0.560769
O3    O     O_3   0.532786 0.554361 0.850244 -0.517987
O4    O     O_R   0.687130 0.639470 0.490120 -0.473554
O5    O     O_R   0.519670 0.535100 0.660030 -0.457318
O6    O     O_R   0.660830 0.490120 0.621340 -0.492652
O7    O     O_R   0.312870 0.360530 0.509880 -0.452653
O8    O     O_R   0.454030 0.315550 0.471190 -0.516132
O9    O     O_R   0.339170 0.509880 0.378660 -0.508283
O10   O     O_R   0.480330 0.464900 0.339970 -0.507264
O11   O     O_3   0.099704 0.873761 0.263763 -0.572512

loop_
_geom_bond_atom_site_label_1
_geom_bond_atom_site_label_2
_ccdc_geom_bond_type
C48   H21   S    
Cu1   Cu2   S    
C21   H31   S    
C27   C29   A    
C41   C42   A    
C35   C36   A    
C19   H30   S    
C53   H13   S    
C50   H28   S    
C54   H9    S    
C53   C54   A    
C12   C23   A    
C10   H32   S    
C26   C27   A    
C47   O2    S    
Cu1   O9    S    
C26   H5    S    
C47   H20   S    
C12   C43   A    
C3    C7    A    
C30   C31   A    
C9    C22   A    
C28   C40   S    
C6    H8    S    
C31   N2    A    
Cu1   O7    S    
C37   N1    A    
C44   H15   S    
C18   C19   A    
C48   H22   S    
C50   H29   S    
C38   H2    S    
C36   I2    S    
C16   O8    A    
C47   C48   S    
C28   O10   A    
C4    O6    A    
C38   N1    A    
C8    C22   A    
C7    C40   A    
C44   H14   S    
C25   H4    S    
C46   H16   S    
C35   I1    S    
C13   C14   A    
C14   C17   A    
C5    H12   S    
C1    O4    A    
C7    H3    S    
C37   O2    S    
C44   C46   S    
C50   H27   S    
C39   C42   A    
C26   N2    A    
C15   C20   A    
C20   H35   S    
C51   C52   A    
Cu2   O8    S    
Cu1   N1    S    
C2    C54   A    
C1    O1    A    
C39   C43   A    
C10   C24   A    
C3    C45   A    
C8    C18   A    
C49   H26   S    
C29   C30   A    
C25   C38   A    
C49   O3    S    
C16   O7    A    
C41   I3    S    
C4    C39   S    
C28   O9    A    
C4    O5    A    
Cu1   O1    S    
C17   C18   A    
C34   C45   A    
C51   H11   S    
C32   C37   A    
Cu2   O10   S    
C27   H7    S    
C1    C24   S    
C15   C24   A    
C6    C40   A    
C2    C5    A    
Cu2   O4    S    
C12   C34   A    
C52   H1    S    
C8    O11   S    
C46   H18   S    
C44   O11   S    
Cu2   N2    S    
C29   H6    S    
C13   H33   S    
C31   C36   A    
C9    C16   S    
C22   H23   S    
Cu1   O5    S    
C23   C41   A    
C32   C33   A    
C48   H24   S    
C19   C20   A    
C2    C3    A    
C47   H19   S    
C42   O3    S    
C30   C32   A    
C11   C13   A    
C11   H34   S    
C9    C21   A    
C23   C52   A    
C5    C6    A    
C43   H10   S    
C33   C35   A    
C49   H25   S    
C17   C21   A    
C10   C11   A    
Cu2   O6    S    
C34   C53   A    
C49   C50   S    
C45   C51   A    
C14   C15   A    
C46   H17   S    
C25   C33   A    
