data_str_m2_o18_o21_f0_pcu.sym.34
_audit_creation_date              2012-10-26T18:52:11-0400
_audit_creation_method            fapswitch 2.2
_symmetry_space_group_name_H-M    P1
_symmetry_Int_Tables_number       1
_space_group_crystal_system       triclinic
_cell_length_a                    13.824003
_cell_length_b                    14.785658
_cell_length_c                    14.906551
_cell_angle_alpha                 114.835738
_cell_angle_beta                  107.997396
_cell_angle_gamma                 70.86597
_cell_volume                      2559.63952356

loop_
_atom_site_label
_atom_site_type_symbol
_atom_type_description
_atom_site_fract_x
_atom_site_fract_y
_atom_site_fract_z
_atom_type_partial_charge
C1    C     C_R   0.505751 0.119294 0.686684 0.541642
C2    C     C_R   0.371095 0.523236 0.917487 -0.112181
C3    C     C_R   0.648171 0.370925 0.063288 0.228088
C4    C     C_R   0.351310 0.628131 0.937806 0.231194
C5    C     C_R   0.314072 0.312635 0.342602 -0.170557
C6    C     C_R   0.687966 0.686384 0.655503 -0.167475
C7    C     C_R   0.342970 0.226662 0.369437 0.127189
C8    C     C_R   0.656044 0.774634 0.632031 0.126168
C9    C     C_R   0.494757 0.279574 0.481708 0.039904
C10   C     C_R   0.508164 0.717923 0.515153 0.038649
C11   C     C_R   0.467049 0.370464 0.457207 -0.013326
C12   C     C_R   0.494218 0.880786 0.313335 0.542834
C13   C     C_R   0.541185 0.622989 0.533408 -0.013451
C14   C     C_R   0.375346 0.384194 0.383959 0.016912
C15   C     C_R   0.634779 0.608040 0.604474 0.018864
C16   C     C_R   0.687705 0.985803 0.504746 0.547428
C17   C     C_R   0.312260 0.014393 0.495579 0.547730
C18   C     C_R   0.524490 0.449474 0.504974 -0.008267
C19   C     C_R   0.486644 0.541782 0.481981 -0.007699
C20   C     C_R   0.397743 0.548521 0.405456 -0.142991
C21   C     C_R   0.618829 0.438511 0.574476 -0.147130
C22   C     C_R   0.343969 0.470700 0.355009 -0.011332
C23   C     C_R   0.502045 0.361631 0.919578 -0.034615
C24   C     C_R   0.674430 0.515110 0.623341 -0.012408
C25   C     C_1   0.205358 0.024157 0.491820 -0.033900
C26   C     C_1   0.794659 0.976970 0.510155 -0.034132
C27   C     C_2   0.009975 0.033201 0.486140 -0.009288
C28   C     C_2   0.990452 0.969291 0.519157 -0.008549
C29   C     C_1   0.884301 0.971758 0.514811 -0.069035
C30   C     C_1   0.115867 0.030144 0.488833 -0.070803
C31   C     C_R   0.501274 0.188894 0.793104 -0.028821
C32   C     C_R   0.498530 0.811406 0.206904 -0.028208
C33   C     C_R   0.594305 0.210378 0.963573 -0.041141
C34   C     C_R   0.498396 0.638117 0.081246 -0.031457
C35   C     C_R   0.403722 0.789136 0.037000 -0.038733
C36   C     C_R   0.544196 0.150229 0.872265 0.197760
C37   C     C_R   0.453689 0.849906 0.127774 0.198150
C38   C     C_R   0.466779 0.297082 0.818947 -0.063145
C39   C     C_R   0.534757 0.703402 0.181341 -0.059812
C40   C     C_R   0.074452 0.896736 0.562597 0.039226
C41   C     C_R   0.071730 0.792840 0.525131 -0.114751
C42   C     C_R   0.148603 0.724664 0.567254 -0.126206
C43   C     C_R   0.228808 0.759379 0.646938 -0.086686
C44   C     C_R   0.231576 0.862677 0.685545 -0.102767
C45   C     C_R   0.581724 0.314308 0.983211 0.033342
C46   C     C_R   0.154375 0.931339 0.644292 -0.090595
C47   C     C_R   0.925163 0.104294 0.441526 0.036228
C48   C     C_R   0.922106 0.209660 0.481655 -0.103421
C49   C     C_R   0.843261 0.276172 0.438748 -0.115423
C50   C     C_R   0.766915 0.238397 0.356014 -0.090111
C51   C     C_R   0.769951 0.133716 0.314976 -0.103602
C52   C     C_R   0.849115 0.066724 0.356847 -0.092577
C53   C     C_R   0.606822 0.662162 0.260045 0.054599
C54   C     C_R   0.581806 0.592844 0.286436 -0.076536
C55   C     C_R   0.656412 0.544802 0.350315 -0.110204
C56   C     C_R   0.417551 0.685105 0.017769 0.033768
C57   C     C_R   0.753430 0.570396 0.393474 -0.110525
C58   C     C_R   0.776986 0.642811 0.371449 -0.115020
C59   C     C_R   0.704270 0.688412 0.304840 -0.077064
C60   C     C_R   0.399274 0.340093 0.740061 0.057680
C61   C     C_R   0.300249 0.318056 0.693060 -0.078101
C62   C     C_R   0.232029 0.365710 0.626234 -0.121971
C63   C     C_R   0.261977 0.435287 0.605503 -0.109885
C64   C     C_R   0.360562 0.456869 0.651105 -0.108518
C65   C     C_R   0.430253 0.407591 0.716146 -0.075641
C66   C     C_R   0.255774 0.482044 0.270094 0.021217
C67   C     C_R   0.468150 0.470674 0.958133 -0.015331
C68   C     C_R   0.168899 0.564964 0.287135 -0.104632
C69   C     C_R   0.086706 0.576654 0.207014 -0.108655
C70   C     C_R   0.091161 0.506264 0.109173 -0.098434
C71   C     C_R   0.177972 0.424217 0.091273 -0.110873
C72   C     C_R   0.260233 0.412150 0.171327 -0.097915
C73   C     C_R   0.776398 0.492499 0.691413 0.028856
C74   C     C_R   0.780961 0.464548 0.772146 -0.092034
C75   C     C_R   0.877132 0.438199 0.833109 -0.111689
C76   C     C_R   0.969445 0.439159 0.813850 -0.104921
C77   C     C_R   0.965761 0.466759 0.733843 -0.116443
C78   C     C_R   0.532381 0.528911 0.042823 -0.016182
C79   C     C_R   0.869879 0.492811 0.672513 -0.107693
C80   C     C_R   0.725197 0.846891 0.687913 0.078616
C81   C     C_R   0.813264 0.834736 0.652060 -0.080056
C82   C     C_R   0.887583 0.892822 0.711929 -0.119950
C83   C     C_R   0.877385 0.959812 0.809744 -0.107966
C84   C     C_R   0.795181 0.965570 0.849066 -0.097471
C85   C     C_R   0.721588 0.906744 0.789264 -0.065578
C86   C     C_R   0.271427 0.156500 0.316290 0.078918
C87   C     C_R   0.183717 0.172000 0.354260 -0.080456
C88   C     C_R   0.107477 0.115682 0.296582 -0.119764
C89   C     C_R   0.629314 0.475788 0.083242 -0.119994
C90   C     C_R   0.115800 0.046567 0.199064 -0.106839
C91   C     C_R   0.198077 0.036971 0.157708 -0.099973
C92   C     C_R   0.273354 0.094361 0.215154 -0.068296
Cu1   Cu    Cu3+1 0.526370 0.916390 0.524860 0.957513
Cu2   Cu    Cu3+1 0.473630 0.083610 0.475140 0.957706
H1    H     H_    0.241263 0.323476 0.289445 0.112419
H2    H     H_    0.562341 0.264510 0.537589 0.126598
H3    H     H_    0.010205 0.764621 0.463204 0.093416
H4    H     H_    0.146061 0.644814 0.537872 0.096778
H5    H     H_    0.288390 0.706418 0.679189 0.127780
H6    H     H_    0.293176 0.889727 0.747949 0.118771
H7    H     H_    0.156470 0.011522 0.676621 0.105052
H8    H     H_    0.980601 0.240168 0.545982 0.108916
H9    H     H_    0.841318 0.357010 0.469183 0.105239
H10   H     H_    0.705830 0.290130 0.323286 0.126682
H11   H     H_    0.711286 0.104351 0.250311 0.118432
H12   H     H_    0.756667 0.679632 0.714027 0.113722
H13   H     H_    0.851337 0.985544 0.323082 0.104417
H14   H     H_    0.771487 0.373032 0.171222 0.325451
H15   H     H_    0.227806 0.625426 0.829927 0.324040
H16   H     H_    0.506932 0.572178 0.253406 0.113971
H17   H     H_    0.639218 0.487356 0.366142 0.119771
H18   H     H_    0.810554 0.533696 0.443509 0.094864
H19   H     H_    0.852421 0.662152 0.404418 0.088845
H20   H     H_    0.724809 0.742115 0.286047 0.086908
H21   H     H_    0.274969 0.266286 0.710452 0.087320
H22   H     H_    0.155167 0.350013 0.591902 0.085699
H23   H     H_    0.369465 0.612597 0.380198 0.102330
H24   H     H_    0.208699 0.472617 0.554282 0.101862
H25   H     H_    0.382947 0.511916 0.636085 0.118281
H26   H     H_    0.506376 0.425167 0.751146 0.103644
H27   H     H_    0.518002 0.965602 0.190748 0.334804
H28   H     H_    0.478184 0.035631 0.807984 0.334228
H29   H     H_    0.164926 0.620295 0.362329 0.110656
H30   H     H_    0.019691 0.640445 0.220770 0.103190
H31   H     H_    0.027477 0.515603 0.047311 0.107969
H32   H     H_    0.181635 0.370092 0.015373 0.101710
H33   H     H_    0.327407 0.348665 0.156514 0.114474
H34   H     H_    0.653980 0.368699 0.590092 0.106939
H35   H     H_    0.710082 0.462937 0.787626 0.102737
H36   H     H_    0.880113 0.416698 0.895093 0.109158
H37   H     H_    0.043878 0.418377 0.860762 0.099054
H38   H     H_    0.037258 0.467697 0.719169 0.103451
H39   H     H_    0.868508 0.513168 0.610314 0.088274
H40   H     H_    0.824276 0.780376 0.577847 0.111330
H41   H     H_    0.953974 0.884713 0.683253 0.134625
H42   H     H_    0.935203 0.004325 0.856207 0.119928
H43   H     H_    0.790405 0.012922 0.926750 0.131651
H44   H     H_    0.665119 0.902713 0.823017 0.167426
H45   H     H_    0.641445 0.176146 0.019350 0.175451
H46   H     H_    0.174445 0.227494 0.428330 0.108961
H47   H     H_    0.041129 0.126733 0.326769 0.133535
H48   H     H_    0.056561 0.003322 0.154388 0.120528
H49   H     H_    0.201599 0.987838 0.080201 0.131915
H50   H     H_    0.329757 0.095670 0.179621 0.167591
H51   H     H_    0.355490 0.823103 0.981303 0.177344
H52   H     H_    0.690201 0.514812 0.132355 0.116979
H53   H     H_    0.310840 0.483548 0.867819 0.113275
H54   H     H_    0.438204 0.734871 0.462354 0.126827
N1    N     N_R   0.433980 0.209250 0.437830 -0.227359
N2    N     N_R   0.566020 0.790750 0.562170 -0.228109
O1    O     O_R   0.534760 0.019630 0.662610 -0.484814
O2    O     O_3   0.264539 0.677118 0.884846 -0.728331
O3    O     O_3   0.458600 0.944365 0.135696 -0.728231
O4    O     O_3   0.537178 0.056323 0.863882 -0.728038
O5    O     O_R   0.465240 0.980370 0.337390 -0.485393
O6    O     O_R   0.490220 0.160840 0.620610 -0.494700
O7    O     O_R   0.509780 0.839160 0.379390 -0.494234
O8    O     O_R   0.663260 0.919400 0.523940 -0.494010
O9    O     O_R   0.336740 0.080600 0.476060 -0.492734
O10   O     O_R   0.618720 0.060610 0.481950 -0.505158
O11   O     O_R   0.381280 0.939390 0.518050 -0.505469
O12   O     O_3   0.734402 0.321588 0.116388 -0.729618

loop_
_geom_bond_atom_site_label_1
_geom_bond_atom_site_label_2
_ccdc_geom_bond_type
C66   C68   A    
C87   C88   A    
C11   C18   A    
C34   C56   A    
Cu1   Cu2   S    
C23   C45   A    
C16   O10   A    
C18   C21   A    
C33   C45   A    
C41   C42   A    
C8    N2    A    
C19   C20   A    
C87   H46   S    
C43   C44   A    
C80   C85   A    
C81   C82   A    
C53   C59   A    
C4    C56   A    
C36   O4    S    
C81   H40   S    
C53   C54   A    
Cu2   N1    S    
C50   H10   S    
C9    N1    A    
Cu2   O9    S    
C64   H25   S    
H27   O3    S    
C28   C29   S    
C35   C37   A    
C43   H5    S    
C42   H4    S    
C76   H37   S    
C24   C73   S    
C57   H18   S    
C28   C40   S    
C1    C31   S    
C33   C36   A    
C54   H16   S    
C18   C19   A    
C35   H51   S    
C32   C39   A    
C23   C67   A    
C82   H41   S    
C22   C66   S    
C3    O12   S    
C6    C15   A    
C7    N1    A    
C66   C72   A    
C83   C84   A    
C52   H13   S    
Cu2   O5    S    
C61   H21   S    
C58   H19   S    
C71   H32   S    
C70   C71   A    
C12   O7    A    
C61   C62   A    
C75   H36   S    
C12   C32   S    
C27   C30   S    
H28   O4    S    
Cu1   N2    S    
Cu1   O8    S    
C67   C78   A    
C4    O2    S    
C68   H29   S    
C20   H23   S    
C5    H1    S    
C44   C46   A    
C91   H49   S    
C77   C79   A    
C78   C89   A    
C16   C26   S    
C89   H52   S    
C79   H39   S    
C46   H7    S    
C74   C75   A    
C13   C19   A    
C72   H33   S    
C16   O8    A    
C34   C39   A    
C37   O3    S    
H15   O2    S    
C76   C77   A    
C2    C67   A    
C91   C92   A    
C5    C7    A    
C63   H24   S    
C86   C87   A    
C68   C69   A    
C6    C8    A    
C69   H30   S    
C2    H53   S    
H14   O12   S    
C3    C45   A    
C51   C52   A    
C60   C61   A    
C77   H38   S    
C1    O6    A    
C2    C4    A    
C75   C76   A    
C62   H22   S    
C62   C63   A    
C49   H9    S    
C47   C48   A    
Cu1   O11   S    
C51   H11   S    
C48   H8    S    
C50   C51   A    
C6    H12   S    
C32   C37   A    
C84   C85   A    
C21   H34   S    
Cu1   O7    S    
C9    C11   A    
C9    H2    S    
C5    C14   A    
C90   H48   S    
C17   O11   A    
C38   C60   S    
C70   H31   S    
C15   C24   A    
C88   C90   A    
C60   C65   A    
C82   C83   A    
C55   C57   A    
C41   H3    S    
Cu1   O1    S    
C42   C43   A    
C40   C46   A    
C12   O5    A    
C90   C91   A    
C73   C74   A    
C88   H47   S    
C27   C47   S    
C25   C30   T    
C54   C55   A    
C48   C49   A    
Cu2   O10   S    
C55   H17   S    
C35   C56   A    
C20   C22   A    
C80   C81   A    
C73   C79   A    
C10   C13   A    
C84   H43   S    
C47   C52   A    
C23   C38   A    
C31   C38   A    
C3    C89   A    
C17   C25   S    
C64   C65   A    
C14   C22   A    
C13   C15   A    
C58   C59   A    
C71   C72   A    
C86   C92   A    
C34   C78   A    
C44   H6    S    
C57   C58   A    
C39   C53   S    
C33   H45   S    
C59   H20   S    
C11   C14   A    
C65   H26   S    
C1    O1    A    
C69   C70   A    
C92   H50   S    
C17   O9    A    
C63   C64   A    
C7    C86   S    
C26   C29   T    
Cu2   O6    S    
C49   C50   A    
C74   H35   S    
C21   C24   A    
C27   C28   D    
C8    C80   S    
C31   C36   A    
C40   C41   A    
C85   H44   S    
C10   N2    A    
C10   H54   S    
C83   H42   S    
