data_str_m9_o2_o23_f0_sra.sym.76
_audit_creation_date              2012-12-11T16:31:33-0500
_audit_creation_method            fapswitch 2.2
_symmetry_space_group_name_H-M    P1
_symmetry_Int_Tables_number       1
_space_group_crystal_system       triclinic
_cell_length_a                    6.969903
_cell_length_b                    18.20691
_cell_length_c                    20.246279
_cell_angle_alpha                 68.244355
_cell_angle_beta                  90.429562
_cell_angle_gamma                 90.731528
_cell_volume                      2386.0551294

loop_
_atom_site_label
_atom_site_type_symbol
_atom_type_description
_atom_site_fract_x
_atom_site_fract_y
_atom_site_fract_z
_atom_type_partial_charge
O1    O     O_R   0.488990 0.443920 0.942160 -0.543948
O2    O     O_R   0.823840 0.406530 0.087600 -0.541602
O3    O     O_R   0.999650 0.556080 0.057840 -0.523802
C1    C     C_R   0.655152 0.384032 0.115310 0.801428
O4    O     O_R   0.818390 0.434590 0.944530 -0.542853
O5    O     O_R   0.994160 0.584350 0.913750 -0.541650
C2    C     C_R   0.649097 0.420454 0.924205 0.691993
O6    O     O_R   0.494480 0.415650 0.086250 -0.531966
O7    O     O_3   0.662600 0.549100 0.990070 -0.357750
V1    V     V_3+5 0.935320 0.490890 0.001840 1.482017
O8    O     O_R   0.324240 0.593470 0.912400 -0.529763
C3    C     C_R   0.155483 0.618156 0.886201 0.799751
O9    O     O_R   0.329690 0.565410 0.055470 -0.519936
C4    C     C_R   0.162025 0.578369 0.076780 0.794506
V2    V     V_3+5 0.435990 0.509110 0.998160 1.504197
O10   O     O_3   0.158840 0.450900 0.009930 -0.384185
C5    C     C_3   0.973740 0.681036 0.259700 -0.475701
C6    C     C_3   0.337720 0.700360 0.250613 0.561579
C7    C     C_3   0.325442 0.748965 0.301191 0.141963
C8    C     C_1   0.111691 0.876291 0.377321 -0.166245
C9    C     C_3   0.144835 0.709158 0.207011 -0.012186
C10   C     C_3   0.969077 0.727844 0.310438 0.158825
C11   C     C_3   0.130385 0.792537 0.291372 0.006898
C12   C     C_3   0.111866 0.848575 0.211156 0.052241
C13   C     C_3   0.118931 0.799283 0.161884 0.179122
C14   C     C_1   0.119675 0.838650 0.338845 0.086347
C15   C     C_1   0.149871 0.662342 0.160087 0.053079
C16   C     C_1   0.155261 0.624139 0.122047 -0.176887
H1    H     H_    0.245318 0.819716 0.126217 0.197258
C17   C     C_R   0.183776 0.783820 0.878156 0.319838
C18   C     C_R   0.186096 0.862006 0.874596 -0.313676
C19   C     C_R   0.157874 0.925246 0.810798 0.300102
C20   C     C_R   0.128791 0.911060 0.747548 0.308823
C21   C     C_R   0.133669 0.831652 0.748348 -0.103952
C22   C     C_R   0.155117 0.766957 0.815216 -0.014110
C23   C     C_R   0.116894 0.815698 0.684130 -0.155305
C24   C     C_R   0.113016 0.736029 0.686718 0.024277
C25   C     C_R   0.127309 0.672484 0.753922 -0.003005
C26   C     C_R   0.147027 0.687422 0.817558 -0.123117
C27   C     C_R   0.095361 0.716994 0.624091 0.329527
C28   C     C_R   0.093192 0.637536 0.629973 -0.160298
C29   C     C_R   0.107784 0.576768 0.695482 -0.139253
C30   C     C_R   0.124410 0.593539 0.756590 -0.156721
H2    H     H_    0.576709 0.475583 0.319378 0.158680
C31   C     C_R   0.684149 0.223670 0.123383 -0.185852
C32   C     C_R   0.697861 0.146819 0.124786 -0.200989
C33   C     C_R   0.687061 0.082105 0.189390 0.404746
C34   C     C_R   0.662284 0.095410 0.252344 -0.157678
C35   C     C_R   0.648343 0.172927 0.252402 -0.001721
C36   C     C_R   0.659728 0.238427 0.186709 0.046619
C37   C     C_R   0.621293 0.185459 0.316629 -0.134959
C38   C     C_R   0.606800 0.263609 0.315398 0.019627
C39   C     C_R   0.620407 0.330220 0.249769 0.033993
C40   C     C_R   0.645331 0.316887 0.185025 -0.169976
C41   C     C_R   0.581071 0.276341 0.379495 -0.143277
C42   C     C_R   0.569334 0.352110 0.379966 -0.150702
C43   C     C_R   0.584366 0.417222 0.317060 -0.189341
C44   C     C_R   0.610636 0.408014 0.251718 0.334232
H3    H     H_    0.716575 0.137876 0.075247 0.114024
O11   O     O_R   0.770890 0.084490 0.414040 -0.543562
O12   O     O_R   0.445980 0.065450 0.555510 -0.534851
O13   O     O_R   0.270670 0.915620 0.586180 -0.531994
C45   C     C_R   0.615045 0.079418 0.576126 0.726112
O14   O     O_R   0.441480 0.093500 0.412450 -0.544401
O15   O     O_R   0.266140 0.943870 0.442100 -0.535853
C46   C     C_R   0.610444 0.116578 0.385252 0.672005
O16   O     O_R   0.775410 0.056240 0.558120 -0.527270
O17   O     O_3   0.602660 0.950990 0.510100 -0.368397
V3    V     V_3+5 0.329740 0.009100 0.498130 1.488216
O18   O     O_R   0.936120 0.934420 0.444240 -0.531723
C47   C     C_R   0.103995 0.921602 0.422979 0.758837
O19   O     O_R   0.940610 0.906370 0.587310 -0.522809
C48   C     C_R   0.109192 0.882620 0.614267 0.930570
V4    V     V_3+5 0.829110 0.990690 0.501470 1.505572
O20   O     O_3   0.106080 0.049010 0.489880 -0.373549
C49   C     C_3   0.845297 0.239706 0.712928 0.585432
C50   C     C_3   0.497689 0.285340 0.675479 0.648977
C51   C     C_3   0.495996 0.330466 0.728559 -0.365465
C52   C     C_1   0.640024 0.375037 0.878627 -0.170885
C53   C     C_3   0.633595 0.211340 0.705427 -0.002924
C54   C     C_3   0.844769 0.294106 0.759213 0.599085
C55   C     C_3   0.638386 0.292754 0.791357 0.032668
C56   C     C_3   0.566825 0.206183 0.831320 -0.480716
C57   C     C_3   0.556936 0.159761 0.780717 -0.427458
C58   C     C_1   0.637335 0.337719 0.839780 0.058249
C59   C     C_1   0.628781 0.163689 0.659130 0.027722
C60   C     C_1   0.624094 0.125290 0.621244 -0.164208
H4    H     H_    0.994826 0.684902 0.365414 0.186152
H5    H     H_    0.837162 0.687338 0.229966 0.224519
O21   O     O_3   0.787777 0.760057 0.311273 -0.641829
H6    H     H_    0.755235 0.794465 0.261949 0.316366
O22   O     O_3   0.261904 0.905052 0.192092 -0.633700
H7    H     H_    0.226195 0.947861 0.208815 0.309863
H8    H     H_    0.106796 0.515990 0.698987 0.153742
O23   O     O_3   0.212652 0.723756 0.943235 -0.653159
H9    H     H_    0.233706 0.745964 0.980677 0.286385
H10   H     H_    0.208912 0.873853 0.922732 0.139599
O24   O     O_3   0.158670 0.002006 0.808898 -0.646324
H11   H     H_    0.181319 0.001822 0.857380 0.293495
O25   O     O_3   0.091715 0.974128 0.684809 -0.652238
H12   H     H_    0.086467 0.024664 0.692460 0.341093
O26   O     O_3   0.080068 0.775638 0.557454 -0.668962
H13   H     H_    0.067640 0.751729 0.520838 0.285169
H14   H     H_    0.080311 0.622465 0.583141 0.129913
H15   H     H_    0.982304 0.616652 0.291458 0.156204
H16   H     H_    0.136363 0.543189 0.806043 0.110612
H17   H     H_    0.692608 0.271262 0.071911 0.103112
O27   O     O_3   0.699534 0.005185 0.192875 -0.644788
H18   H     H_    0.716745 0.005716 0.144114 0.294041
H19   H     H_    0.653422 0.043966 0.301186 0.122622
H20   H     H_    0.570386 0.227784 0.430301 0.105889
H21   H     H_    0.549768 0.360426 0.429739 0.166996
O28   O     O_3   0.629545 0.474526 0.190314 -0.653480
H22   H     H_    0.618659 0.522891 0.201588 0.288845
O29   O     O_3   0.886161 0.373202 0.715232 -0.646750
H23   H     H_    0.024832 0.376990 0.703358 0.335362
O30   O     O_3   0.490218 0.732707 0.203036 -0.672177
H24   H     H_    0.514973 0.696712 0.177374 0.297628
O31   O     O_3   0.917551 0.284322 0.644686 -0.619306
H25   H     H_    0.943562 0.247676 0.619804 0.320270
O32   O     O_3   0.308877 0.259450 0.670914 -0.595252
H26   H     H_    0.301918 0.242257 0.629791 0.321457
O33   O     O_3   0.554229 0.335866 0.606372 -0.645265
H27   H     H_    0.650959 0.374730 0.609610 0.324220
H28   H     H_    0.528180 0.394581 0.700970 0.155810
H29   H     H_    0.349276 0.328284 0.750586 0.204400
H30   H     H_    0.636302 0.103384 0.804008 0.176225
H31   H     H_    0.405548 0.141582 0.776881 0.256379
H32   H     H_    0.658236 0.174207 0.877986 0.153900
O34   O     O_3   0.967277 0.173953 0.743180 -0.613294
H33   H     H_    0.933241 0.145278 0.793630 0.288111
O35   O     O_3   0.988370 0.270772 0.812700 -0.648040
H34   H     H_    0.941727 0.225856 0.854534 0.261087
O36   O     O_3   0.378873 0.619847 0.289379 -0.648317
H35   H     H_    0.281698 0.597493 0.327174 0.300251
H36   H     H_    0.420986 0.206947 0.853127 0.219914
O37   O     O_3   0.351783 0.700477 0.373191 -0.657852
H37   H     H_    0.489306 0.686060 0.379446 0.349628
H38   H     H_    0.438743 0.795705 0.286626 0.189753
O38   O     O_3   0.958585 0.813152 0.116172 -0.641800
H39   H     H_    0.840636 0.808312 0.144483 0.310233
H40   H     H_    0.973671 0.880908 0.202633 0.142624

loop_
_geom_bond_atom_site_label_1
_geom_bond_atom_site_label_2
_ccdc_geom_bond_type
C57   H31   S    
C34   H19   S    
C41   C42   A    
C32   H3    S    
C6    C9    S    
C28   C29   A    
O2    C1    A    
O23   H9    S    
C1    O6    A    
C54   C55   S    
O21   H6    S    
O33   H27   S    
C39   C40   A    
O27   H18   S    
C36   C40   A    
C17   C22   A    
C23   C24   A    
C56   H32   S    
C24   C27   A    
O5    C3    A    
C17   C18   A    
O17   V4    S    
O29   H23   S    
C42   C43   A    
C17   O23   S    
C21   C22   A    
C11   C14   S    
O12   C45   A    
O22   H7    S    
C53   C59   S    
O17   V3    S    
O8    V2    S    
C33   C34   A    
C12   H40   S    
O35   H34   S    
C35   C37   A    
O18   V4    S    
C44   O28   S    
C11   C12   S    
O13   C48   A    
C6    O36   S    
O18   C47   A    
O1    V2    S    
C10   H4    S    
O7    V1    S    
C38   C41   A    
C53   C57   S    
C45   C60   S    
C57   H30   S    
C9    C15   S    
O11   C46   A    
C29   H8    S    
O9    C4    A    
C49   O34   S    
C12   O22   S    
C10   C11   S    
C13   H1    S    
C45   O16   A    
C49   O31   S    
V4    O20   S    
C37   C38   A    
C13   O38   S    
C5    H5    S    
C12   C13   S    
O19   V4    S    
O4    C2    A    
C51   H29   S    
C59   C60   T    
C6    C7    S    
C54   O35   S    
O15   C47   A    
C5    C9    S    
O13   V3    S    
C37   C46   S    
O14   C46   A    
C22   C26   A    
C24   C25   A    
C50   O33   S    
C5    H15   S    
C51   C55   S    
C56   C57   S    
H2    C43   S    
C7    O37   S    
C54   O29   S    
C20   C21   A    
C10   O21   S    
C8    C47   S    
O16   V4    S    
O14   V3    S    
O38   H39   S    
O31   H25   S    
C6    O30   S    
O32   H26   S    
O3    C4    A    
C27   C28   A    
C55   C56   S    
O6    V2    S    
C1    C40   S    
O9    V2    S    
C35   C36   A    
C42   H21   S    
C29   C30   A    
O2    V1    S    
C52   C58   T    
C38   C39   A    
C7    C11   S    
C2    C52   S    
O28   H22   S    
C50   C53   S    
O12   V3    S    
C33   O27   S    
C9    C13   S    
C32   C33   A    
C34   C35   A    
C41   H20   S    
O1    C2    A    
C18   C19   A    
C49   C53   S    
O19   C48   A    
C49   C54   S    
O5    V1    S    
C39   C44   A    
O36   H35   S    
C55   C58   S    
O37   H37   S    
C5    C10   S    
C28   H14   S    
C20   O25   S    
C19   C20   A    
C3    C26   S    
O34   H33   S    
O7    V2    S    
O4    V1    S    
O3    V1    S    
V1    O10   S    
O30   H24   S    
C43   C44   A    
C25   C26   A    
C8    C14   T    
C31   C36   A    
O15   V3    S    
V2    O10   S    
O11   V4    S    
O25   H12   S    
C19   O24   S    
V3    O20   S    
C21   C23   A    
C18   H10   S    
O26   H13   S    
C50   O32   S    
C23   C48   S    
C27   O26   S    
C31   C32   A    
C25   C30   A    
C7    H38   S    
O24   H11   S    
C15   C16   T    
C50   C51   S    
C4    C16   S    
C51   H28   S    
C30   H16   S    
C31   H17   S    
O8    C3    A    
C56   H36   S    
