data_str_m2_o10_o18_f0_pcu.sym.1
_audit_creation_date              2012-10-26T19:59:10-0400
_audit_creation_method            fapswitch 2.2
_symmetry_space_group_name_H-M    P1
_symmetry_Int_Tables_number       1
_space_group_crystal_system       triclinic
_cell_length_a                    7.436168
_cell_length_b                    8.694541
_cell_length_c                    15.842877
_cell_angle_alpha                 94.291372
_cell_angle_beta                  75.073124
_cell_angle_gamma                 103.132013
_cell_volume                      963.714301913

loop_
_atom_site_label
_atom_site_type_symbol
_atom_type_description
_atom_site_fract_x
_atom_site_fract_y
_atom_site_fract_z
_atom_type_partial_charge
C1    C     C_R   0.545068 0.800142 0.502598 0.550547
C2    C     C_R   0.615919 0.511383 0.333787 0.544385
C3    C     C_R   0.313965 0.471490 0.761273 -0.006959
C4    C     C_R   0.686034 0.528515 0.238727 -0.006959
C5    C     C_R   0.072707 0.360950 0.888013 -0.131117
C6    C     C_R   0.927285 0.639075 0.111989 -0.131117
C7    C     C_R   0.126254 0.396183 0.799527 -0.142251
C8    C     C_R   0.873741 0.603834 0.200474 -0.142251
C9    C     C_R   0.444472 0.518447 0.813029 -0.133910
C10   C     C_R   0.555527 0.481554 0.186971 -0.133909
C11   C     C_R   0.395231 0.483093 0.902365 0.027296
C12   C     C_R   0.454932 0.199857 0.497401 0.550547
C13   C     C_R   0.604763 0.516920 0.097636 0.027296
C14   C     C_R   0.205951 0.401282 0.939146 0.045291
C15   C     C_R   0.794040 0.598739 0.060857 0.045290
C16   C     C_R   0.529188 0.522636 0.955326 0.027610
C17   C     C_R   0.470803 0.477381 0.044676 0.027611
C18   C     C_R   0.280424 0.394675 0.078020 -0.142110
C19   C     C_R   0.719564 0.605349 0.921984 -0.142112
C20   C     C_R   0.151478 0.358152 0.026237 -0.132009
C21   C     C_R   0.848510 0.641876 0.973767 -0.132009
C22   C     C_2   0.570467 0.968017 0.503855 -0.156671
C23   C     C_2   0.429533 0.031983 0.496144 -0.156671
C24   C     C_R   0.384081 0.488617 0.666213 0.544386
Cu1   Cu    Cu3+1 0.322120 0.483240 0.490330 0.949007
Cu2   Cu    Cu3+1 0.677880 0.516760 0.509670 0.949006
H1    H     H_    0.007227 0.295036 0.054831 0.119054
H2    H     H_    0.775673 0.645017 0.855821 0.104823
H3    H     H_    0.706324 0.039329 0.511136 0.133778
H4    H     H_    0.293676 0.960671 0.488864 0.133778
H5    H     H_    0.003982 0.615099 0.568813 0.238135
H6    H     H_    0.996018 0.384901 0.431186 0.238134
H7    H     H_    0.992757 0.704998 0.945173 0.119054
H8    H     H_    0.414335 0.421248 0.219319 0.119450
H9    H     H_    0.585670 0.578736 0.780681 0.119453
H10   H     H_    0.976710 0.640801 0.239456 0.133611
H11   H     H_    0.023285 0.359220 0.760545 0.133611
H12   H     H_    0.927612 0.299452 0.916267 0.120121
H13   H     H_    0.072377 0.700580 0.083736 0.120120
H14   H     H_    0.224309 0.355016 0.144184 0.104824
N1    N     N_2   0.945180 0.542040 0.524240 -0.258217
N2    N     N_2   0.054820 0.457960 0.475760 -0.258217
O1    O     O_R   0.384450 0.714270 0.493720 -0.502801
O2    O     O_R   0.615550 0.285730 0.506280 -0.502801
O3    O     O_R   0.684880 0.742590 0.510050 -0.497359
O4    O     O_R   0.315120 0.257410 0.489950 -0.497359
O5    O     O_R   0.265540 0.477900 0.617090 -0.505925
O6    O     O_R   0.734460 0.522100 0.382910 -0.505925
O7    O     O_R   0.565970 0.506210 0.633420 -0.503779
O8    O     O_R   0.434030 0.493790 0.366580 -0.503778

loop_
_geom_bond_atom_site_label_1
_geom_bond_atom_site_label_2
_ccdc_geom_bond_type
Cu1   N2    S    
C2    C4    S    
C3    C9    A    
C22   H3    S    
Cu2   O6    S    
C5    C7    A    
N1    N2    D    
Cu1   O5    S    
C18   C20   A    
C13   C17   A    
C4    C8    A    
C2    O6    A    
Cu1   O1    S    
C2    O8    A    
C17   C18   A    
C7    H11   S    
Cu2   O2    S    
C1    C22   S    
C10   H8    S    
Cu1   Cu2   S    
C5    H12   S    
C19   H2    S    
C9    C11   A    
C12   C23   S    
C1    O3    A    
C5    C14   A    
C16   C19   A    
C6    C8    A    
C20   H1    S    
C3    C7    A    
C13   C15   A    
C11   C14   A    
C11   C16   A    
C21   H7    S    
C4    C10   A    
C23   H4    S    
C14   C20   A    
C15   C21   A    
C12   O4    A    
C8    H10   S    
Cu2   O7    S    
C24   O7    A    
C9    H9    S    
C18   H14   S    
C6    H13   S    
C12   O2    A    
H6    N2    S    
H5    N1    S    
Cu2   O3    S    
C19   C21   A    
C6    C15   A    
C22   C23   D    
C24   O5    A    
Cu1   O4    S    
C1    O1    A    
Cu1   O8    S    
Cu2   N1    S    
C3    C24   S    
C16   C17   A    
C10   C13   A    
