data_str_m4_o1_o15_f0_acs.sym.155
_audit_creation_date              2012-12-11T14:45:59-0500
_audit_creation_method            fapswitch 2.2
_symmetry_space_group_name_H-M    P1
_symmetry_Int_Tables_number       1
_space_group_crystal_system       triclinic
_cell_length_a                    10.906126
_cell_length_b                    10.945853
_cell_length_c                    18.787624
_cell_angle_alpha                 89.68657
_cell_angle_beta                  90.753498
_cell_angle_gamma                 120.123135
_cell_volume                      1939.74428269

loop_
_atom_site_label
_atom_site_type_symbol
_atom_type_description
_atom_site_fract_x
_atom_site_fract_y
_atom_site_fract_z
_atom_type_partial_charge
C1    C     C_R   0.864639 0.638100 0.603169 0.543991
C2    C     C_R   0.446855 0.665962 0.777830 -0.083434
C3    C     C_R   0.427583 0.656744 0.705115 0.232620
C4    C     C_R   0.313984 0.667234 0.676845 0.028820
C5    C     C_R   0.823577 0.141752 0.817317 0.006461
C6    C     C_R   0.081393 0.235760 0.826460 -0.138055
C7    C     C_R   0.208997 0.267242 0.795174 -0.063599
C8    C     C_R   0.213971 0.243688 0.722859 0.262438
C9    C     C_R   0.090093 0.194214 0.681107 -0.072706
C10   C     C_R   0.961891 0.172146 0.710876 -0.030966
C11   C     C_R   0.955120 0.182181 0.785493 -0.027725
C12   C     C_R   0.269557 0.632038 0.603911 0.526366
C13   C     C_R   0.708090 0.086604 0.699498 -0.017789
C14   C     C_R   0.701102 0.106678 0.772776 0.002347
C15   C     C_R   0.583576 0.028589 0.656695 -0.078024
C16   C     C_R   0.458764 0.018032 0.682233 0.259969
C17   C     C_R   0.454696 0.052652 0.752545 -0.065570
C18   C     C_R   0.572305 0.095495 0.797127 -0.133923
C19   C     C_R   0.841201 0.141634 0.668042 -0.027769
C20   C     C_R   0.735357 0.539844 0.714308 -0.084647
C21   C     C_R   0.722534 0.555892 0.786715 0.018225
C22   C     C_R   0.787836 0.693940 0.815614 0.011161
C23   C     C_R   0.861037 0.220463 0.600822 0.526274
C24   C     C_R   0.861709 0.811408 0.771370 -0.175580
C25   C     C_R   0.877576 0.793994 0.700035 -0.120330
C26   C     C_R   0.818093 0.658142 0.671759 0.039982
C27   C     C_R   0.399691 0.605688 0.298633 0.007676
C28   C     C_R   0.387766 0.591122 0.224848 -0.001173
C29   C     C_R   0.371289 0.691842 0.183084 -0.010714
C30   C     C_R   0.348589 0.791804 0.217371 -0.162133
C31   C     C_R   0.335455 0.788012 0.291054 -0.160072
C32   C     C_R   0.352387 0.688991 0.331305 -0.025690
C33   C     C_R   0.699118 0.101554 0.296863 -0.118696
C34   C     C_R   0.905036 0.611221 0.389924 0.570316
C35   C     C_R   0.683006 0.069587 0.225370 -0.159176
C36   C     C_R   0.792098 0.069510 0.187429 -0.012840
C37   C     C_R   0.914882 0.088540 0.224799 0.253814
C38   C     C_R   0.929879 0.117621 0.298339 0.035387
C39   C     C_R   0.826884 0.138408 0.332326 -0.063633
C40   C     C_R   0.984482 0.726930 0.274883 -0.162783
C41   C     C_R   0.966732 0.740126 0.203265 -0.140141
C42   C     C_R   0.839301 0.644736 0.168563 -0.029023
C43   C     C_R   0.746373 0.518383 0.202121 -0.074330
C44   C     C_R   0.766230 0.499734 0.274104 0.233755
C45   C     C_R   0.278324 0.638831 0.398879 0.529515
C46   C     C_R   0.881344 0.611859 0.312700 0.010976
C47   C     C_R   0.802360 0.098992 0.893224 0.552656
C48   C     C_R   0.394410 0.700511 0.896892 0.606134
C49   C     C_R   0.775950 0.724734 0.889521 0.564336
C50   C     C_R   0.769012 0.043258 0.110242 0.554771
C51   C     C_R   0.403736 0.706160 0.106674 0.547719
C52   C     C_R   0.802254 0.690882 0.102412 0.548827
C53   C     C_R   0.858251 0.221436 0.398118 0.534744
C54   C     C_R   0.225822 0.692571 0.721276 -0.153186
C55   C     C_R   0.247642 0.705257 0.794579 -0.040659
C56   C     C_R   0.358395 0.689065 0.822534 -0.002796
Cr1   Cr    Cr6+3 0.791660 0.390250 0.499930 1.039022
Cr2   Cr    Cr6+3 0.098520 0.708290 0.500540 1.019110
Cr3   Cr    Cr6+3 0.109770 0.401430 0.499480 1.035605
Cr4   Cr    Cr6+3 0.874790 0.925890 0.000070 1.056602
Cr5   Cr    Cr6+3 0.574120 0.948670 0.999300 1.056001
Cr6   Cr    Cr6+3 0.551420 0.625320 0.000920 1.047947
H1    H     H_    0.136389 0.697706 0.698805 0.152786
H2    H     H_    0.586785 0.001103 0.601672 0.099662
H3    H     H_    0.360282 0.048967 0.772725 0.151949
H4    H     H_    0.690656 0.434102 0.692581 0.152474
H5    H     H_    0.910979 0.917147 0.792866 0.137093
H6    H     H_    0.941565 0.886226 0.667708 0.140669
H7    H     H_    0.336607 0.869707 0.187056 0.144323
H8    H     H_    0.306654 0.858457 0.316304 0.146662
H9    H     H_    0.614214 0.107214 0.323030 0.193732
H10   H     H_    0.586583 0.051325 0.198892 0.158546
H11   H     H_    0.077784 0.810204 0.301021 0.164386
H12   H     H_    0.049494 0.832011 0.176717 0.169138
H13   H     H_    0.656754 0.435883 0.173322 0.151647
H14   H     H_    0.532891 0.655960 0.799987 0.134348
H15   H     H_    0.304297 0.308612 0.827674 0.133630
H16   H     H_    0.083518 0.257362 0.882710 0.156391
H17   H     H_    0.094140 0.169505 0.625860 0.122690
H18   H     H_    0.560336 0.131086 0.848316 0.184762
O1    O     O_R   0.766500 0.250040 0.579790 -0.516613
O2    O     O_R   0.218690 0.701900 0.425960 -0.526691
O3    O     O_R   0.249490 0.516440 0.419420 -0.482634
O4    O     O_R   0.982880 0.281910 0.424890 -0.509388
O5    O     O_3   0.999980 0.499990 0.499980 -0.265939
O6    O     O_R   0.895110 0.806860 0.920430 -0.475601
O7    O     O_R   0.872260 0.046970 0.925000 -0.522799
O8    O     O_R   0.691430 0.085060 0.918550 -0.504656
O9    O     O_R   0.451490 0.822460 0.925250 -0.476126
O10   O     O_R   0.413330 0.603360 0.920440 -0.533319
O11   O     O_R   0.676110 0.626250 0.926750 -0.453938
O12   O     O_R   0.798570 0.516780 0.574780 -0.494122
O13   O     O_R   0.895350 0.809870 0.080950 -0.532048
O14   O     O_R   0.872490 0.049760 0.073800 -0.465335
O15   O     O_R   0.691680 0.088070 0.079070 -0.489950
O16   O     O_R   0.451720 0.825250 0.074050 -0.509027
O17   O     O_R   0.413580 0.606370 0.080960 -0.519573
O18   O     O_R   0.676340 0.629040 0.075550 -0.514074
O19   O     O_3   0.666780 0.833290 0.000090 -0.317630
O20   O     O_R   0.984000 0.732950 0.581090 -0.508424
O21   O     O_R   0.218600 0.700890 0.574760 -0.500701
O22   O     O_R   0.249390 0.515350 0.579940 -0.502496
O23   O     O_R   0.982790 0.280900 0.573700 -0.513958
O24   O     O_R   0.766600 0.251130 0.419260 -0.501408
O25   O     O_R   0.798660 0.517790 0.425980 -0.506468
O26   O     O_R   0.984100 0.734040 0.420570 -0.526258
O27   O     O_3   0.342369 0.981823 0.638973 -0.692410
H19   H     H_    0.367082 0.973693 0.589303 0.325121
C57   C     C_2   0.648038 0.425889 0.829495 0.233323
H20   H     H_    0.548420 0.339161 0.809999 0.112692
O28   O     O_2   0.700779 0.411531 0.884347 -0.467952
C58   C     C_2   0.457545 0.532285 0.342867 0.238888
H21   H     H_    0.527599 0.587577 0.387518 0.088205
O29   O     O_2   0.419817 0.408171 0.333294 -0.443651
C59   C     C_2   0.386833 0.466764 0.193699 0.350335
H22   H     H_    0.478678 0.478674 0.166681 0.103267
O30   O     O_2   0.280995 0.350304 0.197395 -0.361816
C60   C     C_2   0.150416 0.730286 0.838669 0.241219
H23   H     H_    0.075288 0.753670 0.812778 0.122065
O31   O     O_2   0.151176 0.723811 0.903532 -0.459893
O32   O     O_3   0.023099 0.084358 0.190671 -0.583863
H24   H     H_    0.979537 0.992943 0.166070 0.332762
C61   C     C_2   0.045982 0.115621 0.340349 0.316203
H25   H     H_    0.035616 0.097843 0.397340 0.087300
O33   O     O_2   0.152574 0.129785 0.312197 -0.386196
O34   O     O_3   0.674632 0.370374 0.303111 -0.672689
H26   H     H_    0.630568 0.386172 0.344798 0.378476
O35   O     O_3   0.520444 0.636671 0.664373 -0.688812
H27   H     H_    0.512382 0.659158 0.614046 0.322065
O36   O     O_3   0.341365 0.271527 0.694372 -0.690838
H28   H     H_    0.328094 0.251572 0.642559 0.344087

loop_
_geom_bond_atom_site_label_1
_geom_bond_atom_site_label_2
_ccdc_geom_bond_type
C51   O17   A    
Cr1   O25   S    
C55   C56   A    
O34   H26   S    
Cr1   O12   S    
C41   C42   A    
C14   C18   A    
C35   C36   A    
Cr4   O19   S    
O35   H27   S    
C58   O29   D    
Cr5   O16   S    
C36   C50   S    
C7    C8    A    
Cr5   O19   S    
C40   C46   A    
C5    C47   S    
C44   O34   S    
C33   C39   A    
C53   O4    A    
C20   H4    S    
C36   C37   A    
Cr5   O8    S    
C37   C38   A    
Cr3   O3    S    
C5    C11   A    
Cr2   O2    S    
C9    H17   S    
C38   C39   A    
C50   O15   A    
C6    H16   S    
C54   H1    S    
C53   O24   A    
C59   H22   S    
C40   H11   S    
C32   C45   S    
C39   C53   S    
C60   H23   S    
C24   H5    S    
C41   H12   S    
Cr6   O18   S    
C31   H8    S    
C23   O23   A    
C45   O2    A    
Cr5   O9    S    
C16   C17   A    
C59   O30   D    
O27   H19   S    
C34   C46   S    
C4    C12   S    
C5    C14   A    
C9    C10   A    
C38   C61   S    
C16   O27   S    
C51   O16   A    
C7    H15   S    
Cr4   O13   S    
C48   O10   A    
C21   C22   A    
C34   O25   A    
C45   O3    A    
C25   H6    S    
C49   O11   A    
C1    O20   A    
C58   H21   S    
Cr4   O7    S    
C44   C46   A    
C43   H13   S    
C13   C19   A    
C34   O26   A    
C61   H25   S    
Cr2   O20   S    
Cr3   O4    S    
C6    C11   A    
Cr4   O6    S    
C3    O35   S    
C50   O14   A    
C25   C26   A    
Cr2   O26   S    
C47   O7    A    
C19   C23   S    
C43   C44   A    
Cr3   O5    S    
C12   O22   A    
C29   C30   A    
C28   C59   S    
Cr6   O17   S    
C31   C32   A    
C10   C19   A    
C15   H2    S    
Cr6   O11   S    
C17   C18   A    
C8    C9    A    
C52   O13   A    
Cr2   O21   S    
C24   C25   A    
O32   H24   S    
C22   C49   S    
C37   O32   S    
C40   C41   A    
C35   H10   S    
C1    O12   A    
C48   O9    A    
C13   C15   A    
C8    O36   S    
C1    C26   S    
C22   C24   A    
C42   C43   A    
C3    C4    A    
Cr2   O5    S    
C30   H7    S    
C2    H14   S    
C29   C51   S    
C48   C56   S    
Cr1   O24   S    
C54   C55   A    
C28   C29   A    
C23   O1    A    
C4    C54   A    
C27   C32   A    
Cr3   O22   S    
C49   O6    A    
C27   C58   S    
C21   C57   S    
Cr5   O15   S    
C6    C7    A    
C17   H3    S    
Cr3   O23   S    
C47   O8    A    
C57   O28   D    
C2    C3    A    
C12   O21   A    
C2    C56   A    
C57   H20   S    
C30   C31   A    
C20   C26   A    
Cr6   O10   S    
C52   O18   A    
C33   C35   A    
Cr1   O5    S    
O36   H28   S    
Cr1   O1    S    
C60   O31   D    
C61   O33   D    
C10   C11   A    
C33   H9    S    
Cr6   O19   S    
C20   C21   A    
C18   H18   S    
C27   C28   A    
C13   C14   A    
C15   C16   A    
C42   C52   S    
C55   C60   S    
Cr4   O14   S    
