data_str_m2_o10_o29_f0_pcu.sym.31
_audit_creation_date              2013-03-05T15:42:03-0500
_audit_creation_method            fapswitch 2.2
_symmetry_space_group_name_H-M    P1
_symmetry_Int_Tables_number       1
_space_group_crystal_system       triclinic
_cell_length_a                    27.789979
_cell_length_b                    8.662265
_cell_length_c                    7.426345
_cell_angle_alpha                 103.202382
_cell_angle_beta                  93.768734
_cell_angle_gamma                 92.368116
_cell_volume                      1733.76474954

loop_
_atom_site_label
_atom_site_type_symbol
_atom_site_description
_atom_site_fract_x
_atom_site_fract_y
_atom_site_fract_z
_atom_type_partial_charge
O1    O     O_R   0.503500 0.286120 0.619780 -0.588011
O2    O     O_R   0.496500 0.713880 0.380220 -0.579106
O3    O     O_R   0.494410 0.256780 0.308360 -0.571912
O4    O     O_R   0.505590 0.743220 0.691640 -0.584912
C1    C     C_R   0.498519 0.199530 0.452993 0.885805
C2    C     C_R   0.501459 0.800466 0.547003 0.897203
O5    O     O_R   0.434810 0.514700 0.655690 -0.592365
O6    O     O_R   0.565190 0.485300 0.344310 -0.556613
O7    O     O_R   0.425720 0.485350 0.344280 -0.546945
O8    O     O_R   0.574280 0.514650 0.655720 -0.561648
C3    C     C_R   0.407633 0.502603 0.503601 0.867447
C4    C     C_R   0.592507 0.497167 0.496141 0.861507
Cu1   Cu    Cu3+1 0.505380 0.517380 0.684380 1.023236
Cu2   Cu    Cu3+1 0.494620 0.482620 0.315620 1.046675
C5    C     C_R   0.176466 0.349949 0.492417 0.616709
C6    C     C_R   0.826077 0.639017 0.549693 0.607953
O9    O     O_2   0.198194 0.214421 0.425019 -0.470292
O10   O     O_2   0.804570 0.778521 0.587490 -0.477154
N1    N     N_R   0.203476 0.489556 0.551339 -0.452331
N2    N     N_R   0.798567 0.499775 0.495806 -0.446867
C7    C     C_R   0.183097 0.628600 0.625673 0.658805
C8    C     C_R   0.819243 0.356420 0.455088 0.653628
C9    C     C_R   0.274718 0.561270 0.398327 0.285203
C10   C     C_R   0.718204 0.442747 0.320320 0.295010
C11   C     C_R   0.325344 0.569562 0.389677 0.216361
C12   C     C_R   0.667352 0.433794 0.321542 0.214037
C13   C     C_R   0.333962 0.435438 0.644201 -0.184143
C14   C     C_R   0.674785 0.558206 0.652028 -0.170679
C15   C     C_R   0.284230 0.428759 0.653618 -0.055201
C16   C     C_R   0.724704 0.560443 0.652239 -0.080177
C17   C     C_R   0.254501 0.490890 0.531953 0.175493
C18   C     C_R   0.746776 0.503660 0.488124 0.175944
C19   C     C_R   0.103687 0.490188 0.564334 -0.071069
C20   C     C_R   0.898918 0.492303 0.518502 -0.075898
C21   C     C_R   0.126252 0.347473 0.498165 -0.011376
C22   C     C_R   0.876504 0.637707 0.566221 -0.013642
C23   C     C_R   0.098393 0.205211 0.436778 -0.106664
C24   C     C_R   0.904686 0.779450 0.626628 -0.109615
C25   C     C_R   0.132486 0.633101 0.634565 -0.085983
C26   C     C_R   0.869943 0.349311 0.454839 -0.089706
C27   C     C_R   0.354966 0.504433 0.512706 -0.198264
C28   C     C_R   0.645487 0.494578 0.488623 -0.207373
H1    H     H_    0.356128 0.384609 0.738850 0.192078
H2    H     H_    0.659071 0.607430 0.780850 0.221632
H3    H     H_    0.268620 0.376130 0.757041 0.201437
H4    H     H_    0.746502 0.606305 0.781294 0.213511
H5    H     H_    0.115085 0.093775 0.389043 0.205267
H6    H     H_    0.888256 0.892709 0.661422 0.202605
C29   C     C_R   0.972735 0.345251 0.478629 0.008897
C30   C     C_R   0.029775 0.633585 0.620128 0.006765
C31   C     C_R   0.978579 0.635617 0.600881 0.067352
C32   C     C_R   0.024102 0.344397 0.489883 0.066464
C33   C     C_R   0.950253 0.490843 0.533278 0.078666
C34   C     C_R   0.052346 0.489385 0.558546 0.078953
C35   C     C_R   0.942925 0.205570 0.407499 -0.253649
C36   C     C_R   0.059272 0.771642 0.701848 -0.250533
C37   C     C_R   0.892783 0.206037 0.393448 0.211801
C38   C     C_R   0.109429 0.773535 0.709344 0.217096
O11   O     O_2   0.790529 0.222296 0.420368 -0.443123
O12   O     O_2   0.212106 0.761043 0.687536 -0.441238
C39   C     C_R   0.048510 0.203014 0.434455 -0.206361
C40   C     C_R   0.954581 0.778960 0.642294 -0.208628
H7    H     H_    0.957312 0.092021 0.356555 0.154722
H8    H     H_    0.044383 0.881604 0.765903 0.156589
H9    H     H_    0.030479 0.087217 0.386747 0.143656
H10   H     H_    0.973162 0.894514 0.682932 0.143128
C41   C     C_2   0.497770 0.031441 0.426567 -0.298697
C42   C     C_2   0.502157 0.968545 0.573422 -0.321824
H11   H     H_    0.493618 0.959208 0.285325 0.190241
H12   H     H_    0.506302 0.040777 0.714667 0.188754
N3    N     N_2   0.486510 0.456430 0.038510 -0.192155
N4    N     N_2   0.513490 0.543570 0.961490 -0.189253
H13   H     H_    0.462089 0.378525 0.948518 0.227046
H14   H     H_    0.537927 0.621415 0.051474 0.237669
N5    N     N_R   0.638370 0.361018 0.154370 0.165226
O13   O     O_R   0.640525 0.418392 0.007652 -0.336539
O14   O     O_R   0.611988 0.231403 0.145249 -0.323518
N6    N     N_R   0.346407 0.645683 0.258557 0.164568
O15   O     O_R   0.331733 0.603171 0.083461 -0.320393
O16   O     O_R   0.378821 0.762560 0.315098 -0.336701
N7    N     N_R   0.740892 0.387875 0.150504 0.154787
O17   O     O_R   0.727389 0.250881 0.040871 -0.239915
O18   O     O_R   0.776628 0.471680 0.108699 -0.355102
N8    N     N_R   0.243957 0.628293 0.276351 0.155886
O19   O     O_R   0.253724 0.771224 0.255878 -0.228784
O20   O     O_R   0.204924 0.549454 0.191365 -0.348153
I1    I     I_    0.857351 0.982700 0.254187 -0.178081
I2    I     I_    0.144229 0.999500 0.842731 -0.175225

loop_
_geom_bond_atom_site_label_1
_geom_bond_atom_site_label_2
_geom_bond_distance
_ccdc_geom_bond_type
C13   C15   1.387911 A    
Cu2   N3    2.014652 S    
N5    O13   1.300472 A    
N1    C17   1.434491 S    
N7    O17   1.301387 A    
C5    N1    1.362871 A    
C19   C25   1.418935 A    
O1    C1    1.288581 A    
C6    N2    1.364741 A    
C21   C23   1.394257 A    
C10   C12   1.412836 A    
C32   C39   1.415799 A    
N6    O16   1.301322 A    
O4    Cu1   1.944435 S    
C4    C28   1.477951 S    
C14   C16   1.386481 A    
C35   H7    1.073705 S    
C36   H8    1.075294 S    
C23   H5    1.083939 S    
C24   H6    1.083739 S    
C1    C41   1.423167 S    
C2    C42   1.423147 S    
Cu1   Cu2   2.681031 S    
O2    C2    1.288534 A    
C31   C40   1.414948 A    
C5    C21   1.398333 A    
N7    O18   1.301357 A    
C32   C34   1.423660 A    
C12   N5    1.434036 S    
C9    N8    1.437995 S    
C40   H10   1.076310 S    
C41   C42   1.326842 D    
N8    O19   1.301287 A    
C7    O12   1.345843 S    
O4    C2    1.282420 A    
C11   C27   1.416216 A    
C8    O11   1.346301 S    
N3    H13   1.029141 S    
O7    Cu2   1.940893 S    
N6    O15   1.300730 A    
C29   C35   1.413145 A    
C25   C38   1.414702 A    
C11   N6    1.435931 S    
C14   H2    1.082455 S    
C30   C36   1.411541 A    
C37   I1    2.139302 S    
C15   H3    1.083193 S    
C31   C33   1.422414 A    
C9    C17   1.411895 A    
O5    C3    1.297821 A    
C10   N7    1.438523 S    
C10   C18   1.413071 A    
C39   H9    1.074961 S    
N5    O14   1.301307 A    
C13   C27   1.401487 A    
C7    C25   1.414094 A    
O6    C4    1.298576 A    
C29   C32   1.424862 A    
C8    C26   1.412935 A    
C30   C31   1.421774 A    
C6    O10   1.350226 S    
C30   C34   1.415745 A    
O7    C3    1.295567 A    
O3    Cu2   1.944435 S    
O8    C4    1.298920 A    
N4    H14   1.029133 S    
N2    C8    1.368891 A    
C35   C37   1.390750 A    
C20   C26   1.416397 A    
O1    Cu1   1.948052 S    
C12   C28   1.418857 A    
N2    C18   1.438740 S    
C19   C34   1.424273 A    
C5    O9    1.350287 S    
O6    Cu2   1.957306 S    
C26   C37   1.412688 A    
N1    C7    1.367447 A    
C16   H4    1.083135 S    
N8    O20   1.301244 A    
O3    C1    1.282387 A    
O8    Cu1   1.940896 S    
C38   I2    2.140040 S    
C23   C39   1.384502 A    
Cu1   N4    2.014652 S    
C22   C24   1.394599 A    
N3    N4    1.290700 D    
C15   C17   1.396172 A    
C6    C22   1.399391 A    
C16   C18   1.397489 A    
C29   C33   1.417829 A    
C14   C28   1.402418 A    
C19   C21   1.410687 A    
C36   C38   1.390574 A    
C3    C27   1.470181 S    
C20   C22   1.410664 A    
C9    C11   1.412172 A    
O2    Cu2   1.948053 S    
C13   H1    1.083603 S    
O5    Cu1   1.957306 S    
C20   C33   1.424391 A    
C42   H12   1.087839 S    
C41   H11   1.087826 S    
C24   C40   1.384081 A    
