data_str_m3_o16_o16_f0_pcu.sym.110
_audit_creation_date              2012-12-10T18:04:28-0500
_audit_creation_method            fapswitch 2.2
_symmetry_space_group_name_H-M    P1
_symmetry_Int_Tables_number       1
_space_group_crystal_system       triclinic
_cell_length_a                    19.174189
_cell_length_b                    18.142103
_cell_length_c                    12.647546
_cell_angle_alpha                 90.48819
_cell_angle_beta                  97.327685
_cell_angle_gamma                 89.336543
_cell_volume                      4363.24252427

loop_
_atom_site_label
_atom_site_type_symbol
_atom_type_description
_atom_site_fract_x
_atom_site_fract_y
_atom_site_fract_z
_atom_type_partial_charge
C1    C     C_R   0.405208 0.095647 0.441499 0.863347
C2    C     C_R   0.412437 0.895954 0.446319 0.863604
C3    C     C_R   0.905208 0.595647 0.441500 0.863343
C4    C     C_R   0.912437 0.395954 0.446319 0.863603
C5    C     C_R   0.712858 0.250520 0.525211 0.110451
C6    C     C_R   0.698776 0.733737 0.509099 0.010466
C7    C     C_R   0.212857 0.750520 0.525210 0.110449
C8    C     C_R   0.198773 0.233737 0.509091 0.010467
C9    C     C_R   0.726673 0.274205 0.633636 0.044808
C10   C     C_R   0.677475 0.682079 0.582303 0.074256
C11   C     C_R   0.226672 0.774205 0.633635 0.044801
C12   C     C_R   0.177468 0.182077 0.582286 0.074247
C13   C     C_R   0.292323 0.802324 0.671896 -0.290566
C14   C     C_R   0.212969 0.113663 0.592550 -0.253119
C15   C     C_R   0.792324 0.302324 0.671896 -0.290566
C16   C     C_R   0.712973 0.613663 0.592559 -0.253113
C17   C     C_R   0.341478 0.812545 0.602941 -0.148735
C18   C     C_R   0.269175 0.099298 0.535376 -0.167078
C19   C     C_R   0.841478 0.312545 0.602941 -0.148763
C20   C     C_R   0.769176 0.599296 0.535379 -0.167065
C21   C     C_R   0.650106 0.212117 0.495090 -0.043319
C22   C     C_R   0.681826 0.808565 0.519946 -0.075363
C23   C     C_R   0.150105 0.712118 0.495090 -0.043319
C24   C     C_R   0.181824 0.308565 0.519943 -0.075370
C25   C     C_R   0.627986 0.206419 0.677894 -0.194830
C26   C     C_R   0.596939 0.774288 0.637428 -0.230425
C27   C     C_R   0.127986 0.706420 0.677893 -0.194833
C28   C     C_R   0.096932 0.274283 0.637416 -0.230447
C29   C     C_R   0.364353 0.834682 0.417427 -0.135364
C30   C     C_R   0.342779 0.138701 0.399987 -0.142192
C31   C     C_R   0.864353 0.334682 0.417427 -0.135370
C32   C     C_R   0.842778 0.638700 0.399987 -0.142195
C33   C     C_R   0.647029 0.992444 0.128717 -0.097589
C34   C     C_R   0.147029 0.492445 0.128718 -0.097596
C35   C     C_R   0.377894 0.998026 0.766550 -0.097784
C36   C     C_R   0.877894 0.498025 0.766550 -0.097785
C37   C     C_R   0.351476 0.997866 0.864246 -0.048361
C38   C     C_R   0.851476 0.497865 0.864247 -0.048347
C39   C     C_R   0.588822 0.897090 0.554566 0.941317
C40   C     C_R   0.584166 0.106075 0.552195 0.902460
C41   C     C_R   0.088822 0.397090 0.554566 0.941295
C42   C     C_R   0.084166 0.606075 0.552195 0.902456
C43   C     C_R   0.398879 0.997854 0.958055 -0.183591
C44   C     C_R   0.898879 0.497855 0.958056 -0.183591
C45   C     C_R   0.472340 0.996653 0.954137 -0.015700
C46   C     C_R   0.972340 0.496653 0.954137 -0.015702
C47   C     C_R   0.495184 0.998113 0.852316 0.210036
C48   C     C_R   0.995184 0.498113 0.852316 0.210034
C49   C     C_R   0.523602 0.994688 0.046624 -0.014434
C50   C     C_R   0.023602 0.494688 0.046625 -0.014434
C51   C     C_R   0.597300 0.991019 0.035024 0.045374
C52   C     C_R   0.097301 0.491019 0.035025 0.045374
C53   C     C_R   0.617172 0.988915 0.930030 -0.067657
C54   C     C_R   0.117172 0.488915 0.930030 -0.067655
C55   C     C_R   0.566052 0.995824 0.843116 -0.240353
C56   C     C_R   0.066053 0.495824 0.843116 -0.240349
C57   C     C_R   0.503666 0.995747 0.150582 -0.078020
C58   C     C_R   0.003666 0.495748 0.150582 -0.078020
C59   C     C_R   0.622680 0.002901 0.228326 0.043198
C60   C     C_R   0.122680 0.502900 0.228327 0.043209
C61   C     C_R   0.675611 0.263477 0.702763 -0.036333
C62   C     C_R   0.622980 0.701685 0.643482 -0.031265
C63   C     C_R   0.175611 0.763478 0.702762 -0.036334
C64   C     C_R   0.122968 0.201679 0.643458 -0.031275
C65   C     C_R   0.621871 0.174619 0.575961 -0.183058
C66   C     C_R   0.626348 0.827442 0.576935 -0.083110
C67   C     C_R   0.121871 0.674619 0.575961 -0.183067
C68   C     C_R   0.126346 0.327441 0.576932 -0.083083
C69   C     C_R   0.352874 0.812533 0.310708 -0.235518
C70   C     C_R   0.336920 0.166512 0.295943 -0.219543
C71   C     C_R   0.852874 0.312533 0.310708 -0.235522
C72   C     C_R   0.836917 0.666510 0.295944 -0.219547
C73   C     C_R   0.300815 0.761972 0.275558 0.057279
C74   C     C_R   0.278815 0.209994 0.255837 0.071472
C75   C     C_R   0.800816 0.261971 0.275558 0.057283
C76   C     C_R   0.778811 0.709990 0.255837 0.071467
C77   C     C_R   0.255654 0.738277 0.347050 -0.108044
C78   C     C_R   0.234850 0.237197 0.328647 -0.289243
C79   C     C_R   0.755655 0.238277 0.347050 -0.108064
C80   C     C_R   0.734845 0.737191 0.328647 -0.289240
C81   C     C_R   0.262513 0.764790 0.453514 0.093172
C82   C     C_R   0.241679 0.209595 0.433497 0.074266
C83   C     C_R   0.762513 0.264790 0.453514 0.093172
C84   C     C_R   0.741678 0.709593 0.433500 0.074266
C85   C     C_R   0.323474 0.804459 0.491701 0.069758
C86   C     C_R   0.286359 0.149464 0.459006 0.113062
C87   C     C_R   0.823474 0.304459 0.491702 0.069762
C88   C     C_R   0.786359 0.649462 0.459008 0.113059
H1    H     H_    0.595899 0.187585 0.736702 0.190564
H2    H     H_    0.552285 0.789268 0.678029 0.199681
H3    H     H_    0.095898 0.687586 0.736701 0.190564
H4    H     H_    0.052272 0.289259 0.678010 0.199656
H5    H     H_    0.449832 0.994669 0.165859 0.139129
H6    H     H_    0.949833 0.494670 0.165859 0.139129
H7    H     H_    0.342426 0.995616 0.693500 0.128124
H8    H     H_    0.842425 0.495614 0.693500 0.128125
H9    H     H_    0.376744 0.997676 0.032033 0.178865
H10   H     H_    0.876745 0.497677 0.032034 0.178866
H11   H     H_    0.583330 0.998483 0.766568 0.231025
H12   H     H_    0.083330 0.498483 0.766568 0.231025
H13   H     H_    0.307692 0.812336 0.756102 0.145189
H14   H     H_    0.200694 0.072215 0.647560 0.121619
H15   H     H_    0.807693 0.312336 0.756102 0.145188
H16   H     H_    0.700698 0.572210 0.647559 0.121610
H17   H     H_    0.383570 0.836168 0.253488 0.168574
H18   H     H_    0.374862 0.149346 0.244163 0.162228
H19   H     H_    0.883570 0.336168 0.253488 0.168574
H20   H     H_    0.874860 0.649344 0.244163 0.162230
H21   H     H_    0.716072 0.198697 0.318759 0.181234
H22   H     H_    0.692287 0.775158 0.302546 0.123343
H23   H     H_    0.216072 0.698697 0.318759 0.181247
H24   H     H_    0.192294 0.275167 0.302548 0.123340
H25   H     H_    0.394049 0.825475 0.639024 0.185063
H26   H     H_    0.294561 0.045995 0.543725 0.158472
H27   H     H_    0.894050 0.325475 0.639024 0.185055
H28   H     H_    0.794560 0.545990 0.543723 0.158469
N1    N     N_R   0.552340 0.000000 0.237260 -0.151797
N2    N     N_R   0.052340 0.500000 0.237260 -0.151794
N3    N     N_R   0.448170 0.000000 0.762060 -0.123468
N4    N     N_R   0.948170 0.500000 0.762060 -0.123469
O1    O     O_R   0.448200 0.076800 0.373930 -0.627519
O2    O     O_R   0.448200 0.923200 0.373930 -0.617396
O3    O     O_R   0.948200 0.576800 0.373930 -0.627519
O4    O     O_R   0.948200 0.423200 0.373930 -0.617396
O5    O     O_R   0.414750 0.076790 0.542400 -0.613128
O6    O     O_R   0.414750 0.923210 0.542400 -0.638622
O7    O     O_R   0.914750 0.576790 0.542400 -0.613127
O8    O     O_R   0.914750 0.423210 0.542400 -0.638620
O9    O     O_R   0.585240 0.923200 0.457600 -0.643930
O10   O     O_R   0.585240 0.076800 0.457600 -0.650768
O11   O     O_R   0.085240 0.423200 0.457600 -0.643942
O12   O     O_R   0.085240 0.576800 0.457600 -0.650755
O13   O     O_R   0.551780 0.923190 0.626070 -0.647614
O14   O     O_R   0.551780 0.076810 0.626070 -0.630572
O15   O     O_R   0.051780 0.423190 0.626070 -0.647606
O16   O     O_R   0.051780 0.576810 0.626070 -0.630573
Zn1   Zn    Zn3+2 0.522330 1.000000 0.387520 0.924256
Zn2   Zn    Zn3+2 0.022330 0.500000 0.387520 0.924256
Zn3   Zn    Zn3+2 0.477660 0.000000 0.612480 0.926778
Zn4   Zn    Zn3+2 0.977660 0.500000 0.612480 0.926777
C89   C     C_R   0.689464 0.981188 0.900997 0.111471
C90   C     C_R   0.724592 0.912818 0.908956 -0.117517
C91   C     C_R   0.790014 0.904399 0.872058 -0.114322
C92   C     C_R   0.819598 0.963274 0.823733 -0.051657
C93   C     C_R   0.783543 0.030524 0.811198 -0.092974
C94   C     C_R   0.718470 0.039257 0.848737 -0.179210
H29   H     H_    0.701361 0.866687 0.944451 0.146144
H30   H     H_    0.817762 0.852254 0.879968 0.138047
H31   H     H_    0.869996 0.956448 0.794681 0.147437
H32   H     H_    0.805647 0.075565 0.771330 0.143345
H33   H     H_    0.689749 0.090694 0.835580 0.128011
C95   C     C_R   0.189464 0.481190 0.900997 0.111472
C96   C     C_R   0.224595 0.412822 0.908960 -0.117514
C97   C     C_R   0.290017 0.404404 0.872063 -0.114322
C98   C     C_R   0.319598 0.463279 0.823733 -0.051636
C99   C     C_R   0.283540 0.530527 0.811194 -0.092968
C100  C     C_R   0.218468 0.539258 0.848734 -0.179217
H34   H     H_    0.201366 0.366692 0.944459 0.146141
H35   H     H_    0.317767 0.352261 0.879977 0.138050
H36   H     H_    0.369996 0.456454 0.794680 0.147443
H37   H     H_    0.305643 0.575567 0.771324 0.143353
H38   H     H_    0.189746 0.590694 0.835575 0.128013
C101  C     C_R   0.723748 0.978001 0.129200 0.141802
C102  C     C_R   0.752748 0.910309 0.166642 -0.172130
C103  C     C_R   0.825520 0.898393 0.177537 -0.111541
C104  C     C_R   0.869842 0.953878 0.150759 -0.098041
C105  C     C_R   0.841562 0.021826 0.115147 -0.109625
C106  C     C_R   0.768962 0.034104 0.106166 -0.033772
H39   H     H_    0.718738 0.867518 0.188314 0.115354
H40   H     H_    0.847776 0.846538 0.207701 0.139766
H41   H     H_    0.926104 0.944500 0.158742 0.149069
H42   H     H_    0.875951 0.065091 0.095538 0.141173
H43   H     H_    0.747478 0.086734 0.081012 0.146231
C107  C     C_R   0.223748 0.478003 0.129201 0.141799
C108  C     C_R   0.252749 0.410312 0.166642 -0.172142
C109  C     C_R   0.325522 0.398398 0.177537 -0.111539
C110  C     C_R   0.369843 0.453884 0.150759 -0.098037
C111  C     C_R   0.341561 0.521832 0.115147 -0.109628
C112  C     C_R   0.268961 0.534108 0.106167 -0.033774
H44   H     H_    0.218741 0.367520 0.188314 0.115356
H45   H     H_    0.347778 0.346543 0.207700 0.139770
H46   H     H_    0.426105 0.444507 0.158743 0.149071
H47   H     H_    0.375950 0.565097 0.095538 0.141173
H48   H     H_    0.247476 0.586737 0.081010 0.146232
C113  C     C_2   0.274587 0.996937 0.866823 0.390716
H49   H     H_    0.239172 0.992871 0.793040 0.032880
O17   O     O_2   0.249794 0.000506 0.951018 -0.540977
C114  C     C_2   0.774587 0.496936 0.866824 0.390693
H50   H     H_    0.739172 0.492869 0.793041 0.032870
O18   O     O_2   0.749794 0.500506 0.951019 -0.540988
C115  C     C_2   0.669595 0.312673 0.795527 0.392154
H51   H     H_    0.710535 0.351584 0.822650 0.082741
O19   O     O_2   0.616700 0.312715 0.840059 -0.565062
C116  C     C_2   0.589370 0.647399 0.708350 0.378036
H52   H     H_    0.601874 0.589186 0.705924 0.082101
O20   O     O_2   0.545369 0.667158 0.764783 -0.595429
C117  C     C_2   0.169595 0.812675 0.795525 0.392151
H53   H     H_    0.210534 0.851586 0.822648 0.082741
O21   O     O_2   0.116699 0.812717 0.840058 -0.565063
C118  C     C_2   0.089343 0.147383 0.708288 0.378051
H54   H     H_    0.101783 0.089162 0.705744 0.082117
O22   O     O_2   0.045399 0.167144 0.764814 -0.595449
C119  C     C_2   0.603744 0.227526 0.393462 0.355088
H55   H     H_    0.559710 0.192341 0.366221 0.108634
O23   O     O_2   0.611143 0.283198 0.342592 -0.578772
C120  C     C_2   0.730551 0.866713 0.491597 0.351308
H56   H     H_    0.763225 0.858609 0.428675 0.089642
O24   O     O_2   0.738173 0.923427 0.544369 -0.577947
C121  C     C_2   0.103741 0.727527 0.393463 0.355101
H57   H     H_    0.059698 0.692349 0.366235 0.108623
O25   O     O_2   0.111148 0.783193 0.342582 -0.578787
C122  C     C_2   0.230555 0.366712 0.491610 0.351292
H58   H     H_    0.263236 0.358609 0.428702 0.089662
O26   O     O_2   0.238186 0.423418 0.544399 -0.577933
C123  C     C_R   0.291585 0.738864 0.161955 0.130104
C124  C     C_R   0.224045 0.731575 0.105132 -0.121675
C125  C     C_R   0.216209 0.713257 0.996864 -0.131112
C126  C     C_R   0.275382 0.704302 0.943643 -0.160526
C127  C     C_R   0.342547 0.711180 0.999114 -0.144195
C128  C     C_R   0.350796 0.727620 0.107885 -0.170458
H59   H     H_    0.177428 0.740229 0.143925 0.165463
H60   H     H_    0.164201 0.704723 0.954842 0.173705
H61   H     H_    0.269436 0.691370 0.859526 0.131933
H62   H     H_    0.388259 0.703262 0.957982 0.155428
H63   H     H_    0.403541 0.731600 0.149700 0.131147
C129  C     C_R   0.261007 0.219246 0.138382 0.121727
C130  C     C_R   0.314095 0.219402 0.070657 -0.156378
C131  C     C_R   0.296809 0.216502 0.960129 -0.128621
C132  C     C_R   0.226555 0.215823 0.915292 -0.101332
C133  C     C_R   0.173282 0.218041 0.980930 -0.112682
C134  C     C_R   0.190219 0.219353 0.091732 -0.152141
H64   H     H_    0.369129 0.221213 0.102600 0.121009
H65   H     H_    0.338035 0.215219 0.909076 0.138090
H66   H     H_    0.213657 0.214506 0.829700 0.142075
H67   H     H_    0.118762 0.218001 0.946118 0.180995
H68   H     H_    0.147844 0.217873 0.140559 0.132294
C135  C     C_R   0.791586 0.238863 0.161956 0.130105
C136  C     C_R   0.724046 0.231573 0.105132 -0.121673
C137  C     C_R   0.716211 0.213256 0.996863 -0.131112
C138  C     C_R   0.775384 0.204300 0.943644 -0.160529
C139  C     C_R   0.842549 0.211179 0.999115 -0.144193
C140  C     C_R   0.850797 0.227619 0.107887 -0.170457
H69   H     H_    0.677429 0.240227 0.143924 0.165453
H70   H     H_    0.664203 0.204721 0.954841 0.173703
H71   H     H_    0.769438 0.191369 0.859526 0.131930
H72   H     H_    0.888261 0.203260 0.957983 0.155424
H73   H     H_    0.903542 0.231599 0.149702 0.131145
C141  C     C_R   0.761005 0.719242 0.138382 0.121720
C142  C     C_R   0.814095 0.719405 0.070663 -0.156384
C143  C     C_R   0.796813 0.716503 0.960135 -0.128589
C144  C     C_R   0.726560 0.715818 0.915292 -0.101383
C145  C     C_R   0.673285 0.718030 0.980925 -0.112726
C146  C     C_R   0.690218 0.719343 0.091728 -0.152102
H74   H     H_    0.869127 0.721220 0.102610 0.121007
H75   H     H_    0.838040 0.715224 0.909085 0.138083
H76   H     H_    0.713666 0.714500 0.829700 0.142031
H77   H     H_    0.618766 0.717984 0.946108 0.180964
H78   H     H_    0.647842 0.717858 0.140553 0.132293
C147  C     C_2   0.674100 0.018045 0.323620 0.416355
H79   H     H_    0.669206 0.993866 0.398694 0.175849
O27   O     O_2   0.723422 0.059277 0.319080 -0.606153
C148  C     C_2   0.174100 0.518044 0.323621 0.416368
H80   H     H_    0.169209 0.493860 0.398694 0.175815
O28   O     O_2   0.223420 0.559279 0.319082 -0.606154

loop_
_geom_bond_atom_site_label_1
_geom_bond_atom_site_label_2
_ccdc_geom_bond_type
C83   C87   A    
C119  H55   S    
C103  C104  A    
C71   H19   S    
C78   C82   A    
C14   H14   S    
C14   C18   A    
C53   C55   A    
C35   N3    A    
C101  C102  A    
C72   C76   A    
O15   Zn4   S    
C18   H26   S    
C111  C112  A    
C24   C122  S    
C105  H42   S    
C17   H25   S    
C144  C145  A    
C48   N4    A    
C76   C141  S    
O5    Zn3   S    
C15   C19   A    
C119  O23   D    
O3    Zn2   S    
C22   C120  S    
C142  C143  A    
C92   H31   S    
C135  C140  A    
C2    C29   S    
C9    C61   A    
C42   O16   A    
C102  C103  A    
C28   C68   A    
C1    O5    A    
N2    Zn2   S    
C19   C87   A    
C1    C30   S    
C12   C64   A    
C3    O7    A    
C113  O17   D    
C47   N3    A    
O12   Zn2   S    
C129  C134  A    
C6    C22   A    
C58   N2    A    
C49   C57   A    
C4    O4    A    
C114  O18   D    
C139  C140  A    
O1    Zn1   S    
C96   H34   S    
C77   H23   S    
C21   C119  S    
C124  H59   S    
C22   C66   A    
C33   C101  S    
C34   C52   A    
C121  O25   D    
C127  H62   S    
C107  C108  A    
C93   H32   S    
C44   H10   S    
C146  H78   S    
C16   H16   S    
C37   C113  S    
C137  C138  A    
C44   C46   A    
C118  H54   S    
C49   C51   A    
C127  C128  A    
C70   C74   A    
C3    C32   S    
C50   C52   A    
C31   C71   A    
C27   H3    S    
C134  H68   S    
N4    Zn4   S    
C45   C49   A    
C8    C12   A    
C30   C86   A    
C29   C85   A    
C111  H47   S    
C80   C84   A    
O16   Zn4   S    
C21   C65   A    
C52   C54   A    
C2    O2    A    
C130  H64   S    
C26   C62   A    
C100  H38   S    
C18   C86   A    
C104  H41   S    
C33   C59   A    
C57   H5    S    
C135  C136  A    
C34   C60   A    
C106  H43   S    
C55   H11   S    
C59   C147  S    
C102  H39   S    
C10   C62   A    
C144  H76   S    
C131  C132  A    
C30   C70   A    
C105  C106  A    
C3    O3    A    
C38   C44   A    
C93   C94   A    
C41   C68   S    
C29   C69   A    
C45   C47   A    
C109  H45   S    
C46   C48   A    
O6    Zn3   S    
C6    C84   A    
C129  C130  A    
C79   H21   S    
C115  H51   S    
C26   C66   A    
C43   H9    S    
C126  H61   S    
C31   C87   A    
C124  C125  A    
C104  C105  A    
C32   C72   A    
C70   H18   S    
O14   Zn3   S    
C20   H28   S    
C69   H17   S    
C141  C146  A    
C92   C93   A    
C148  O28   D    
C23   C121  S    
C143  C144  A    
C82   C86   A    
C40   O14   A    
C136  H69   S    
C60   N2    A    
C139  H72   S    
C114  H50   S    
C51   C53   A    
C5    C21   A    
C50   C58   A    
C37   C43   A    
C7    C11   A    
C123  C124  A    
C115  O19   D    
C5    C9    A    
C132  C133  A    
C34   C107  S    
C60   C148  S    
C36   H8    S    
C130  C131  A    
C77   C81   A    
C16   C20   A    
C126  C127  A    
C121  H57   S    
C97   C98   A    
C25   C65   A    
C133  H67   S    
C28   H4    S    
C25   C61   A    
C95   C96   A    
C69   C73   A    
C43   C45   A    
C8    C82   A    
C131  H65   S    
C137  H70   S    
C27   C63   A    
C89   C94   A    
C2    O6    A    
C116  H52   S    
C118  O22   D    
C109  C110  A    
C7    C81   A    
C12   C14   A    
C99   H37   S    
C132  H66   S    
C40   C65   S    
C64   C118  S    
C42   C67   S    
C39   C66   S    
C17   C85   A    
C75   C135  S    
C26   H2    S    
O7    Zn4   S    
C62   C116  S    
C57   N1    A    
C13   H13   S    
C147  H79   S    
C116  O20   D    
C41   O15   A    
C97   H35   S    
C141  C142  A    
C28   C64   A    
C47   C55   A    
C112  H48   S    
C39   O13   A    
O4    Zn2   S    
C103  H40   S    
C48   C56   A    
C42   O12   A    
C40   O10   A    
C136  C137  A    
C125  H60   S    
C4    O8    A    
C73   C77   A    
C99   C100  A    
C35   C37   A    
C98   H36   S    
C120  H56   S    
C25   H1    S    
C90   H29   S    
N1    Zn1   S    
C76   C80   A    
O2    Zn1   S    
C122  O26   D    
C54   C56   A    
C147  O27   D    
C6    C10   A    
C54   C95   S    
C38   C114  S    
C5    C83   A    
O13   Zn3   S    
C148  H80   S    
C35   H7    S    
C33   C51   A    
C39   O9    A    
O8    Zn4   S    
C46   C50   A    
C11   C63   A    
C140  H73   S    
C13   C17   A    
N3    Zn3   S    
C61   C115  S    
C117  O21   D    
C91   C92   A    
C58   H6    S    
C101  C106  A    
C133  C134  A    
C74   C129  S    
C108  C109  A    
C10   C16   A    
C123  C128  A    
C71   C75   A    
C11   C13   A    
C19   H27   S    
C113  H49   S    
C138  H71   S    
C84   C88   A    
C23   C67   A    
C120  O24   D    
C7    C23   A    
C20   C88   A    
C125  C126  A    
C36   C38   A    
C138  C139  A    
C8    C24   A    
C143  H75   S    
C128  H63   S    
C95   C100  A    
C53   C89   S    
C72   H20   S    
C117  H53   S    
C36   N4    A    
C1    O1    A    
C91   H30   S    
C4    C31   S    
C27   C67   A    
C24   C68   A    
C108  H44   S    
C94   H33   S    
C79   C83   A    
C63   C117  S    
C142  H74   S    
C41   O11   A    
O9    Zn1   S    
C122  H58   S    
C59   N1    A    
C110  C111  A    
C74   C78   A    
C80   H22   S    
C98   C99   A    
O11   Zn2   S    
C56   H12   S    
C90   C91   A    
C73   C123  S    
C78   H24   S    
C145  H77   S    
C15   H15   S    
C96   C97   A    
C89   C90   A    
O10   Zn1   S    
C75   C79   A    
C107  C112  A    
C81   C85   A    
C110  H46   S    
C9    C15   A    
C145  C146  A    
C32   C88   A    
