data_str_m9_o2_o17_f0_sra.sym.65
_audit_creation_date              2012-12-11T16:26:31-0500
_audit_creation_method            fapswitch 2.2
_symmetry_space_group_name_H-M    P1
_symmetry_Int_Tables_number       1
_space_group_crystal_system       triclinic
_cell_length_a                    6.93564
_cell_length_b                    17.429001
_cell_length_c                    19.623898
_cell_angle_alpha                 108.589531
_cell_angle_beta                  89.857325
_cell_angle_gamma                 90.544354
_cell_volume                      2248.29642939

loop_
_atom_site_label
_atom_site_type_symbol
_atom_type_description
_atom_site_fract_x
_atom_site_fract_y
_atom_site_fract_z
_atom_type_partial_charge
O1    O     O_R   0.494330 0.415720 0.413720 -0.544402
O2    O     O_R   0.819330 0.430070 0.560210 -0.501397
O3    O     O_R   0.994320 0.584280 0.586280 -0.536217
C1    C     C_R   0.650971 0.415418 0.582344 0.787919
O4    O     O_R   0.823730 0.406300 0.412670 -0.532539
O5    O     O_R   0.998760 0.560340 0.437690 -0.522274
C2    C     C_R   0.652841 0.381936 0.385935 0.791400
O6    O     O_R   0.489890 0.439660 0.562310 -0.544764
O7    O     O_3   0.662340 0.550560 0.508380 -0.383741
V1    V     V_3+5 0.935370 0.490620 0.498450 1.502718
O8    O     O_R   0.328750 0.569930 0.439790 -0.551916
C3    C     C_R   0.161344 0.582663 0.416369 0.757407
O9    O     O_R   0.324340 0.593700 0.587330 -0.547046
C4    C     C_R   0.154794 0.618519 0.613735 0.772815
V2    V     V_3+5 0.435940 0.509380 0.501550 1.424093
O10   O     O_3   0.159100 0.449440 0.491620 -0.361840
H1    H     H_    0.195977 0.889947 0.575548 0.117150
C5    C     C_R   0.104942 0.588941 0.748841 -0.149572
C6    C     C_R   0.079583 0.571849 0.813009 -0.109029
C7    C     C_R   0.066703 0.634456 0.877776 -0.120035
C8    C     C_R   0.079171 0.714672 0.878884 -0.141885
C9    C     C_R   0.104313 0.733940 0.814620 0.075507
C10   C     C_R   0.117198 0.669875 0.748078 0.053158
C11   C     C_R   0.121822 0.815442 0.816230 -0.166280
C12   C     C_R   0.153895 0.833049 0.751432 0.028244
C13   C     C_R   0.149093 0.769821 0.683804 0.035873
C14   C     C_R   0.140774 0.687275 0.682475 -0.190251
C15   C     C_R   0.187496 0.913814 0.752935 -0.150947
C16   C     C_R   0.212210 0.932690 0.689929 -0.166168
C17   C     C_R   0.190936 0.872969 0.624043 -0.167435
C18   C     C_R   0.150603 0.792632 0.620038 0.271859
H2    H     H_    0.114515 0.537912 0.700021 0.103012
H3    H     H_    0.070024 0.509636 0.812458 0.107418
H4    H     H_    0.047887 0.620800 0.927489 0.101550
H5    H     H_    0.070629 0.761321 0.930649 0.099055
H6    H     H_    0.196092 0.963499 0.802808 0.113373
H7    H     H_    0.239632 0.994717 0.692229 0.126166
C19   C     C_R   0.022165 0.604403 0.305488 0.279243
C20   C     C_R   0.155545 0.626928 0.362893 -0.099210
C21   C     C_R   0.287371 0.690036 0.367906 -0.271863
C22   C     C_R   0.279482 0.734556 0.319746 0.124301
C23   C     C_R   0.140541 0.714893 0.264042 0.029637
C24   C     C_R   0.014377 0.648627 0.255877 0.015963
C25   C     C_R   0.408515 0.798912 0.326845 -0.175957
C26   C     C_R   0.398460 0.844624 0.280247 -0.201741
C27   C     C_R   0.259739 0.826854 0.225421 0.100598
C28   C     C_R   0.130401 0.761066 0.216105 -0.028238
C29   C     C_R   0.992023 0.741799 0.159515 -0.011435
C30   C     C_R   0.873604 0.671542 0.149418 0.274117
C31   C     C_R   0.888189 0.626364 0.196958 -0.207433
C32   C     C_R   0.249017 0.874813 0.180510 -0.295147
C33   C     C_R   0.110135 0.859607 0.126244 -0.125301
C34   C     C_R   0.978612 0.793955 0.115949 0.222342
H8    H     H_    0.394070 0.705733 0.410555 0.122635
H9    H     H_    0.516476 0.814455 0.368996 0.126545
H10   H     H_    0.498253 0.894726 0.287613 0.154574
H11   H     H_    0.347547 0.925694 0.188786 0.132172
H12   H     H_    0.801327 0.572064 0.185884 0.174369
C35   C     C_R   0.464991 0.182876 0.864401 -0.243294
C36   C     C_R   0.621560 0.133270 0.867987 -0.093854
C37   C     C_R   0.782516 0.130123 0.823463 -0.225538
C38   C     C_R   0.786859 0.175114 0.775436 0.102885
C39   C     C_R   0.630574 0.225572 0.773027 0.084511
C40   C     C_R   0.469697 0.229821 0.818101 0.094357
C41   C     C_R   0.944547 0.170314 0.729507 -0.216553
C42   C     C_R   0.949090 0.215918 0.682394 -0.138541
C43   C     C_R   0.796025 0.267491 0.680341 -0.013524
C44   C     C_R   0.635129 0.271827 0.725461 -0.031227
C45   C     C_R   0.478844 0.322327 0.723192 0.097227
C46   C     C_R   0.320764 0.326788 0.769034 -0.150311
C47   C     C_R   0.316272 0.281007 0.816083 -0.201789
C48   C     C_R   0.801274 0.314681 0.634088 0.524978
C49   C     C_R   0.644579 0.364988 0.631005 -0.213387
C50   C     C_R   0.483567 0.367743 0.675488 -0.278120
H13   H     H_    0.340122 0.185940 0.898495 0.125682
H14   H     H_    0.902956 0.091584 0.825260 0.123304
H15   H     H_    0.065397 0.131708 0.730387 0.129558
H16   H     H_    0.073820 0.211146 0.647997 0.182952
H17   H     H_    0.363213 0.406420 0.673957 0.164869
H18   H     H_    0.199697 0.365276 0.768145 0.127105
H19   H     H_    0.191912 0.285240 0.850594 0.131234
H20   H     H_    0.751304 0.114244 0.422439 0.130962
C51   C     C_R   0.514043 0.406803 0.256495 -0.279909
C52   C     C_R   0.472356 0.425041 0.194302 0.582035
C53   C     C_R   0.501547 0.367745 0.127791 -0.260657
C54   C     C_R   0.567426 0.290305 0.122522 0.201429
C55   C     C_R   0.588401 0.267190 0.185741 0.037719
C56   C     C_R   0.576501 0.328786 0.253840 -0.077007
C57   C     C_R   0.627528 0.186130 0.182932 -0.131233
C58   C     C_R   0.674941 0.169197 0.247108 -0.027188
C59   C     C_R   0.666874 0.231413 0.314989 0.038451
C60   C     C_R   0.632338 0.312782 0.317586 -0.134864
C61   C     C_R   0.727614 0.089995 0.244815 -0.247855
C62   C     C_R   0.770134 0.071438 0.307295 0.305791
C63   C     C_R   0.741357 0.130382 0.373677 -0.175277
C64   C     C_R   0.682866 0.208566 0.378320 0.219963
H21   H     H_    0.498260 0.455434 0.306510 0.152073
H22   H     H_    0.482870 0.384939 0.079830 0.136212
H23   H     H_    0.737760 0.041340 0.194457 0.112330
O11   O     O_R   0.775200 0.060470 0.937800 -0.539191
O12   O     O_R   0.441110 0.093720 0.087350 -0.539590
O13   O     O_R   0.266330 0.939630 0.062280 -0.551410
C65   C     C_R   0.611247 0.117763 0.114233 0.783259
O14   O     O_R   0.445750 0.069950 0.939820 -0.545125
O15   O     O_R   0.271000 0.915700 0.913700 -0.538935
C66   C     C_R   0.614245 0.084005 0.917331 0.747094
O16   O     O_R   0.770530 0.084400 0.086380 -0.537947
O17   O     O_3   0.602830 0.949510 0.991680 -0.369646
V3    V     V_3+5 0.329710 0.009370 0.001550 1.400552
O18   O     O_R   0.940990 0.906170 0.912570 -0.535549
C67   C     C_R   0.110135 0.882717 0.885567 0.697610
O19   O     O_R   0.936350 0.929940 0.060100 -0.527102
C68   C     C_R   0.104195 0.913189 0.080344 0.735703
V4    V     V_3+5 0.829160 0.990450 0.998310 1.425294
O20   O     O_3   0.105910 0.050480 0.008320 -0.373352
N1    N     N_2   0.834363 0.782783 0.062057 -0.516429
H24   H     H_    0.837031 0.729264 0.020122 0.261521
C69   C     C_3   0.645719 0.813727 0.087781 -0.397046
H25   H     H_    0.585947 0.782621 0.124377 0.203375
H26   H     H_    0.546302 0.804300 0.041519 0.183360
H27   H     H_    0.654600 0.879502 0.117627 0.175205
N2    N     N_2   0.751783 0.641338 0.088156 -0.540452
H28   H     H_    0.819543 0.601645 0.044350 0.245082
C70   C     C_3   0.557235 0.616919 0.099624 -0.495094
H29   H     H_    0.462481 0.623024 0.056183 0.188594
H30   H     H_    0.499202 0.655828 0.151993 0.227672
H31   H     H_    0.554767 0.552615 0.097809 0.228233
F1    F     F_    0.957877 0.310180 0.591167 -0.716186
F2    F     F_    0.413751 0.500495 0.198755 -0.728961
N3    N     N_2   0.638257 0.241418 0.054787 -0.526324
H32   H     H_    0.560367 0.247362 0.012128 0.247056
C71   C     C_3   0.843224 0.252283 0.046074 -0.513511
H33   H     H_    0.891134 0.212342 0.992722 0.196124
H34   H     H_    0.926011 0.236653 0.088165 0.204520
H35   H     H_    0.875743 0.316008 0.049518 0.179112
N4    N     N_2   0.821984 0.990979 0.303081 -0.534554
H36   H     H_    0.817366 0.949345 0.252109 0.250883
C72   C     C_3   0.992053 0.982982 0.342833 -0.526684
H37   H     H_    0.012497 0.918247 0.337465 0.207255
H38   H     H_    0.976527 0.016395 0.400963 0.193232
H39   H     H_    0.121340 0.005607 0.321332 0.200204
N5    N     N_2   0.612447 0.258713 0.445664 -0.542933
H40   H     H_    0.687512 0.252081 0.488633 0.272301
C73   C     C_3   0.406365 0.250317 0.453927 -0.480337
H41   H     H_    0.359248 0.291087 0.507062 0.230321
H42   H     H_    0.368937 0.187096 0.450763 0.180204
H43   H     H_    0.326807 0.266598 0.411482 0.204984
N6    N     N_2   0.087308 0.738860 0.552913 -0.545481
H44   H     H_    0.162265 0.746555 0.510165 0.233534
C74   C     C_3   0.880917 0.741551 0.542700 -0.501496
H45   H     H_    0.839235 0.698913 0.489481 0.197459
H46   H     H_    0.836972 0.803355 0.544502 0.174159
H47   H     H_    0.802276 0.724130 0.585024 0.207354
N7    N     N_2   0.904879 0.534372 0.296331 -0.539906
H48   H     H_    0.763465 0.539455 0.282827 0.267966
C75   C     C_3   0.996376 0.459702 0.255184 -0.472269
H49   H     H_    0.021726 0.458664 0.198968 0.213527
H50   H     H_    0.904802 0.407393 0.254408 0.182864
H51   H     H_    0.134409 0.452753 0.280750 0.203249

loop_
_geom_bond_atom_site_label_1
_geom_bond_atom_site_label_2
_ccdc_geom_bond_type
C55   C56   A    
C61   C62   A    
C49   C50   A    
N3    C71   S    
C63   C64   A    
C1    O6    A    
O19   V4    S    
V4    O20   S    
O14   V3    S    
C53   C54   A    
N1    H24   S    
C12   C15   A    
C35   C40   A    
C16   C17   A    
C48   F1    S    
C9    C11   A    
C15   C16   A    
N6    C74   S    
C5    C6    A    
C45   C46   A    
O5    C3    A    
C17   C18   A    
C30   N2    S    
O12   V3    S    
V2    O10   S    
C52   F2    S    
O17   V3    S    
C43   C48   A    
C22   C23   A    
C40   C47   A    
O17   V4    S    
C69   H25   S    
C53   H22   S    
C59   C64   A    
O18   C67   A    
O8    V2    S    
C56   C60   A    
C26   H10   S    
C71   H33   S    
C74   H47   S    
C62   N4    S    
C46   C47   A    
C32   H11   S    
C10   C14   A    
C4    C14   S    
O7    V1    S    
C61   H23   S    
N7    C75   S    
C34   N1    S    
C23   C28   A    
C7    H4    S    
C42   C43   A    
O15   C67   A    
C35   C36   A    
O12   C65   A    
O1    C2    A    
C8    C9    A    
C57   C65   S    
H1    C17   S    
C62   C63   A    
C11   C67   S    
C73   H43   S    
O14   C66   A    
O19   C68   A    
C37   H14   S    
C29   C34   A    
C42   H16   S    
C41   H15   S    
C46   H18   S    
C32   C33   A    
C31   H12   S    
C28   C29   A    
O11   V4    S    
C11   C12   A    
N4    C72   S    
C6    H3    S    
C20   C21   A    
O4    C2    A    
C54   C55   A    
C54   N3    S    
C12   C13   A    
C33   C68   S    
C27   C32   A    
C5    C10   A    
C36   C37   A    
C69   H27   S    
O2    C1    A    
C43   C44   A    
O16   V4    S    
C38   C39   A    
C51   C52   A    
C1    C49   S    
C45   C50   A    
C52   C53   A    
N7    H48   S    
O3    C4    A    
C72   H38   S    
C70   H31   S    
O1    V2    S    
C18   N6    S    
C73   H42   S    
C21   C22   A    
C41   C42   A    
O6    V2    S    
C21   H8    S    
C50   H17   S    
O9    V2    S    
C13   C14   A    
C22   C25   A    
C74   H46   S    
C5    H2    S    
C23   C24   A    
C19   N7    S    
N2    C70   S    
O2    V1    S    
C35   H13   S    
O18   V4    S    
C59   C60   A    
C36   C66   S    
C33   C34   A    
C58   C61   A    
C70   H30   S    
O15   V3    S    
C27   C28   A    
C75   H49   S    
H20   C63   S    
C38   C41   A    
N5    H40   S    
C13   C18   A    
C44   C45   A    
C75   H51   S    
C25   C26   A    
C48   C49   A    
C72   H39   S    
O5    V1    S    
O8    C3    A    
C24   C31   A    
N2    H28   S    
C8    H5    S    
C39   C44   A    
O11   C66   A    
C74   H45   S    
C73   H41   S    
C6    C7    A    
C75   H50   S    
N3    H32   S    
O7    V2    S    
O4    V1    S    
O3    V1    S    
V1    O10   S    
C25   H9    S    
C58   C59   A    
C19   C20   A    
C3    C20   S    
C71   H35   S    
C29   C30   A    
C2    C60   S    
N1    C69   S    
C51   C56   A    
N5    C73   S    
N6    H44   S    
C37   C38   A    
C69   H26   S    
C72   H37   S    
V3    O20   S    
C64   N5    S    
C39   C40   A    
C26   C27   A    
C19   C24   A    
C7    C8    A    
C15   H6    S    
C71   H34   S    
C30   C31   A    
C51   H21   S    
C16   H7    S    
O13   C68   A    
C55   C57   A    
C9    C10   A    
N4    H36   S    
O13   V3    S    
C65   O16   A    
C57   C58   A    
O9    C4    A    
C70   H29   S    
C47   H19   S    
