data_str_m2_o10_o18_f0_pcu.sym.124
_audit_creation_date              2012-12-10T16:45:21-0500
_audit_creation_method            fapswitch 2.2
_symmetry_space_group_name_H-M    P1
_symmetry_Int_Tables_number       1
_space_group_crystal_system       triclinic
_cell_length_a                    7.630189
_cell_length_b                    8.689454
_cell_length_c                    15.819113
_cell_angle_alpha                 97.808287
_cell_angle_beta                  77.618557
_cell_angle_gamma                 102.300655
_cell_volume                      996.450471327

loop_
_atom_site_label
_atom_site_type_symbol
_atom_type_description
_atom_site_fract_x
_atom_site_fract_y
_atom_site_fract_z
_atom_type_partial_charge
C1    C     C_R   0.543870 0.799324 0.503282 0.844527
C2    C     C_R   0.456158 0.200614 0.496550 0.871119
C3    C     C_R   0.270218 0.447924 0.080725 -0.111510
C4    C     C_R   0.687520 0.628342 0.933371 -0.083891
C5    C     C_R   0.142996 0.418746 0.026304 -0.121587
C6    C     C_R   0.807387 0.682212 0.990470 -0.115866
C7    C     C_2   0.566053 0.967580 0.507264 -0.354742
C8    C     C_2   0.433565 0.032270 0.492833 -0.348370
C9    C     C_R   0.388145 0.483451 0.664972 0.849680
C10   C     C_R   0.611029 0.512443 0.335068 0.871157
C11   C     C_R   0.321983 0.464769 0.758584 -0.248173
C12   C     C_R   0.673591 0.541455 0.243398 -0.217309
C13   C     C_R   0.073600 0.408544 0.881880 0.623707
C14   C     C_R   0.885450 0.688455 0.132000 0.595729
C15   C     C_R   0.133872 0.431487 0.793818 -0.351727
C16   C     C_R   0.838915 0.644132 0.216517 -0.378920
C17   C     C_R   0.446327 0.475411 0.813445 0.533575
C18   C     C_R   0.557569 0.480291 0.184637 0.521762
C19   C     C_R   0.388123 0.484617 0.903738 -0.091942
C20   C     C_R   0.590246 0.539177 0.103158 -0.071160
C21   C     C_R   0.200071 0.437215 0.937697 -0.053264
C22   C     C_R   0.761960 0.637099 0.074974 -0.035896
C23   C     C_R   0.513725 0.534794 0.960601 0.158558
C24   C     C_R   0.458226 0.502900 0.048679 0.128159
Cu1   Cu    Cu3+1 0.322120 0.483240 0.490330 0.930763
Cu2   Cu    Cu3+1 0.677880 0.516760 0.509670 0.950291
H1    H     H_    0.999682 0.381547 0.053922 0.188848
H2    H     H_    0.937501 0.757005 0.967562 0.187748
H3    H     H_    0.930810 0.691935 0.261247 0.204679
H4    H     H_    0.033518 0.415838 0.752707 0.230101
H5    H     H_    0.216183 0.438044 0.149005 0.191749
H6    H     H_    0.728898 0.668904 0.869171 0.169450
H7    H     H_    0.692044 0.038508 0.523167 0.168865
H8    H     H_    0.307122 0.961187 0.477316 0.165046
N1    N     N_2   0.945180 0.542040 0.524240 -0.089640
N2    N     N_2   0.054820 0.457960 0.475760 -0.108037
O1    O     O_R   0.384450 0.714270 0.493720 -0.616290
O2    O     O_R   0.615550 0.285730 0.506280 -0.605398
O3    O     O_R   0.684880 0.742590 0.510050 -0.587134
O4    O     O_R   0.315120 0.257410 0.489950 -0.604661
O5    O     O_R   0.265540 0.477900 0.617090 -0.618748
O6    O     O_R   0.734460 0.522100 0.382910 -0.620097
O7    O     O_R   0.565970 0.506210 0.633420 -0.528388
O8    O     O_R   0.434030 0.493790 0.366580 -0.565384
F1    F     F_    0.425352 0.352074 0.204039 -0.704001
F2    F     F_    0.617395 0.450433 0.779670 -0.676582
F3    F     F_    0.892544 0.359281 0.912303 -0.646703
F4    F     F_    0.048528 0.785138 0.106912 -0.668350
C25   C     C_3   0.018834 0.685189 0.575564 -0.061763
C26   C     C_3   0.913559 0.708813 0.669456 -0.388100
C27   C     C_3   0.796802 0.836943 0.686021 -0.720996
H9    H     H_    0.765300 0.872650 0.756911 0.230354
H10   H     H_    0.871124 0.943546 0.653000 0.235742
H11   H     H_    0.664462 0.793793 0.665266 0.258051
H12   H     H_    0.013241 0.747368 0.714074 0.171176
H13   H     H_    0.836745 0.594877 0.690170 0.304821
H14   H     H_    0.146494 0.675367 0.589576 0.196096
H15   H     H_    0.036447 0.790381 0.539741 0.149646
C28   C     C_3   0.979073 0.313343 0.427210 -0.117996
C29   C     C_3   0.104332 0.274849 0.341169 -0.334012
C30   C     C_3   0.009344 0.135942 0.286510 -0.825907
H16   H     H_    0.965844 0.029133 0.322904 0.246271
H17   H     H_    0.887841 0.165959 0.269147 0.247649
H18   H     H_    0.105253 0.108549 0.225486 0.319431
H19   H     H_    0.141086 0.380486 0.304033 0.261754
H20   H     H_    0.228793 0.241317 0.352112 0.284480
H21   H     H_    0.949849 0.213269 0.467959 0.157136
H22   H     H_    0.858352 0.325784 0.405607 0.224427

loop_
_geom_bond_atom_site_label_1
_geom_bond_atom_site_label_2
_ccdc_geom_bond_type
C8    H8    S    
N1    C25   S    
C30   H18   S    
C19   C23   A    
C23   C24   A    
C18   F1    S    
C2    O4    A    
C28   H22   S    
C10   O6    A    
C7    H7    S    
C2    O2    A    
C9    O5    A    
C26   H12   S    
C1    O1    A    
C3    C5    A    
C27   H11   S    
Cu1   O1    S    
N2    C28   S    
C30   H17   S    
C26   C27   S    
Cu1   Cu2   S    
C29   H20   S    
C28   C29   S    
Cu1   O5    S    
C26   H13   S    
C13   C21   A    
C3    H5    S    
C9    C11   S    
C5    H1    S    
C14   C22   A    
C3    C24   A    
C4    H6    S    
C10   C12   S    
Cu1   O8    S    
Cu2   O7    S    
C19   C21   A    
C20   C22   A    
C29   H19   S    
C18   C20   A    
C13   C15   A    
Cu1   O4    S    
C30   H16   S    
C14   C16   A    
Cu2   O3    S    
C9    O7    A    
C1    O3    A    
Cu1   N2    S    
C10   O8    A    
C27   H9    S    
C6    C22   A    
C17   C19   A    
C12   C16   A    
Cu2   N1    S    
C7    C8    D    
C25   H14   S    
C17   F2    S    
Cu2   O6    S    
C15   H4    S    
C4    C6    A    
C25   C26   S    
C12   C18   A    
C13   F3    S    
C4    C23   A    
C20   C24   A    
Cu2   O2    S    
C2    C8    S    
C14   F4    S    
C28   H21   S    
C16   H3    S    
C1    C7    S    
C11   C15   A    
C6    H2    S    
C25   H15   S    
N1    N2    D    
C29   C30   S    
C27   H10   S    
C5    C21   A    
C11   C17   A    
