data_str_m9_o11_o18_f0_sra.sym.82
_audit_creation_date              2013-03-05T15:42:09-0500
_audit_creation_method            fapswitch 2.2
_symmetry_space_group_name_H-M    P1
_symmetry_Int_Tables_number       1
_space_group_crystal_system       triclinic
_cell_length_a                    22.006074
_cell_length_b                    7.207251
_cell_length_c                    14.901233
_cell_angle_alpha                 90.000946
_cell_angle_beta                  106.709152
_cell_angle_gamma                 90.000783
_cell_volume                      2263.5945289

loop_
_atom_site_label
_atom_site_type_symbol
_atom_site_description
_atom_site_fract_x
_atom_site_fract_y
_atom_site_fract_z
_atom_type_partial_charge
O1    O     O_R   0.584770 0.505770 0.002090 -0.557652
O2    O     O_R   0.415230 0.005770 0.997910 -0.557645
O3    O     O_R   0.467060 0.173340 0.861950 -0.559460
O4    O     O_R   0.532940 0.673340 0.138050 -0.559449
C1    C     C_R   0.455288 0.344189 0.825978 0.806788
C2    C     C_R   0.544712 0.844194 0.174022 0.806789
O5    O     O_R   0.587510 0.175890 0.993210 -0.513886
O6    O     O_R   0.412490 0.675890 0.006790 -0.513891
O7    O     O_R   0.536540 0.008150 0.130100 -0.561280
O8    O     O_R   0.463460 0.508150 0.869900 -0.561279
C3    C     C_R   0.613063 0.344007 0.998328 0.836632
C4    C     C_R   0.386937 0.844005 0.001672 0.836633
O9    O     O_3   0.483140 0.340040 0.044760 -0.274343
O10   O     O_3   0.516860 0.840040 0.955240 -0.274349
V1    V     V_3+5 0.503130 0.064190 0.991700 1.197785
V2    V     V_3+5 0.496870 0.564190 0.008300 1.197790
C5    C     C_2   0.215350 0.734817 0.009385 -0.201238
C6    C     C_2   0.784651 0.234815 0.990632 -0.201222
C7    C     C_2   0.183487 0.893488 0.014517 0.182154
C8    C     C_2   0.816512 0.393480 0.985472 0.182199
H1    H     H_    0.189064 0.605383 0.995578 0.147651
H2    H     H_    0.810941 0.105392 0.004468 0.147612
C9    C     C_2   0.285740 0.720402 0.024530 0.416111
C10   C     C_2   0.714261 0.220395 0.975483 0.416108
C11   C     C_2   0.318325 0.853844 0.993815 -0.131289
C12   C     C_2   0.681675 0.353852 0.006184 -0.131290
H3    H     H_    0.293612 0.975330 0.958433 0.064727
H4    H     H_    0.706387 0.475357 0.041551 0.064704
C13   C     C_R   0.924104 0.884891 0.724806 -0.132885
C14   C     C_R   0.075900 0.384924 0.275193 -0.132879
C15   C     C_R   0.572562 0.850152 0.275512 -0.068657
C16   C     C_R   0.427442 0.350125 0.724486 -0.068679
C17   C     C_R   0.934268 0.848489 0.568868 -0.072374
C18   C     C_R   0.065734 0.348870 0.431147 -0.072383
C19   C     C_R   0.961569 0.851620 0.665245 -0.159368
C20   C     C_R   0.038429 0.351880 0.334769 -0.159393
C21   C     C_R   0.857925 0.910093 0.688079 0.290007
C22   C     C_R   0.142084 0.410023 0.311906 0.289978
C23   C     C_R   0.828486 0.879565 0.590510 -0.011883
C24   C     C_R   0.171520 0.379623 0.409487 -0.011895
C25   C     C_R   0.868366 0.863385 0.531041 0.034949
C26   C     C_R   0.131639 0.363673 0.468965 0.034940
C27   C     C_R   0.761351 0.861628 0.549723 0.036823
C28   C     C_R   0.238651 0.361605 0.450276 0.036813
C29   C     C_R   0.735073 0.867209 0.450166 0.027350
C30   C     C_R   0.264934 0.367330 0.549831 0.027350
C31   C     C_R   0.777109 0.869881 0.394184 -0.090262
C32   C     C_R   0.222901 0.370237 0.605815 -0.090263
C33   C     C_R   0.842289 0.861273 0.434079 -0.084480
C34   C     C_R   0.157719 0.361708 0.565927 -0.084484
C35   C     C_R   0.720461 0.820483 0.604697 -0.006023
C36   C     C_R   0.279529 0.320240 0.395314 -0.006073
C37   C     C_R   0.655373 0.805976 0.565341 -0.094409
C38   C     C_R   0.344614 0.305632 0.434673 -0.094405
C39   C     C_R   0.628477 0.826350 0.469156 0.052308
C40   C     C_R   0.371517 0.326125 0.530850 0.052305
C41   C     C_R   0.667778 0.858170 0.409958 0.048265
C42   C     C_R   0.332227 0.358188 0.590039 0.048259
C43   C     C_R   0.562557 0.807246 0.431214 -0.068766
C44   C     C_R   0.437431 0.306883 0.568796 -0.068771
C45   C     C_R   0.534919 0.816211 0.334774 -0.093253
C46   C     C_R   0.465072 0.315939 0.665232 -0.093247
C47   C     C_R   0.638032 0.874761 0.312548 -0.109675
C48   C     C_R   0.361979 0.374889 0.687443 -0.109684
H5    H     H_    0.872667 0.853454 0.388362 0.072583
H6    H     H_    0.127341 0.354070 0.611650 0.072590
H7    H     H_    0.664256 0.903941 0.263218 0.054669
H8    H     H_    0.335765 0.404246 0.736764 0.054689
H9    H     H_    0.484245 0.795471 0.306234 0.085061
H10   H     H_    0.515739 0.295067 0.693777 0.085080
H11   H     H_    0.625934 0.774437 0.610535 0.098256
H12   H     H_    0.374044 0.273913 0.389487 0.098263
H13   H     H_    0.964695 0.831048 0.523740 0.076591
H14   H     H_    0.035305 0.331610 0.476285 0.076598
H15   H     H_    0.012451 0.834731 0.693414 0.068297
H16   H     H_    0.987543 0.335086 0.306611 0.068286
H17   H     H_    0.761212 0.867014 0.318792 0.075263
H18   H     H_    0.238799 0.367497 0.681207 0.075266
H19   H     H_    0.738115 0.787810 0.678192 0.162331
H20   H     H_    0.261866 0.287464 0.321832 0.162328
H21   H     H_    0.532525 0.780840 0.476123 0.074207
H22   H     H_    0.467454 0.280283 0.523894 0.074208
O11   O     O_R   0.036450 0.233070 0.130130 -0.553970
O12   O     O_R   0.963550 0.733070 0.869870 -0.553983
O13   O     O_R   0.912470 0.560570 0.006790 -0.512986
O14   O     O_R   0.087530 0.060570 0.993210 -0.512951
C49   C     C_R   0.886384 0.393024 0.999444 0.778715
C50   C     C_R   0.113615 0.893026 0.000553 0.778701
O15   O     O_R   0.032920 0.562940 0.138050 -0.551073
O16   O     O_R   0.967080 0.062940 0.861950 -0.551027
O17   O     O_R   0.084790 0.730500 0.002090 -0.559781
O18   O     O_R   0.915210 0.230500 0.997910 -0.559743
C51   C     C_R   0.045288 0.394427 0.174326 0.880439
C52   C     C_R   0.954711 0.894422 0.825674 0.880456
O19   O     O_3   0.016820 0.396170 0.955260 -0.281220
O20   O     O_3   0.983180 0.896170 0.044740 -0.281236
V3    V     V_3+5 0.996880 0.672090 0.008300 1.240125
V4    V     V_3+5 0.003120 0.172090 0.991700 1.240179
N1    N     N_R   0.823334 0.990589 0.747019 0.056950
O21   O     O_R   0.789222 0.138780 0.719789 -0.359715
O22   O     O_R   0.827041 0.919911 0.828792 -0.336289
N2    N     N_R   0.176690 0.490319 0.252935 0.056934
O23   O     O_R   0.210828 0.638487 0.280109 -0.359732
O24   O     O_R   0.172963 0.419495 0.171185 -0.336212
N3    N     N_R   0.217259 0.064228 0.043984 0.088620
O25   O     O_R   0.200203 0.215100 0.995334 -0.365280
O26   O     O_R   0.261672 0.072327 0.123401 -0.339328
N4    N     N_R   0.782736 0.564195 0.955968 0.088583
O27   O     O_R   0.799793 0.715117 0.004579 -0.365288
O28   O     O_R   0.738321 0.572220 0.876549 -0.339346
O29   O     O_3   0.317534 0.563704 0.067038 -0.675895
H23   H     H_    0.287233 0.484494 0.087657 0.373076
O30   O     O_3   0.682470 0.063677 0.932988 -0.675916
H24   H     H_    0.712771 0.984466 0.912373 0.373060

loop_
_geom_bond_atom_site_label_1
_geom_bond_atom_site_label_2
_geom_bond_distance
_ccdc_geom_bond_type
C39   C43   1.404040 A    
C15   C45   1.395167 A    
O29   H23   0.991332 S    
C18   C26   1.400846 A    
O2    C4    1.330457 A    
C2    O7    1.337687 A    
O19   V4    1.757306 S    
O18   V4    2.007796 S    
C23   C25   1.419956 A    
O5    C3    1.328710 A    
N3    O26   1.301544 A    
C19   H15   1.083734 S    
C5    C9    1.503372 S    
C33   H5    1.084439 S    
C6    C10   1.503364 S    
O12   V3    2.028847 S    
C48   H8    1.077737 S    
C10   C12   1.355484 D    
C14   C51   1.461303 S    
C13   C52   1.461305 S    
O14   C50   1.327982 A    
O11   C51   1.322990 A    
C8    C49   1.491157 S    
N4    O27   1.300914 A    
C46   H10   1.083530 S    
C44   C46   1.391638 A    
C29   C31   1.412693 A    
C32   H18   1.076525 S    
C20   H16   1.083736 S    
C5    C7    1.355050 D    
C44   H22   1.084043 S    
C28   C30   1.429536 A    
O11   V4    2.028829 S    
O1    C3    1.330458 A    
C41   C47   1.415395 A    
C18   C20   1.388458 A    
C1    C16   1.460010 S    
C28   C36   1.411557 A    
C32   C34   1.387208 A    
C2    C15   1.460003 S    
C10   O30   1.382541 S    
O6    V2    2.018071 S    
C49   O18   1.335411 A    
C30   C42   1.430399 A    
C25   C33   1.392973 A    
C36   C38   1.386879 A    
O16   C52   1.325438 A    
C38   C40   1.392251 A    
C37   C39   1.392249 A    
C42   C48   1.415403 A    
C47   H7    1.077745 S    
C43   C45   1.391643 A    
O13   C49   1.327977 A    
C15   C47   1.398049 A    
C16   C48   1.398055 A    
O4    C2    1.338232 A    
C7    C50   1.491156 S    
C23   C27   1.432621 A    
O5    V1    2.018046 S    
C3    C12   1.482175 S    
C5    H1    1.085695 S    
C40   C44   1.404033 A    
O15   V3    2.025919 S    
C35   C37   1.386882 A    
O4    V2    2.025963 S    
C27   C29   1.429537 A    
N1    O21   1.301437 A    
C50   O17   1.335412 A    
O6    C4    1.328709 A    
C29   C41   1.430395 A    
O20   V3    1.757297 S    
O1    V2    2.007596 S    
O12   C52   1.322982 A    
O17   V3    2.007785 S    
N2    O24   1.301454 A    
O2    V1    2.007588 S    
C34   H6    1.084438 S    
C26   C34   1.392975 A    
C7    N3    1.439356 S    
C17   H13   1.084103 S    
N1    O22   1.301451 A    
C18   H14   1.084097 S    
C39   C41   1.420363 A    
C31   H17   1.076529 S    
C37   H11   1.084338 S    
C21   N1    1.439394 S    
O3    V1    2.025995 S    
O30   H24   0.991326 S    
C45   H9    1.083533 S    
C6    H2    1.085694 S    
C43   H21   1.084048 S    
O3    C1    1.338227 A    
N4    O28   1.301546 A    
C11   H3    1.084216 S    
C9    O29   1.382541 S    
N3    O25   1.300916 A    
C13   C19   1.394886 A    
C12   H4    1.084218 S    
C14   C20   1.394881 A    
C4    C11   1.482173 S    
C17   C25   1.400842 A    
O7    V1    2.021147 S    
C16   C46   1.395168 A    
C1    O8    1.337695 A    
C21   C23   1.428400 A    
O8    V2    2.021128 S    
C31   C33   1.387206 A    
C22   C24   1.428396 A    
C27   C35   1.411572 A    
C24   C26   1.419943 A    
C17   C19   1.388454 A    
C40   C42   1.420354 A    
C6    C8    1.355044 D    
C9    C11   1.355483 D    
O15   C51   1.325427 A    
N2    O23   1.301439 A    
O14   V4    2.018157 S    
C35   H19   1.077554 S    
O13   V3    2.018139 S    
C30   C32   1.412678 A    
C24   C28   1.432619 A    
C38   H12   1.084335 S    
C22   N2    1.439386 S    
O9    V2    1.758047 S    
C13   C21   1.412479 A    
O10   V1    1.758038 S    
C14   C22   1.412477 A    
C36   H20   1.077550 S    
O16   V4    2.025884 S    
C8    N4    1.439358 S    
