data_str_m9_o16_o19_f0_sra.sym.80
_audit_creation_date              2012-12-11T15:09:45-0500
_audit_creation_method            fapswitch 2.2
_symmetry_space_group_name_H-M    P1
_symmetry_Int_Tables_number       1
_space_group_crystal_system       triclinic
_cell_length_a                    20.894636
_cell_length_b                    7.129014
_cell_length_c                    14.028062
_cell_angle_alpha                 90.000178
_cell_angle_beta                  98.058118
_cell_angle_gamma                 90.000094
_cell_volume                      2068.9623594

loop_
_atom_site_label
_atom_site_type_symbol
_atom_type_description
_atom_site_fract_x
_atom_site_fract_y
_atom_site_fract_z
_atom_type_partial_charge
O1    O     O_R   0.447130 0.507140 0.597350 -0.539948
O2    O     O_R   0.552870 0.007140 0.402650 -0.539950
O3    O     O_R   0.578910 0.181280 0.586990 -0.540073
O4    O     O_R   0.421090 0.681280 0.413010 -0.540070
C1    C     C_R   0.604441 0.344456 0.607513 0.727211
C2    C     C_R   0.395560 0.844456 0.392485 0.727223
O5    O     O_R   0.449230 0.177860 0.608640 -0.536277
O6    O     O_R   0.550770 0.677860 0.391360 -0.536277
O7    O     O_R   0.422260 0.000770 0.424450 -0.534872
O8    O     O_R   0.577740 0.500770 0.575550 -0.534872
C3    C     C_R   0.432966 0.346141 0.634836 0.690186
C4    C     C_R   0.567034 0.846141 0.365164 0.690191
O9    O     O_3   0.491310 0.336980 0.439550 -0.374425
O10   O     O_3   0.508690 0.836980 0.560450 -0.374423
V1    V     V_3+5 0.501610 0.064760 0.511210 1.424503
V2    V     V_3+5 0.498390 0.564760 0.488790 1.424508
C5    C     C_R   0.620662 0.822767 0.121559 -0.160094
C6    C     C_R   0.379340 0.322822 0.878443 -0.160094
H1    H     H_    0.529023 0.812163 0.173836 0.106107
H2    H     H_    0.470978 0.312215 0.826165 0.106106
H3    H     H_    0.705242 0.832139 0.997726 0.124275
H4    H     H_    0.294760 0.332228 0.002277 0.124274
H5    H     H_    0.598789 0.810063 0.047077 0.114458
H6    H     H_    0.401213 0.310146 0.952926 0.114459
C7    C     C_R   0.607805 0.851866 0.288971 -0.052680
C8    C     C_R   0.392195 0.351868 0.711028 -0.052673
C9    C     C_R   0.922255 0.845924 0.305597 -0.230221
C10   C     C_R   0.077745 0.345887 0.694406 -0.230231
C11   C     C_R   0.886442 0.816679 0.380213 -0.205304
C12   C     C_R   0.113558 0.316622 0.619793 -0.205283
C13   C     C_R   0.818212 0.808919 0.363406 0.411851
C14   C     C_R   0.181789 0.308877 0.636600 0.411837
C15   C     C_R   0.785691 0.837119 0.267552 0.000871
C16   C     C_R   0.214310 0.337111 0.732451 0.000866
C17   C     C_R   0.823693 0.850726 0.190735 0.011792
C18   C     C_R   0.176308 0.350741 0.809267 0.011793
C19   C     C_R   0.716673 0.844223 0.243963 0.089748
C20   C     C_R   0.283327 0.344227 0.756039 0.089750
C21   C     C_R   0.688079 0.833607 0.145878 0.132796
C22   C     C_R   0.311922 0.333646 0.854124 0.132796
C23   C     C_R   0.726714 0.836763 0.072676 -0.198761
C24   C     C_R   0.273288 0.336825 0.927326 -0.198758
C25   C     C_R   0.793236 0.851505 0.094532 -0.167173
C26   C     C_R   0.206765 0.351554 0.905470 -0.167171
C27   C     C_R   0.674677 0.867930 0.313624 -0.168523
C28   C     C_R   0.325322 0.367914 0.686375 -0.168519
C29   C     C_R   0.580849 0.826192 0.193171 -0.170025
C30   C     C_R   0.419152 0.326228 0.806831 -0.170027
C31   C     C_R   0.891772 0.858210 0.211136 -0.067503
C32   C     C_R   0.108229 0.358208 0.788866 -0.067499
H7    H     H_    0.692159 0.903532 0.387143 0.146129
H8    H     H_    0.307839 0.403494 0.612853 0.146114
H9    H     H_    0.974554 0.848876 0.321147 0.120133
H10   H     H_    0.025446 0.348820 0.678856 0.120131
H11   H     H_    0.912957 0.791820 0.450921 0.113470
H12   H     H_    0.087043 0.291726 0.549089 0.113481
H13   H     H_    0.820774 0.858903 0.034762 0.121389
H14   H     H_    0.179227 0.358970 0.965239 0.121386
C33   C     C_1   0.166784 0.857344 0.167839 -0.202457
C34   C     C_1   0.833217 0.357342 0.832158 -0.202492
C35   C     C_1   0.219294 0.855180 0.218674 -0.007131
C36   C     C_1   0.780707 0.355178 0.781321 -0.007143
C37   C     C_1   0.281044 0.853335 0.278669 0.005671
C38   C     C_1   0.718958 0.353336 0.721324 0.005739
C39   C     C_1   0.333318 0.850882 0.330127 -0.206208
C40   C     C_1   0.666683 0.350884 0.669869 -0.206215
O11   O     O_R   0.922300 0.202240 0.924350 -0.532509
O12   O     O_R   0.077700 0.702240 0.075650 -0.532510
O13   O     O_R   0.050780 0.535130 0.891350 -0.540777
O14   O     O_R   0.949220 0.035130 0.108650 -0.540775
C41   C     C_R   0.067532 0.368028 0.865525 0.698672
C42   C     C_R   0.932468 0.868028 0.134476 0.698671
O15   O     O_R   0.921100 0.531560 0.912990 -0.540083
O16   O     O_R   0.078900 0.031560 0.087010 -0.540084
O17   O     O_R   0.947120 0.708470 0.097370 -0.537190
O18   O     O_R   0.052880 0.208470 0.902630 -0.537189
C43   C     C_R   0.895829 0.363597 0.893565 0.717590
C44   C     C_R   0.104171 0.863598 0.106434 0.717583
O19   O     O_3   0.008710 0.375800 0.060400 -0.374254
O20   O     O_3   0.991290 0.875800 0.939600 -0.374253
V3    V     V_3+5 0.998380 0.648080 0.988790 1.422068
V4    V     V_3+5 0.001620 0.148080 0.011210 1.422067
O21   O     O_3   0.783801 0.741163 0.434382 -0.580158
C45   C     C_3   0.806447 0.814096 0.526852 0.035735
H15   H     H_    0.822152 0.963350 0.523644 0.114656
H16   H     H_    0.847306 0.726429 0.561286 0.136379
C46   C     C_3   0.752065 0.804750 0.589136 -0.281862
H17   H     H_    0.713029 0.904298 0.560922 0.180450
H18   H     H_    0.731434 0.661001 0.585997 0.212135
C47   C     C_3   0.776564 0.854238 0.693729 -0.807678
H19   H     H_    0.813320 0.750756 0.725133 0.232148
H20   H     H_    0.735660 0.852578 0.736437 0.232019
H21   H     H_    0.798576 0.996147 0.698169 0.233730
O22   O     O_3   0.216199 0.241089 0.565630 -0.580146
C48   C     C_3   0.193571 0.314080 0.473165 0.035693
H22   H     H_    0.177916 0.463376 0.476385 0.114681
H23   H     H_    0.152682 0.226528 0.438729 0.136355
C49   C     C_3   0.247944 0.304572 0.410871 -0.281855
H24   H     H_    0.287022 0.403977 0.439088 0.180456
H25   H     H_    0.268514 0.160755 0.413991 0.212145
C50   C     C_3   0.223458 0.354157 0.306286 -0.807676
H26   H     H_    0.186636 0.250852 0.274888 0.232136
H27   H     H_    0.264352 0.352282 0.263561 0.232019
H28   H     H_    0.201530 0.496177 0.301861 0.233741

loop_
_geom_bond_atom_site_label_1
_geom_bond_atom_site_label_2
_ccdc_geom_bond_type
C14   O22   S    
C46   H17   S    
C37   C39   T    
C50   H26   S    
C9    C11   A    
C48   H22   S    
O11   C43   A    
C45   C46   S    
O2    C4    A    
C2    O7    A    
C48   C49   S    
O3    V1    S    
C21   C23   A    
O5    C3    A    
C5    H5    S    
C6    H6    S    
O12   V3    S    
C20   C22   A    
C45   H16   S    
C41   O18   A    
H1    C29   S    
C27   H7    S    
C28   H8    S    
C13   O21   S    
C34   C36   T    
C5    C21   A    
O13   C41   A    
C6    C22   A    
C36   C38   S    
C10   C32   A    
C2    C39   S    
C26   H14   S    
C31   C42   S    
O1    C3    A    
C17   C31   A    
C13   C15   A    
C17   C25   A    
C7    C29   A    
C8    C30   A    
O5    V1    S    
O6    V2    S    
C23   C25   A    
C24   C26   A    
O16   V4    S    
C42   O17   A    
C33   C44   S    
O15   V3    S    
O12   C44   A    
C34   C43   S    
C33   C35   T    
C45   H15   S    
O20   V4    S    
O18   V4    S    
O19   V3    S    
C10   H10   S    
O17   V3    S    
C11   H11   S    
C3    C8    S    
C12   H12   S    
C15   C19   A    
C14   C16   A    
O4    V2    S    
C32   C41   S    
C47   H20   S    
O21   C45   S    
O6    C4    A    
C35   C37   S    
C25   H13   S    
O1    V2    S    
O2    V1    S    
H2    C30   S    
H3    C23   S    
O4    C2    A    
C50   H28   S    
C49   H25   S    
C46   H18   S    
C18   C26   A    
C19   C27   A    
C7    C27   A    
C18   C32   A    
C47   H21   S    
C50   H27   S    
C48   H23   S    
C16   C20   A    
C5    C29   A    
O20   V3    S    
O3    C1    A    
C6    C30   A    
O19   V4    S    
C9    H9    S    
O9    V2    S    
C49   C50   S    
C4    C7    S    
C10   C12   A    
O7    V1    S    
C1    O8    A    
C19   C21   A    
O8    V2    S    
C1    C40   S    
C12   C14   A    
C47   H19   S    
H4    C24   S    
C22   C24   A    
C15   C17   A    
C16   C18   A    
O22   C48   S    
O14   V4    S    
C20   C28   A    
O13   V3    S    
C8    C28   A    
O11   V4    S    
C11   C13   A    
C49   H24   S    
O16   C44   A    
C46   C47   S    
O15   C43   A    
O10   V1    S    
O14   C42   A    
C9    C31   A    
C38   C40   T    
