data_str_m9_o2_o19_f0_sra.sym.39
_audit_creation_date              2012-12-11T16:28:26-0500
_audit_creation_method            fapswitch 2.2
_symmetry_space_group_name_H-M    P1
_symmetry_Int_Tables_number       1
_space_group_crystal_system       triclinic
_cell_length_a                    16.614659
_cell_length_b                    7.256047
_cell_length_c                    15.171799
_cell_angle_alpha                 89.983644
_cell_angle_beta                  94.823381
_cell_angle_gamma                 90.120203
_cell_volume                      1822.58131662

loop_
_atom_site_label
_atom_site_type_symbol
_atom_type_description
_atom_site_fract_x
_atom_site_fract_y
_atom_site_fract_z
_atom_type_partial_charge
O1    O     O_R   0.663460 0.361760 0.165970 -0.532083
O2    O     O_R   0.336540 0.638240 0.834030 -0.532307
O3    O     O_R   0.836540 0.861760 0.334030 -0.533355
O4    O     O_R   0.163460 0.138240 0.665970 -0.532182
O5    O     O_R   0.827100 0.689870 0.163730 -0.535856
O6    O     O_R   0.172900 0.310130 0.836270 -0.535790
O7    O     O_R   0.672900 0.189870 0.336270 -0.533856
O8    O     O_R   0.327100 0.810130 0.663730 -0.533926
H1    H     H_    0.208443 0.916531 0.494665 0.110481
H2    H     H_    0.792263 0.098804 0.504975 0.114182
H3    H     H_    0.289509 0.555399 0.002287 0.107420
H4    H     H_    0.710309 0.430738 0.998646 0.111894
C1    C     C_R   0.853296 0.523070 0.143574 0.705643
C2    C     C_R   0.146700 0.476924 0.856421 0.708754
C3    C     C_R   0.646731 0.022831 0.356440 0.707148
C4    C     C_R   0.353289 0.977172 0.643584 0.707466
O9    O     O_R   0.663490 0.691370 0.155500 -0.536305
O10   O     O_R   0.336510 0.308630 0.844500 -0.535835
O11   O     O_R   0.836510 0.191370 0.344500 -0.534837
O12   O     O_R   0.163490 0.808630 0.655500 -0.535058
O13   O     O_R   0.671770 0.863320 0.325740 -0.531634
O14   O     O_R   0.328230 0.136680 0.674260 -0.533421
O15   O     O_R   0.828230 0.363320 0.174260 -0.531216
O16   O     O_R   0.171770 0.636680 0.825740 -0.532172
C5    C     C_R   0.636585 0.522660 0.133300 0.677993
C6    C     C_R   0.363703 0.477148 0.866362 0.680041
C7    C     C_R   0.863609 0.022968 0.366479 0.677960
C8    C     C_R   0.136123 0.977128 0.633836 0.680106
O17   O     O_3   0.752910 0.528800 0.305860 -0.372601
O18   O     O_3   0.247090 0.471200 0.694140 -0.373005
O19   O     O_3   0.747090 0.028800 0.194140 -0.374620
O20   O     O_3   0.252910 0.971200 0.805860 -0.374266
V1    V     V_3+5 0.749460 0.803010 0.239640 1.434110
V2    V     V_3+5 0.250540 0.196990 0.760360 1.431809
V3    V     V_3+5 0.750540 0.303010 0.260360 1.441466
V4    V     V_3+5 0.249460 0.696990 0.739640 1.436911
C9    C     C_1   0.468859 0.994925 0.530164 0.008962
C10   C     C_1   0.531208 0.005130 0.469922 0.016357
C11   C     C_1   0.031165 0.494575 0.969878 0.016112
C12   C     C_1   0.968827 0.505372 0.030111 0.014590
H5    H     H_    0.773845 0.155713 0.659220 0.143340
H6    H     H_    0.228340 0.878602 0.339882 0.109020
H7    H     H_    0.730259 0.338423 0.848454 0.152486
H8    H     H_    0.268413 0.624557 0.154525 0.110182
C13   C     C_R   0.025297 0.946052 0.319812 -0.143034
C14   C     C_R   0.974983 0.064176 0.680203 -0.174956
C15   C     C_R   0.473170 0.590101 0.176380 -0.140599
C16   C     C_R   0.526605 0.395434 0.824581 -0.180485
C17   C     C_R   0.102660 0.911496 0.294186 0.253032
C18   C     C_R   0.898042 0.109091 0.705148 0.253873
C19   C     C_R   0.394889 0.617412 0.200792 0.252635
C20   C     C_R   0.604619 0.354568 0.801718 0.254191
C21   C     C_R   0.167834 0.902090 0.358588 -0.151508
C22   C     C_R   0.833434 0.121150 0.640622 -0.110013
C23   C     C_R   0.329520 0.604691 0.136695 -0.154068
C24   C     C_R   0.669705 0.368565 0.865651 -0.117545
C25   C     C_R   0.155828 0.924509 0.447702 -0.169749
C26   C     C_R   0.844735 0.088864 0.552029 -0.191604
C27   C     C_R   0.342199 0.564813 0.049112 -0.167210
C28   C     C_R   0.657608 0.421355 0.951843 -0.195470
C29   C     C_R   0.078090 0.959728 0.475066 0.066420
C30   C     C_R   0.921857 0.045357 0.525135 0.069498
C31   C     C_R   0.420828 0.534000 0.023253 0.066406
C32   C     C_R   0.579362 0.460455 0.976798 0.070675
C33   C     C_R   0.011523 0.971797 0.409777 0.013518
C34   C     C_R   0.988355 0.032489 0.590511 0.031866
C35   C     C_R   0.487670 0.546937 0.088185 0.010924
C36   C     C_R   0.512511 0.447457 0.911845 0.030545
C37   C     C_R   0.066432 0.987644 0.565595 -0.146466
C38   C     C_R   0.933227 0.013419 0.434821 -0.145888
C39   C     C_R   0.433274 0.486490 0.934790 -0.146706
C40   C     C_R   0.567105 0.512274 0.064803 -0.146469
C41   C     C_1   0.416036 0.986471 0.581499 -0.187643
C42   C     C_1   0.584013 0.013559 0.418565 -0.178600
C43   C     C_1   0.083970 0.485849 0.918539 -0.183898
C44   C     C_1   0.916023 0.514121 0.081453 -0.184314
N1    N     N_3   0.114008 0.890024 0.202031 -0.665970
H9    H     H_    0.175335 0.874491 0.193120 0.220466
H10   H     H_    0.085441 0.767463 0.180706 0.225437
N2    N     N_3   0.884598 0.144556 0.795818 -0.675885
H11   H     H_    0.847203 0.039780 0.816506 0.224400
H12   H     H_    0.938855 0.136248 0.835871 0.229942
N3    N     N_3   0.382974 0.654067 0.291664 -0.665714
H13   H     H_    0.321397 0.652783 0.301057 0.220165
H14   H     H_    0.404163 0.787393 0.306043 0.226077
N4    N     N_3   0.618819 0.299268 0.713557 -0.670924
H15   H     H_    0.636766 0.161244 0.716497 0.219662
H16   H     H_    0.565182 0.303912 0.672288 0.230388
H17   H     H_    0.976491 0.955272 0.268059 0.120794
H18   H     H_    0.023974 0.054184 0.731656 0.105783
H19   H     H_    0.522216 0.599846 0.227867 0.121415
H20   H     H_    0.477225 0.384806 0.773580 0.106498

loop_
_geom_bond_atom_site_label_1
_geom_bond_atom_site_label_2
_ccdc_geom_bond_type
C26   C30   A    
C23   C27   A    
C8    C37   S    
O10   C6    A    
N1    H9    S    
C15   H19   S    
C30   C38   A    
O16   V4    S    
C32   C36   A    
H2    C26   S    
C14   C34   A    
H6    C21   S    
C10   C42   T    
N4    H16   S    
C34   C37   A    
O13   V1    S    
O3    V1    S    
O2    V4    S    
C33   C38   A    
C1    O15   A    
C35   C40   A    
O8    V4    S    
C2    O16   A    
C9    C41   T    
O5    V1    S    
O19   V1    S    
C11   C43   T    
C13   H17   S    
O5    C1    A    
O7    C3    A    
O8    C4    A    
O1    C5    A    
C6    C39   S    
O9    V1    S    
H3    C27   S    
C15   C35   A    
O4    C8    A    
O4    V2    S    
N1    H10   S    
O14   V2    S    
C31   C35   A    
C30   C34   A    
C4    C41   S    
H1    C25   S    
N2    H12   S    
C11   C12   S    
C21   C25   A    
N4    H15   S    
C15   C19   A    
O12   C8    A    
O6    V2    S    
O20   V2    S    
C9    C10   S    
C29   C33   A    
O6    C2    A    
N3    H13   S    
C1    C44   S    
C13   C17   A    
O2    C6    A    
C5    C40   S    
C18   C22   A    
C16   C36   A    
O10   V2    S    
C7    C38   S    
H4    C28   S    
N3    H14   S    
C31   C39   A    
O15   V3    S    
C13   C33   A    
C19   N3    S    
O11   C7    A    
O1    V3    S    
C22   C26   A    
C29   C37   A    
C14   C18   A    
C4    O14   A    
O7    V3    S    
N2    H11   S    
C18   N2    S    
C25   C29   A    
C14   H18   S    
O17   V3    S    
C27   C31   A    
O18   V4    S    
C28   C32   A    
O9    C5    A    
C2    C43   S    
C20   N4    S    
O11   V3    S    
H8    C23   S    
C3    O13   A    
C36   C39   A    
C17   C21   A    
O3    C7    A    
C17   N1    S    
C19   C23   A    
C32   C40   A    
H5    C22   S    
O12   V4    S    
C12   C44   T    
H7    C24   S    
C16   C20   A    
C3    C42   S    
C24   C28   A    
C16   H20   S    
C20   C24   A    
