data_str_m4_o1_o24_f0_acs.sym.36
_audit_creation_date              2012-12-11T14:52:37-0500
_audit_creation_method            fapswitch 2.2
_symmetry_space_group_name_H-M    P1
_symmetry_Int_Tables_number       1
_space_group_crystal_system       triclinic
_cell_length_a                    18.800677
_cell_length_b                    10.966885
_cell_length_c                    18.685779
_cell_angle_alpha                 89.777388
_cell_angle_beta                  91.595165
_cell_angle_gamma                 89.738302
_cell_volume                      3851.16052152

loop_
_atom_site_label
_atom_site_type_symbol
_atom_type_description
_atom_site_fract_x
_atom_site_fract_y
_atom_site_fract_z
_atom_type_partial_charge
C1    C     C_R   0.271840 0.042698 0.853208 0.541401
C2    C     C_R   0.699610 0.527978 0.036997 -0.147158
C3    C     C_3   0.996109 0.329620 0.073623 0.051767
C4    C     C_3   0.143776 0.780588 0.549743 -0.258334
C5    C     C_3   0.088759 0.838643 0.498536 -0.495513
C6    C     C_3   0.856191 0.778572 0.449901 -0.258325
C7    C     C_3   0.911395 0.835359 0.500803 -0.495713
C8    C     C_3   0.643755 0.280514 0.549758 -0.258325
C9    C     C_3   0.588719 0.338542 0.498561 -0.495536
C10   C     C_3   0.356192 0.278618 0.449898 -0.258304
C11   C     C_3   0.411387 0.335461 0.500794 -0.495660
C12   C     C_R   0.807756 0.040848 0.963732 -0.152813
C13   C     C_R   0.199298 0.028517 0.036881 -0.147057
C14   C     C_R   0.301140 0.528370 0.037376 -0.152484
C15   C     C_R   0.703740 0.511683 0.963419 -0.144657
C16   C     C_R   0.801162 0.028480 0.037393 -0.152710
C17   C     C_R   0.203423 0.012311 0.963292 -0.144611
C18   C     C_R   0.237097 0.560759 0.068977 0.031782
C19   C     C_R   0.751930 0.581231 0.924052 0.028921
C20   C     C_R   0.737108 0.060810 0.068988 0.031763
C21   C     C_R   0.725579 0.037752 0.144287 0.548675
C22   C     C_R   0.251945 0.081367 0.924033 0.028963
C23   C     C_R   0.178202 0.595905 0.025854 -0.145716
C24   C     C_R   0.792501 0.671442 0.957799 -0.136800
C25   C     C_R   0.678211 0.095922 0.025861 -0.145769
C26   C     C_R   0.292856 0.171053 0.957898 -0.136729
C27   C     C_R   0.183959 0.604082 0.952832 -0.142245
C28   C     C_R   0.789688 0.685435 0.030683 -0.138251
C29   C     C_R   0.683968 0.104091 0.952839 -0.142351
C30   C     C_R   0.290072 0.184899 0.030786 -0.138337
C31   C     C_R   0.249629 0.583135 0.921624 0.028404
C32   C     C_R   0.771846 0.542662 0.853219 0.541374
C33   C     C_R   0.744383 0.612348 0.071172 0.024574
C34   C     C_R   0.749639 0.083165 0.921633 0.028376
C35   C     C_R   0.244413 0.112282 0.071175 0.024570
C36   C     C_R   0.499840 0.720900 0.536602 -0.143340
C37   C     C_R   0.499437 0.720989 0.463394 -0.143243
C38   C     C_R   0.999810 0.220899 0.536593 -0.143339
C39   C     C_R   0.999404 0.220995 0.463385 -0.143261
C40   C     C_R   0.504860 0.830829 0.425706 0.037315
C41   C     C_R   0.494563 0.830749 0.573984 0.035527
C42   C     C_R   0.004848 0.330834 0.425701 0.037302
C43   C     C_R   0.225572 0.537732 0.144280 0.548716
C44   C     C_R   0.994551 0.330746 0.573979 0.035534
C45   C     C_R   0.503055 0.942186 0.462597 -0.128297
C46   C     C_R   0.496196 0.942152 0.536713 -0.129226
C47   C     C_R   0.003055 0.442187 0.462595 -0.128295
C48   C     C_R   0.996196 0.442150 0.536711 -0.129220
C49   C     C_R   0.438030 0.817058 0.862015 0.567503
C50   C     C_R   0.526703 0.822126 0.146175 0.545976
C51   C     C_R   0.938032 0.317058 0.862015 0.567485
C52   C     C_R   0.026705 0.322126 0.146174 0.545977
C53   C     C_R   0.209247 0.722844 0.516796 0.007639
C54   C     C_3   0.509743 0.732884 0.974674 -0.104601
C55   C     C_R   0.790350 0.722835 0.482979 0.008219
C56   C     C_R   0.709230 0.222783 0.516806 0.007626
C57   C     C_R   0.290351 0.222882 0.482980 0.008234
C58   C     C_R   0.207529 0.699750 0.444024 -0.091326
C59   C     C_R   0.791647 0.700875 0.555956 -0.091070
C60   C     C_R   0.707510 0.199700 0.444034 -0.091335
C61   C     C_R   0.291651 0.200905 0.555958 -0.091057
C62   C     C_R   0.256316 0.620247 0.413947 0.009551
C63   C     C_R   0.743186 0.621471 0.586249 0.009631
C64   C     C_R   0.756308 0.120229 0.413950 0.009561
C65   C     C_3   0.457920 0.722698 0.036816 -0.118755
C66   C     C_R   0.243188 0.121495 0.586248 0.009620
C67   C     C_R   0.319827 0.594268 0.450876 -0.147332
C68   C     C_R   0.679811 0.595833 0.549367 -0.146604
C69   C     C_R   0.819818 0.094237 0.450878 -0.147336
C70   C     C_R   0.179805 0.095901 0.549371 -0.146612
C71   C     C_R   0.326567 0.625304 0.522937 -0.143966
C72   C     C_R   0.673150 0.626638 0.477132 -0.144282
C73   C     C_R   0.826554 0.125243 0.522942 -0.143956
C74   C     C_R   0.173140 0.126741 0.477141 -0.144308
C75   C     C_R   0.269382 0.679382 0.558067 0.024478
C76   C     C_3   0.009749 0.232884 0.974673 -0.104638
C77   C     C_R   0.730369 0.679717 0.441806 0.024037
C78   C     C_R   0.769370 0.179330 0.558072 0.024501
C79   C     C_R   0.230366 0.179775 0.441808 0.024008
C80   C     C_R   0.260428 0.633958 0.850938 0.550602
C81   C     C_R   0.737984 0.641407 0.146425 0.556507
C82   C     C_R   0.760430 0.133963 0.850941 0.550565
C83   C     C_R   0.237986 0.141399 0.146424 0.556563
C84   C     C_R   0.268682 0.053241 0.649257 0.540815
C85   C     C_R   0.731212 0.052934 0.350859 0.541575
C86   C     C_R   0.768681 0.553240 0.649259 0.540836
C87   C     C_3   0.957927 0.222699 0.036814 -0.118775
C88   C     C_R   0.231212 0.552933 0.350861 0.541575
C89   C     C_R   0.469889 0.823606 0.646862 0.549212
C90   C     C_R   0.529970 0.823646 0.353025 0.538355
C91   C     C_R   0.969887 0.323605 0.646860 0.549218
C92   C     C_R   0.029967 0.323647 0.353023 0.538353
C93   C     C_R   0.274193 0.692735 0.636336 0.571344
C94   C     C_R   0.725679 0.692593 0.363454 0.570288
C95   C     C_R   0.774190 0.192720 0.636336 0.571350
C96   C     C_R   0.225684 0.192586 0.363451 0.570315
C97   C     C_3   0.445273 0.922341 0.037690 -0.127873
C98   C     C_R   0.307737 0.540762 0.963716 -0.152682
C99   C     C_3   0.496896 0.932392 0.974708 -0.109247
C100  C     C_3   0.945280 0.422342 0.037688 -0.127844
C101  C     C_3   0.996903 0.432392 0.974706 -0.109208
C102  C     C_3   0.406525 0.815044 0.999458 -0.140835
C103  C     C_3   0.548018 0.840027 0.011912 -0.110144
C104  C     C_3   0.906532 0.315045 0.999457 -0.140833
C105  C     C_3   0.048025 0.340026 0.011910 -0.110171
C106  C     C_3   0.458827 0.824821 0.938067 0.051167
C107  C     C_3   0.496102 0.829619 0.073625 0.051784
C108  C     C_3   0.958833 0.324820 0.938065 0.051190
Cr1   Cr    Cr6+3 0.229630 0.835900 0.747350 0.990679
Cr2   Cr    Cr6+3 0.614200 0.677120 0.250660 1.009160
Cr3   Cr    Cr6+3 0.885800 0.177120 0.749340 1.003151
Cr4   Cr    Cr6+3 0.114200 0.177120 0.250660 1.009132
Cr5   Cr    Cr6+3 0.770370 0.835900 0.252650 0.993069
Cr6   Cr    Cr6+3 0.729630 0.335900 0.747350 0.990664
Cr7   Cr    Cr6+3 0.270370 0.335900 0.252650 0.993071
Cr8   Cr    Cr6+3 0.387410 0.989850 0.750850 1.006914
Cr9   Cr    Cr6+3 0.612590 0.989850 0.249150 1.007096
Cr10  Cr    Cr6+3 0.887410 0.489850 0.750850 1.006945
Cr11  Cr    Cr6+3 0.112590 0.489850 0.249150 1.007132
Cr12  Cr    Cr6+3 0.385800 0.677120 0.749340 1.003179
H1    H     H_    0.347985 0.805014 0.992620 0.121245
H2    H     H_    0.637290 0.548771 0.575289 0.114765
H3    H     H_    0.862450 0.046891 0.425125 0.113796
H4    H     H_    0.137281 0.048850 0.575294 0.114773
H5    H     H_    0.374576 0.600329 0.552446 0.131777
H6    H     H_    0.625256 0.602083 0.447665 0.132723
H7    H     H_    0.874561 0.100247 0.552451 0.131768
H8    H     H_    0.125241 0.102225 0.447676 0.132747
H9    H     H_    0.419099 0.999457 0.065045 0.122457
H10   H     H_    0.513038 0.018171 0.948068 0.118343
H11   H     H_    0.919105 0.499458 0.065043 0.122540
H12   H     H_    0.606621 0.850053 0.018264 0.125224
H13   H     H_    0.013046 0.518169 0.948065 0.118383
H14   H     H_    0.536630 0.655180 0.948545 0.132585
H15   H     H_    0.442732 0.637043 0.063983 0.117386
H16   H     H_    0.036636 0.155179 0.948543 0.132484
H17   H     H_    0.942746 0.137045 0.063985 0.117380
H18   H     H_    0.359006 0.523873 0.940537 0.128427
H19   H     H_    0.662724 0.473836 0.067109 0.126713
H20   H     H_    0.859029 0.023983 0.940556 0.128456
H21   H     H_    0.162120 0.974795 0.066903 0.126799
H22   H     H_    0.345937 0.495199 0.069615 0.113136
H23   H     H_    0.847991 0.305020 0.992620 0.121218
H24   H     H_    0.672062 0.440788 0.938187 0.136040
H25   H     H_    0.845965 0.995352 0.069638 0.113096
H26   H     H_    0.171450 0.941867 0.937961 0.135807
H27   H     H_    0.126813 0.615313 0.048181 0.136949
H28   H     H_    0.829448 0.726928 0.928523 0.133548
H29   H     H_    0.626818 0.115304 0.048185 0.136941
H30   H     H_    0.330066 0.226188 0.928719 0.133612
H31   H     H_    0.137929 0.634688 0.921380 0.129806
H32   H     H_    0.822899 0.755139 0.055034 0.138870
H33   H     H_    0.637933 0.134667 0.921383 0.129787
H34   H     H_    0.106628 0.350048 0.018263 0.125242
H35   H     H_    0.323578 0.254164 0.055205 0.138697
H36   H     H_    0.499520 0.633112 0.563392 0.122547
H37   H     H_    0.499855 0.633307 0.436873 0.122408
H38   H     H_    0.999484 0.133110 0.563380 0.122542
H39   H     H_    0.999814 0.133317 0.436860 0.122417
H40   H     H_    0.508077 0.028242 0.434576 0.123662
H41   H     H_    0.491175 0.028180 0.564451 0.123536
H42   H     H_    0.008090 0.528242 0.434577 0.123676
H43   H     H_    0.991188 0.528177 0.564453 0.123528
H44   H     H_    0.114363 0.897989 0.458916 0.157830
H45   H     H_    0.162710 0.730685 0.411589 0.150893
H46   H     H_    0.057663 0.766862 0.470115 0.148313
H47   H     H_    0.052515 0.895945 0.530126 0.129775
H48   H     H_    0.115514 0.710019 0.580816 0.174718
H49   H     H_    0.161500 0.853279 0.586208 0.192302
H50   H     H_    0.886077 0.895735 0.540004 0.157430
H51   H     H_    0.942358 0.763024 0.529653 0.148827
H52   H     H_    0.947675 0.891616 0.468775 0.129568
H53   H     H_    0.884233 0.707015 0.419364 0.173908
H54   H     H_    0.838949 0.851610 0.412944 0.192953
H55   H     H_    0.614307 0.397877 0.458925 0.157794
H56   H     H_    0.836157 0.731895 0.588417 0.151151
H57   H     H_    0.557611 0.266751 0.470161 0.148310
H58   H     H_    0.552490 0.395854 0.530161 0.129786
H59   H     H_    0.615507 0.209940 0.580840 0.174734
H60   H     H_    0.661481 0.353222 0.586213 0.192298
H61   H     H_    0.386047 0.395831 0.539995 0.157455
H62   H     H_    0.442372 0.263151 0.529650 0.148811
H63   H     H_    0.447663 0.391751 0.468763 0.129539
H64   H     H_    0.384244 0.207055 0.419372 0.173871
H65   H     H_    0.338947 0.351634 0.412927 0.192970
H66   H     H_    0.662680 0.230618 0.411608 0.150914
H67   H     H_    0.336160 0.231917 0.588424 0.151141
H68   H     H_    0.362458 0.546913 0.425127 0.113803
O1    O     O_R   0.214270 0.709000 0.827470 -0.520364
O2    O     O_R   0.543270 0.717630 0.330160 -0.541027
O3    O     O_R   0.956730 0.217630 0.669840 -0.535899
O4    O     O_R   0.043270 0.217630 0.330160 -0.541024
O5    O     O_R   0.320620 0.625640 0.672920 -0.500915
O6    O     O_R   0.679380 0.625640 0.327080 -0.500630
O7    O     O_R   0.820620 0.125640 0.672920 -0.500923
O8    O     O_R   0.179380 0.125640 0.327080 -0.500627
O9    O     O_3   0.334280 0.834290 0.749180 -0.283926
O10   O     O_3   0.665720 0.834290 0.250820 -0.265242
O11   O     O_3   0.834280 0.334290 0.749180 -0.283929
O12   O     O_R   0.785730 0.709000 0.172530 -0.525356
O13   O     O_3   0.165720 0.334290 0.250820 -0.265237
O14   O     O_R   0.236160 0.958490 0.823130 -0.508915
O15   O     O_R   0.763840 0.958490 0.176870 -0.508436
O16   O     O_R   0.736160 0.458490 0.823130 -0.508972
O17   O     O_R   0.263840 0.458490 0.176870 -0.508393
O18   O     O_R   0.332080 0.075470 0.831280 -0.528554
O19   O     O_R   0.667920 0.075470 0.168720 -0.524608
O20   O     O_R   0.832080 0.575470 0.831280 -0.528453
O21   O     O_R   0.167920 0.575470 0.168720 -0.524595
O22   O     O_R   0.446300 0.918110 0.826620 -0.498134
O23   O     O_R   0.714270 0.209000 0.827470 -0.520428
O24   O     O_R   0.553700 0.918110 0.173380 -0.504010
O25   O     O_R   0.946300 0.418110 0.826620 -0.498123
O26   O     O_R   0.053700 0.418110 0.173380 -0.504000
O27   O     O_R   0.457110 0.716200 0.831760 -0.521228
O28   O     O_R   0.542890 0.716200 0.168240 -0.519138
O29   O     O_R   0.957110 0.216200 0.831760 -0.521244
O30   O     O_R   0.042890 0.216200 0.168240 -0.519188
O31   O     O_R   0.320980 0.624310 0.823030 -0.515861
O32   O     O_R   0.679020 0.624310 0.176970 -0.494399
O33   O     O_R   0.820980 0.124310 0.823030 -0.515858
O34   O     O_R   0.285730 0.209000 0.172530 -0.525374
O35   O     O_R   0.179020 0.124310 0.176970 -0.494456
O36   O     O_R   0.213890 0.710430 0.665540 -0.535560
O37   O     O_R   0.786110 0.710430 0.334460 -0.537110
O38   O     O_R   0.713890 0.210430 0.665540 -0.535571
O39   O     O_R   0.286110 0.210430 0.334460 -0.537129
O40   O     O_R   0.235810 0.959820 0.673020 -0.532097
O41   O     O_R   0.764190 0.959820 0.326980 -0.533537
O42   O     O_R   0.735810 0.459820 0.673020 -0.532072
O43   O     O_R   0.264190 0.459820 0.326980 -0.533550
O44   O     O_R   0.331700 0.076900 0.669350 -0.527198
O45   O     O_R   0.445950 0.919440 0.676520 -0.497619
O46   O     O_R   0.668300 0.076900 0.330650 -0.526903
O47   O     O_R   0.831700 0.576900 0.669350 -0.527208
O48   O     O_R   0.168300 0.576900 0.330650 -0.526888
O49   O     O_R   0.554050 0.919440 0.323480 -0.503959
O50   O     O_R   0.945950 0.419440 0.676520 -0.497616
O51   O     O_R   0.054050 0.419440 0.323480 -0.503957
O52   O     O_R   0.456730 0.717630 0.669840 -0.535900

loop_
_geom_bond_atom_site_label_1
_geom_bond_atom_site_label_2
_ccdc_geom_bond_type
C58   C62   A    
C99   C103  S    
C14   H22   S    
C92   O51   A    
Cr3   O3    S    
C76   C105  S    
C53   C58   A    
C55   C59   A    
C4    C53   S    
C43   O17   A    
C10   H64   S    
C80   O1    A    
C57   C79   A    
Cr7   O34   S    
Cr1   O9    S    
C11   H61   S    
C61   H67   S    
C6    C55   S    
Cr10  O25   S    
C1    O14   A    
C8    C56   S    
C80   O31   A    
C76   H16   S    
C100  H11   S    
C92   O4    A    
C31   C80   S    
C82   O33   A    
C45   C46   A    
C3    C105  S    
Cr12  O27   S    
C15   C19   A    
C45   H40   S    
C75   C93   S    
C62   C67   A    
C98   H18   S    
C2    H19   S    
C65   C102  S    
Cr1   O14   S    
C87   H17   S    
C13   C35   A    
C37   C40   A    
C7    H51   S    
C38   C39   A    
C55   C77   A    
C67   C71   A    
Cr2   O10   S    
C20   C25   A    
C69   H3    S    
C37   H37   S    
C54   H14   S    
C77   C94   S    
C100  C104  S    
C10   H65   S    
C56   C78   A    
C25   H29   S    
Cr3   O33   S    
C31   C98   A    
C89   O45   A    
C58   H45   S    
C14   C18   A    
Cr4   O8    S    
Cr8   O22   S    
C94   O37   A    
Cr3   O11   S    
C47   H42   S    
C3    C100  S    
C74   H8    S    
C6    C7    S    
C12   C16   A    
Cr1   O1    S    
C51   C108  S    
C46   H41   S    
Cr11  O13   S    
Cr8   O45   S    
C70   C74   A    
C27   H31   S    
C41   C46   A    
C12   H20   S    
C69   C73   A    
C13   H21   S    
C32   O20   A    
C102  H1    S    
Cr2   O32   S    
C103  H12   S    
Cr7   O43   S    
C97   C102  S    
C90   O49   A    
C16   C20   A    
Cr10  O20   S    
C83   O35   A    
Cr10  O50   S    
C101  C108  S    
Cr5   O15   S    
C105  H34   S    
Cr9   O49   S    
C1    C22   S    
C76   C108  S    
Cr2   O6    S    
C7    H52   S    
Cr8   O44   S    
C25   C29   A    
C83   O34   A    
C89   O52   A    
C36   C41   A    
C53   C75   A    
C11   H62   S    
Cr4   O13   S    
C81   O12   A    
C84   O44   A    
Cr10  O11   S    
C61   C66   A    
C54   C65   S    
C97   C99   S    
Cr1   O40   S    
C9    H55   S    
C38   C44   A    
C14   C98   A    
C39   C42   A    
C101  C105  S    
C40   C45   A    
C88   O48   A    
Cr11  O21   S    
C4    H49   S    
C54   C106  S    
C3    C87   S    
C18   C23   A    
C86   O42   A    
C96   O39   A    
C54   C103  S    
C26   H30   S    
C10   C57   S    
C11   H63   S    
C38   H38   S    
C59   H56   S    
C24   H28   S    
C68   H2    S    
C48   H43   S    
C35   C83   S    
C8    C9    S    
C6    H54   S    
C5    H46   S    
C73   C78   A    
C62   C88   S    
C29   C34   A    
Cr2   O2    S    
C51   O29   A    
C85   O46   A    
C72   H6    S    
C16   H25   S    
Cr6   O23   S    
C49   O22   A    
Cr2   O28   S    
C5    H44   S    
Cr7   O39   S    
C72   C77   A    
C2    C15   A    
C70   H4    S    
C32   O16   A    
Cr6   O38   S    
C8    H60   S    
Cr5   O37   S    
C47   C48   A    
C50   O28   A    
C78   C95   S    
C68   C72   A    
C86   O47   A    
C19   C32   S    
C52   O26   A    
Cr12  O9    S    
C104  H23   S    
C85   O41   A    
C64   C69   A    
Cr5   O41   S    
C1    O18   A    
C44   C91   S    
C76   C87   S    
C65   H15   S    
Cr1   O36   S    
Cr4   O4    S    
C50   O24   A    
C30   C35   A    
C2    C33   A    
C30   H35   S    
C60   H66   S    
Cr12  O52   S    
C28   C33   A    
C28   H32   S    
C23   C27   A    
Cr6   O11   S    
Cr7   O17   S    
C27   C31   A    
C50   C107  S    
Cr4   O35   S    
Cr6   O16   S    
C17   H26   S    
C12   C34   A    
C21   O15   A    
C84   O40   A    
C64   C85   S    
C104  C108  S    
C9    H57   S    
C67   H68   S    
C36   H36   S    
C29   H33   S    
C82   O23   A    
C90   O2    A    
Cr5   O10   S    
C99   C106  S    
C63   C68   A    
C36   C37   A    
C95   O7    A    
C99   H10   S    
C39   H39   S    
C41   C89   S    
C94   O6    A    
C4    H48   S    
C52   O30   A    
Cr9   O24   S    
C93   O5    A    
C24   C28   A    
Cr12  O5    S    
C4    C5    S    
Cr9   O19   S    
Cr6   O42   S    
C3    C52   S    
C57   C61   A    
C49   C106  S    
C6    H53   S    
C101  H13   S    
Cr3   O29   S    
C49   O27   A    
C59   C63   A    
C17   C22   A    
C13   C17   A    
C60   C64   A    
C21   O19   A    
C19   C24   A    
C95   O38   A    
C97   H9    S    
C79   C96   S    
C63   C86   S    
C73   H7    S    
C18   C43   S    
C23   H27   S    
C71   C75   A    
Cr8   O9    S    
C81   O32   A    
C8    H59   S    
Cr11  O51   S    
C66   C70   A    
C91   O3    A    
Cr9   O46   S    
Cr12  O31   S    
Cr7   O13   S    
C91   O50   A    
C100  C101  S    
C74   C79   A    
Cr5   O12   S    
C102  C106  S    
C93   O36   A    
C42   C92   S    
C42   C47   A    
C5    H47   S    
C43   O21   A    
C10   C11   S    
C9    H58   S    
C66   C84   S    
C87   C104  S    
C97   C107  S    
C56   C60   A    
Cr11  O48   S    
C96   O8    A    
C88   O43   A    
C20   C21   S    
Cr11  O26   S    
C15   H24   S    
C22   C26   A    
C7    H50   S    
Cr4   O30   S    
C51   O25   A    
C71   H5    S    
C103  C107  S    
C34   C82   S    
C40   C90   S    
Cr10  O47   S    
C33   C81   S    
C65   C107  S    
Cr8   O18   S    
Cr9   O10   S    
C44   C48   A    
Cr3   O7    S    
C26   C30   A    
