data_str_m2_o14_o22_f0_pcu.sym.18
_audit_creation_date              2013-03-05T15:51:22-0500
_audit_creation_method            fapswitch 2.2
_symmetry_space_group_name_H-M    P1
_symmetry_Int_Tables_number       1
_space_group_crystal_system       triclinic
_cell_length_a                    10.818618
_cell_length_b                    10.87001
_cell_length_c                    9.612257
_cell_angle_alpha                 86.726848
_cell_angle_beta                  89.227783
_cell_angle_gamma                 91.962355
_cell_volume                      1127.74608903

loop_
_atom_site_label
_atom_site_type_symbol
_atom_site_description
_atom_site_fract_x
_atom_site_fract_y
_atom_site_fract_z
_atom_type_partial_charge
O1    O     O_R   0.499990 0.319640 0.618810 -0.495039
O2    O     O_R   0.500000 0.319660 0.381240 -0.588117
C1    C     C_R   0.491191 0.261756 0.504413 0.778103
O3    O     O_R   0.317680 0.499970 0.618790 -0.587327
O4    O     O_R   0.317700 0.499990 0.381210 -0.567057
C2    C     C_R   0.260034 0.499292 0.500119 0.831692
Cu1   Cu    Cu3+1 0.499990 0.499990 0.640660 1.015735
Cu2   Cu    Cu3+1 0.500010 0.500010 0.359340 0.972602
O5    O     O_R   0.500000 0.680340 0.618760 -0.621104
O6    O     O_R   0.500010 0.680360 0.381190 -0.564826
O7    O     O_R   0.682300 0.500010 0.618790 -0.564573
O8    O     O_R   0.682320 0.500030 0.381210 -0.613364
C3    C     C_R   0.501510 0.737301 0.496447 0.748455
C4    C     C_R   0.739429 0.494156 0.499756 0.776713
C5    C     C_3   0.071193 0.541046 0.636358 -0.474264
H1    H     H_    0.100660 0.638440 0.646043 0.170736
H2    H     H_    0.110963 0.488269 0.726734 0.244200
C6    C     C_3   0.929308 0.529203 0.643270 0.166097
H3    H     H_    0.895117 0.622858 0.660056 0.090055
H4    H     H_    0.900746 0.679324 0.413622 0.192281
C7    C     C_3   0.071991 0.578087 0.373107 0.223421
C8    C     C_3   0.068282 0.358626 0.486186 -0.065693
C9    C     C_3   0.121646 0.494779 0.497910 -0.061356
H5    H     H_    0.079509 0.309606 0.589175 0.224096
C10   C     C_3   0.877158 0.489508 0.498635 -0.029840
C11   C     C_3   0.929583 0.586604 0.385914 -0.503458
C12   C     C_3   0.924660 0.359231 0.462857 -0.016204
H6    H     H_    0.881023 0.287325 0.535660 0.193665
H7    H     H_    0.091545 0.531325 0.275545 0.136615
H8    H     H_    0.888950 0.573205 0.282135 0.200393
H9    H     H_    0.653268 0.128313 0.383458 0.147528
C13   C     C_R   0.295026 0.093246 0.666762 0.316738
C14   C     C_R   0.191367 0.017172 0.704432 -0.163434
H10   H     H_    0.117359 0.050448 0.767694 0.190095
C15   C     C_R   0.188225 0.894237 0.677153 -0.152083
H11   H     H_    0.109955 0.835918 0.713156 0.154883
C16   C     C_R   0.287962 0.845487 0.610494 -0.060822
H12   H     H_    0.282702 0.748301 0.593716 0.154500
C17   C     C_R   0.389546 0.921297 0.560840 0.075292
C18   C     C_R   0.391415 0.049676 0.581363 -0.034046
C19   C     C_R   0.487903 0.126006 0.513187 -0.071993
C20   C     C_R   0.580348 0.071817 0.435935 -0.144342
H13   H     H_    0.658164 0.905449 0.372379 0.133333
C21   C     C_R   0.582366 0.945180 0.427196 -0.202095
C22   C     C_R   0.489027 0.870026 0.491010 -0.032799
H14   H     H_    0.339950 0.386433 0.138762 0.148326
C23   C     C_R   0.668301 0.656891 0.132951 -0.144373
H15   H     H_    0.668491 0.669808 0.241492 0.189185
C24   C     C_R   0.753561 0.731910 0.056092 -0.176809
H16   H     H_    0.816393 0.793205 0.108200 0.163560
C25   C     C_R   0.755655 0.731263 0.912784 -0.143207
H17   H     H_    0.820337 0.792036 0.852710 0.143895
C26   C     C_R   0.672441 0.655682 0.845539 -0.084573
H18   H     H_    0.677560 0.668874 0.735480 0.171104
C27   C     C_R   0.586637 0.573997 0.919720 0.230440
C28   C     C_R   0.585370 0.574783 0.069298 0.214548
N1    N     N_R   0.501200 0.501210 0.147910 -0.206903
C29   C     C_R   0.412355 0.437687 0.079637 -0.009913
H19   H     H_    0.331498 0.403797 0.883633 0.218288
C30   C     C_R   0.409939 0.442498 0.932394 0.029110
N2    N     N_R   0.501250 0.501290 0.852040 -0.206956
C31   C     C_3   0.884630 0.318853 0.317306 -0.792069
H20   H     H_    0.930402 0.376253 0.231219 0.265318
H21   H     H_    0.907155 0.221297 0.304695 0.234610
H22   H     H_    0.783241 0.321669 0.305236 0.249829
N3    N     N_R   0.313111 0.197417 0.747265 0.100227
O9    O     O_R   0.217216 0.261159 0.774888 -0.452670
O10   O     O_R   0.402778 0.193625 0.836185 -0.347180
N4    N     N_R   0.890239 0.449718 0.767043 0.146824
O11   O     O_R   0.915624 0.486411 0.890336 -0.370109
O12   O     O_R   0.830602 0.344536 0.758233 -0.358123
N5    N     N_R   0.133581 0.701047 0.358551 0.106656
O13   O     O_R   0.088272 0.794133 0.418767 -0.408317
O14   O     O_R   0.220387 0.722676 0.264415 -0.339249
C32   C     C_3   0.140388 0.280733 0.384885 -0.814316
H23   H     H_    0.141037 0.322469 0.276896 0.248127
H24   H     H_    0.237225 0.270894 0.418666 0.219050
H25   H     H_    0.099580 0.185573 0.386380 0.252277

loop_
_geom_bond_atom_site_label_1
_geom_bond_atom_site_label_2
_geom_bond_distance
_ccdc_geom_bond_type
C5    C6    1.536213 S    
N3    O10   1.301670 A    
C27   C28   1.438182 A    
H9    C20   1.083805 S    
C19   C20   1.403172 A    
C15   H11   1.081182 S    
C7    C11   1.550263 S    
Cu1   Cu2   2.704105 S    
C23   C24   1.386698 A    
C26   H18   1.059891 S    
Cu1   O7    1.980686 S    
C31   H20   1.108193 S    
C15   C16   1.383815 A    
O4    C2    1.294278 A    
O7    C4    1.298896 A    
C29   C30   1.413941 A    
C5    H1    1.104545 S    
C28   N1    1.379253 A    
C5    H2    1.113097 S    
C6    H3    1.114533 S    
N4    O12   1.301019 A    
O5    C3    1.296761 A    
Cu1   N2    2.032922 S    
C31   H21   1.109133 S    
C24   C25   1.377810 A    
C17   C22   1.408466 A    
C6    N4    1.478074 S    
C5    C9    1.548396 S    
N3    O9    1.299885 A    
H19   C30   1.060946 S    
H14   C29   1.081178 S    
C6    C10   1.584401 S    
C20   C21   1.384788 A    
C8    C32   1.546760 S    
O3    Cu1   1.986323 S    
C26   C27   1.418423 A    
C7    N5    1.471440 S    
C25   H17   1.083240 S    
N5    O14   1.301406 A    
C17   C18   1.419958 A    
C10   C11   1.556099 S    
C7    H7    1.113120 S    
C30   N2    1.364065 A    
O1    C1    1.300701 A    
C32   H23   1.108673 S    
C16   H12   1.077423 S    
C12   C31   1.552749 S    
Cu2   N1    2.031481 S    
C23   H15   1.060663 S    
Cu2   O8    1.986323 S    
C14   H10   1.083272 S    
C32   H24   1.107843 S    
O3    C2    1.307667 A    
C18   C19   1.437941 A    
O8    C4    1.302930 A    
C11   H8    1.110676 S    
C8    C12   1.573062 S    
C7    C9    1.573013 S    
H13   C21   1.084066 S    
C8    H5    1.107308 S    
C21   C22   1.390289 A    
C13   N3    1.417124 S    
Cu1   O5    1.959686 S    
C1    C19   1.472379 S    
C31   H22   1.105839 S    
O1    Cu1   1.983512 S    
O2    Cu2   1.959686 S    
N5    O13   1.300902 A    
O6    C3    1.299561 A    
O4    Cu2   1.980686 S    
C10   C12   1.577483 S    
C13   C14   1.401398 A    
O2    C1    1.309499 A    
C16   C17   1.411947 A    
C3    C22   1.451660 S    
N1    C29   1.361843 A    
H4    C11   1.110860 S    
C2    C9    1.496768 S    
C27   N2    1.387844 A    
C14   C15   1.375773 A    
C13   C18   1.428536 A    
C4    C10   1.492536 S    
N4    O11   1.301646 A    
C32   H25   1.109921 S    
Cu2   O6    1.983513 S    
C24   H16   1.083112 S    
C12   H6    1.107644 S    
C8    C9    1.580706 S    
C25   C26   1.388856 A    
C23   C28   1.413584 A    
