data_str_m9_o4_o16_f0_sra.sym.57
_audit_creation_date              2012-12-11T17:00:21-0500
_audit_creation_method            fapswitch 2.2
_symmetry_space_group_name_H-M    P1
_symmetry_Int_Tables_number       1
_space_group_crystal_system       triclinic
_cell_length_a                    6.965957
_cell_length_b                    13.591305
_cell_length_c                    20.241568
_cell_angle_alpha                 103.10016
_cell_angle_beta                  90.067871
_cell_angle_gamma                 90.533626
_cell_volume                      1866.43442453

loop_
_atom_site_label
_atom_site_type_symbol
_atom_type_description
_atom_site_fract_x
_atom_site_fract_y
_atom_site_fract_z
_atom_type_partial_charge
O1    O     O_R   0.506770 0.599700 0.449550 -0.529568
O2    O     O_R   0.179980 0.595740 0.587960 -0.540501
O3    O     O_R   0.004580 0.400300 0.550450 -0.544238
C1    C     C_R   0.348113 0.615534 0.615739 0.724445
O4    O     O_R   0.177380 0.611700 0.452380 -0.535784
O5    O     O_R   0.001970 0.416370 0.413900 -0.546412
C2    C     C_R   0.347072 0.638734 0.436048 0.756202
O6    O     O_R   0.509390 0.583630 0.586100 -0.537976
O7    O     O_3   0.337530 0.435890 0.487530 -0.379462
V1    V     V_3+5 0.064660 0.511890 0.502310 1.470844
O8    O     O_R   0.671950 0.404260 0.412040 -0.541772
C3    C     C_R   0.840319 0.382647 0.384843 0.697268
O9    O     O_R   0.674540 0.388300 0.547620 -0.542660
C4    C     C_R   0.843250 0.362228 0.564540 0.688263
V2    V     V_3+5 0.564030 0.488110 0.497690 1.469206
O10   O     O_3   0.841030 0.564110 0.512470 -0.360401
C5    C     C_R   0.948891 0.117366 0.610668 -0.086627
H1    H     H_    0.937816 0.167877 0.517934 0.124151
H2    H     H_    0.994327 0.043316 0.583866 0.177893
C6    C     C_R   0.855292 0.284763 0.603688 -0.034881
C7    C     C_R   0.801991 0.312379 0.929415 -0.169801
C8    C     C_R   0.772355 0.386660 0.893506 -0.106111
C9    C     C_R   0.793761 0.364956 0.823294 -0.139422
C10   C     C_R   0.847926 0.267352 0.786876 0.073189
C11   C     C_R   0.884034 0.192486 0.824400 0.037348
C12   C     C_R   0.866754 0.241621 0.714665 0.045348
C13   C     C_R   0.927771 0.142745 0.681728 0.093962
C14   C     C_R   0.968750 0.071552 0.720304 0.142825
C15   C     C_R   0.944116 0.095956 0.790208 -0.232389
C16   C     C_R   0.829232 0.311255 0.673860 -0.201109
C17   C     C_R   0.914880 0.188109 0.572263 -0.165192
C18   C     C_R   0.857992 0.215605 0.895715 -0.062809
H3    H     H_    0.784687 0.387603 0.694860 0.093261
H4    H     H_    0.779726 0.330166 0.983800 0.111659
H5    H     H_    0.766908 0.426598 0.799367 0.125040
H6    H     H_    0.729872 0.461558 0.920214 0.139232
H7    H     H_    0.975609 0.038407 0.817747 0.136829
C19   C     C_R   0.715143 0.254321 0.202513 0.111081
C20   C     C_R   0.867611 0.187686 0.182855 -0.105667
C21   C     C_R   0.020532 0.192648 0.229208 -0.139414
H8    H     H_    0.141457 0.142815 0.216303 0.137631
C22   C     C_R   0.012403 0.256630 0.294563 -0.145325
H9    H     H_    0.128008 0.254886 0.329948 0.138395
C23   C     C_R   0.850554 0.316993 0.315627 -0.102405
C24   C     C_R   0.706682 0.317161 0.267250 0.134240
C25   C     C_3   0.495784 0.301200 0.271953 -0.387938
C26   C     C_3   0.504902 0.233180 0.201241 -0.382560
H10   H     H_    0.413972 0.371669 0.274013 0.204148
H11   H     H_    0.459252 0.259842 0.311807 0.201558
H12   H     H_    0.429031 0.264525 0.162353 0.185775
H13   H     H_    0.472753 0.152612 0.200022 0.187253
C27   C     C_R   0.508381 0.747799 0.706374 0.090048
C28   C     C_R   0.352246 0.683718 0.684104 -0.062012
C29   C     C_R   0.194340 0.688661 0.728263 -0.140531
H14   H     H_    0.072561 0.638662 0.713596 0.130747
C30   C     C_R   0.196825 0.753837 0.793244 -0.156095
H15   H     H_    0.078465 0.752210 0.827232 0.192257
C31   C     C_R   0.357057 0.815653 0.816002 -0.059843
C32   C     C_R   0.511192 0.811799 0.771039 0.043653
C33   C     C_3   0.715063 0.787099 0.781792 0.461328
C34   C     C_3   0.712096 0.718718 0.711354 -0.454463
H16   H     H_    0.813117 0.853468 0.787987 0.070830
H17   H     H_    0.727410 0.637181 0.710975 0.178513
H18   H     H_    0.803880 0.746077 0.674360 0.187502
C35   C     C_R   0.454297 0.885493 0.388462 -0.119667
H19   H     H_    0.500907 0.961151 0.413221 0.192224
C36   C     C_R   0.362155 0.717265 0.397301 -0.112814
C37   C     C_R   0.320495 0.684652 0.069602 -0.263808
C38   C     C_R   0.313659 0.607966 0.104590 -0.167598
C39   C     C_R   0.334653 0.629330 0.174942 0.623676
C40   C     C_R   0.357052 0.730882 0.212830 -0.037786
C41   C     C_R   0.375590 0.808301 0.175775 -0.087271
C42   C     C_R   0.369291 0.758546 0.285458 0.023672
C43   C     C_R   0.423186 0.859191 0.318013 -0.024128
C44   C     C_R   0.445677 0.932693 0.280093 0.599345
C45   C     C_R   0.417434 0.908098 0.210473 -0.243307
C46   C     C_R   0.327319 0.690816 0.327379 -0.167967
C47   C     C_R   0.430447 0.814303 0.427691 0.130020
C48   C     C_R   0.354752 0.784245 0.104239 -0.040340
H20   H     H_    0.266026 0.617051 0.307732 0.190450
H21   H     H_    0.304123 0.665886 0.014910 0.142890
H22   H     H_    0.295582 0.530463 0.076634 0.150649
H23   H     H_    0.433454 0.968072 0.183660 0.125236
O11   O     O_R   0.203450 0.916320 0.913910 -0.545679
O12   O     O_R   0.535520 0.888300 0.047620 -0.537221
O13   O     O_R   0.710860 0.083650 0.086100 -0.544445
C49   C     C_R   0.366228 0.861950 0.064508 0.711400
O14   O     O_R   0.532860 0.904250 0.912040 -0.518425
O15   O     O_R   0.708190 0.099710 0.949550 -0.540685
C50   C     C_R   0.364267 0.882207 0.884979 0.718811
O16   O     O_R   0.206120 0.900260 0.050460 -0.540814
O17   O     O_3   0.375280 0.064080 0.012470 -0.380889
V3    V     V_3+5 0.648180 0.988110 0.997690 1.487227
O18   O     O_R   0.038220 0.111740 0.952370 -0.542758
C51   C     C_R   0.869520 0.137780 0.935274 0.681156
O19   O     O_R   0.040880 0.095790 0.087940 -0.547987
C52   C     C_R   0.872823 0.117068 0.115277 0.689222
V4    V     V_3+5 0.148800 0.011950 0.002300 1.438747
O20   O     O_3   0.871820 0.935920 0.987530 -0.355451
F1    F     F_    0.731906 0.733086 0.831919 -0.690519
I1    I     I_    0.076642 0.925481 0.677493 -0.455261
I2    I     I_    0.499156 0.857816 0.532545 -0.365815
F2    F     F_    0.492712 0.029630 0.310593 -0.712550
F3    F     F_    0.347866 0.548356 0.203206 -0.730095

loop_
_geom_bond_atom_site_label_1
_geom_bond_atom_site_label_2
_ccdc_geom_bond_type
C49   O16   A    
C1    C28   S    
C47   I2    S    
C42   C43   A    
O12   V3    S    
C36   C46   A    
C41   C45   A    
C48   C49   S    
O17   V4    S    
C6    C16   A    
C24   C25   S    
C23   C24   A    
C25   H11   S    
C12   C13   A    
O11   C50   A    
C37   H21   S    
C14   C15   A    
C27   C32   A    
C10   C12   A    
C41   C48   A    
C27   C34   S    
O5    C3    A    
C19   C20   A    
C39   F3    S    
C20   C52   S    
O18   V4    S    
V2    O10   S    
V4    O20   S    
C30   H15   S    
C33   H16   S    
C34   H17   S    
O13   C52   A    
C19   C24   A    
C38   H22   S    
C29   H14   S    
O8    V2    S    
C14   I1    S    
C37   C38   A    
O19   V4    S    
C9    C10   A    
C39   C40   A    
O1    V2    S    
O7    V1    S    
V3    O20   S    
C1    O6    A    
C11   C18   A    
C21   C22   A    
C32   C33   S    
C7    C8    A    
C44   F2    S    
O18   C51   A    
C36   C47   A    
C22   C23   A    
C45   H23   S    
C26   H12   S    
C25   H10   S    
O12   C49   A    
C11   C15   A    
C7    C18   A    
C29   C30   A    
C43   C44   A    
C5    C13   A    
C4    C6    S    
C10   C11   A    
C20   C21   A    
C40   C42   A    
O14   V3    S    
C26   H13   S    
C7    H4    S    
C31   C32   A    
C28   C29   A    
C35   C43   A    
C33   C34   S    
O15   C51   A    
C34   H18   S    
O2    C1    A    
C44   C45   A    
O13   V3    S    
O19   C52   A    
C31   C50   S    
C19   C26   S    
O3    C4    A    
C21   H8    S    
O14   C50   A    
C12   C16   A    
O6    V2    S    
C9    H5    S    
O9    V2    S    
C5    C17   A    
C22   H9    S    
O2    V1    S    
C27   C28   A    
O4    C2    A    
C46   H20   S    
C25   C26   S    
C35   C47   A    
C16   H3    S    
O1    C2    A    
C33   F1    S    
O5    V1    S    
O8    C3    A    
C8    H6    S    
O11   V4    S    
O7    V2    S    
O4    V1    S    
C3    C23   S    
O3    V1    S    
V1    O10   S    
C37   C48   A    
O17   V3    S    
C5    H2    S    
C30   C31   A    
O16   V4    S    
O15   V3    S    
C38   C39   A    
C2    C36   S    
C40   C41   A    
C18   C51   S    
C35   H19   S    
C15   H7    S    
C13   C14   A    
C42   C46   A    
C8    C9    A    
H1    C17   S    
O9    C4    A    
C6    C17   A    
