data_str_m9_o4_o16_f0_sra.sym.70
_audit_creation_date              2013-03-05T16:07:19-0500
_audit_creation_method            fapswitch 2.2
_symmetry_space_group_name_H-M    P1
_symmetry_Int_Tables_number       1
_space_group_crystal_system       triclinic
_cell_length_a                    6.960674
_cell_length_b                    13.628259
_cell_length_c                    20.232444
_cell_angle_alpha                 102.910807
_cell_angle_beta                  90.182124
_cell_angle_gamma                 90.6963
_cell_volume                      1870.59371076

loop_
_atom_site_label
_atom_site_type_symbol
_atom_site_description
_atom_site_fract_x
_atom_site_fract_y
_atom_site_fract_z
_atom_type_partial_charge
O1    O     O_R   0.506770 0.599700 0.449550 -0.598695
O2    O     O_R   0.179980 0.595740 0.587960 -0.557616
O3    O     O_R   0.004580 0.400300 0.550450 -0.569480
C1    C     C_R   0.349331 0.618551 0.614884 0.956665
O4    O     O_R   0.177380 0.611700 0.452380 -0.604961
O5    O     O_R   0.001970 0.416370 0.413900 -0.606420
C2    C     C_R   0.347016 0.638317 0.435802 0.906290
O6    O     O_R   0.509390 0.583630 0.586100 -0.573081
O7    O     O_3   0.337530 0.435890 0.487530 -0.286924
V1    V     V_3+5 0.064660 0.511890 0.502310 1.202601
O8    O     O_R   0.671950 0.404260 0.412040 -0.602614
C3    C     C_R   0.840159 0.383104 0.384624 0.912501
O9    O     O_R   0.674540 0.388300 0.547620 -0.588731
C4    C     C_R   0.843207 0.359724 0.562740 1.016742
V2    V     V_3+5 0.564030 0.488110 0.497690 1.186841
O10   O     O_3   0.841030 0.564110 0.512470 -0.255084
C5    C     C_R   0.903930 0.110169 0.609562 -0.158461
H1    H     H_    0.901985 0.160421 0.516286 0.103578
H2    H     H_    0.934237 0.986220 0.693192 0.123412
H3    H     H_    0.930310 0.032788 0.584004 0.112322
C6    C     C_R   0.852255 0.282445 0.602541 -0.124422
C7    C     C_R   0.830617 0.314234 0.929554 -0.183396
C8    C     C_R   0.810105 0.389219 0.893662 -0.075963
C9    C     C_R   0.817213 0.365956 0.823087 -0.156342
C10   C     C_R   0.846892 0.265939 0.786215 0.075559
C11   C     C_R   0.869105 0.189455 0.823469 0.113721
C12   C     C_R   0.855966 0.239363 0.713812 0.063662
C13   C     C_R   0.889489 0.137599 0.680538 0.200219
C14   C     C_R   0.909531 0.064044 0.718218 -0.248819
C15   C     C_R   0.899001 0.089354 0.788477 -0.221002
C16   C     C_R   0.834636 0.310414 0.673076 -0.196750
C17   C     C_R   0.887259 0.182417 0.570877 -0.198455
C18   C     C_R   0.859884 0.214709 0.895246 -0.162646
H4    H     H_    0.806315 0.388259 0.694542 0.167679
H5    H     H_    0.822184 0.333715 0.984407 0.103779
H6    H     H_    0.798786 0.428232 0.799199 0.163882
H7    H     H_    0.787158 0.466138 0.920741 0.126334
H8    H     H_    0.915754 0.029581 0.815280 0.117888
C19   C     C_R   0.708800 0.181997 0.227102 0.172646
C20   C     C_R   0.866548 0.183526 0.184400 -0.222590
C21   C     C_R   0.022181 0.247488 0.210725 -0.166549
H9    H     H_    0.145368 0.252462 0.179313 0.142543
C22   C     C_R   0.014714 0.310951 0.276048 -0.157049
H10   H     H_    0.132987 0.362633 0.293076 0.133656
C23   C     C_R   0.850888 0.312821 0.317063 -0.214090
C24   C     C_R   0.701324 0.245040 0.291825 0.159819
C25   C     C_3   0.494738 0.267096 0.284087 -0.478090
C26   C     C_3   0.502790 0.199452 0.213688 -0.474458
H11   H     H_    0.471106 0.347527 0.283734 0.188250
H12   H     H_    0.402486 0.236202 0.319554 0.195239
H13   H     H_    0.484862 0.240642 0.172456 0.191699
H14   H     H_    0.412172 0.130613 0.208458 0.191463
C27   C     C_R   0.505821 0.684725 0.729612 0.081470
C28   C     C_R   0.355772 0.686918 0.683458 -0.258139
C29   C     C_R   0.200145 0.750802 0.706634 -0.045969
H15   H     H_    0.082145 0.755676 0.672732 0.113049
C30   C     C_R   0.198338 0.812299 0.772660 -0.137323
H16   H     H_    0.080158 0.862967 0.787522 0.117353
C31   C     C_R   0.354164 0.813373 0.817162 -0.195566
C32   C     C_R   0.505035 0.747839 0.794439 0.127247
C33   C     C_3   0.712565 0.773634 0.793116 -0.584502
C34   C     C_3   0.715701 0.705295 0.722529 0.210536
H17   H     H_    0.793255 0.748107 0.833474 0.244759
H18   H     H_    0.736500 0.854243 0.792505 0.167714
H19   H     H_    0.746877 0.745493 0.681506 0.044964
C35   C     C_R   0.454274 0.883006 0.387468 -0.171389
H20   H     H_    0.448164 0.833563 0.480904 0.102766
H21   H     H_    0.514035 0.003100 0.302897 0.134654
H22   H     H_    0.502017 0.958275 0.412269 0.115513
C36   C     C_R   0.361223 0.715151 0.395987 -0.077278
C37   C     C_R   0.292688 0.686885 0.070000 -0.163592
C38   C     C_R   0.262253 0.612576 0.106065 -0.089663
C39   C     C_R   0.286823 0.634032 0.176233 -0.184227
C40   C     C_R   0.344938 0.731378 0.212357 0.093379
C41   C     C_R   0.381408 0.806374 0.174672 0.105560
C42   C     C_R   0.367194 0.757011 0.284477 0.084458
C43   C     C_R   0.428505 0.856174 0.316853 0.189895
C44   C     C_R   0.466081 0.927612 0.278607 -0.244781
C45   C     C_R   0.443297 0.903133 0.208714 -0.223396
C46   C     C_R   0.332214 0.687641 0.325815 -0.245891
C47   C     C_R   0.422657 0.812547 0.426684 -0.179595
C48   C     C_R   0.352374 0.783487 0.103509 -0.170820
H23   H     H_    0.287196 0.610949 0.305186 0.099636
H24   H     H_    0.268209 0.669248 0.015675 0.113198
H25   H     H_    0.258648 0.572650 0.200476 0.109230
H26   H     H_    0.216676 0.537861 0.079520 0.115547
H27   H     H_    0.476029 0.960740 0.181319 0.130334
O11   O     O_R   0.203450 0.916320 0.913910 -0.598128
O12   O     O_R   0.535520 0.888300 0.047620 -0.594906
O13   O     O_R   0.710860 0.083650 0.086100 -0.596482
C49   C     C_R   0.365944 0.861401 0.064038 0.929540
O14   O     O_R   0.532860 0.904250 0.912040 -0.596026
O15   O     O_R   0.708190 0.099710 0.949550 -0.591689
C50   C     C_R   0.363756 0.883525 0.884606 0.946668
O16   O     O_R   0.206120 0.900260 0.050460 -0.587516
O17   O     O_3   0.375280 0.064080 0.012470 -0.280185
V3    V     V_3+5 0.648180 0.988110 0.997690 1.160368
O18   O     O_R   0.038220 0.111740 0.952370 -0.596575
C51   C     C_R   0.869702 0.137749 0.935328 0.924978
O19   O     O_R   0.040880 0.095790 0.087940 -0.600879
C52   C     C_R   0.872764 0.117688 0.115122 0.934586
V4    V     V_3+5 0.148800 0.011950 0.002300 1.159011
O20   O     O_3   0.871820 0.935920 0.987530 -0.273161
N1    N     N_R   0.828896 0.614220 0.717300 0.236131
O21   O     O_R   0.845042 0.553519 0.658417 -0.409679
O22   O     O_R   0.933969 0.599318 0.767408 -0.441490

loop_
_geom_bond_atom_site_label_1
_geom_bond_atom_site_label_2
_geom_bond_distance
_ccdc_geom_bond_type
C29   H15   1.080574 S    
O17   V4    1.713962 S    
C21   H9    1.079374 S    
C1    O6    1.303871 A    
C2    C36   1.459479 S    
C45   H27   1.080002 S    
C25   H11   1.111974 S    
C43   C44   1.395275 A    
C7    H5    1.083846 S    
C6    C16   1.398603 A    
C9    H6    1.075134 S    
C40   C42   1.429923 A    
C4    C6    1.463510 S    
C13   C14   1.396335 A    
H20   C47   1.083553 S    
O5    C3    1.299354 A    
C30   C31   1.405312 A    
C35   H22   1.084023 S    
V2    O10   2.165452 S    
C5    H3    1.083908 S    
C15   H8    1.081919 S    
C39   C40   1.417607 A    
C33   H17   1.109951 S    
C36   C47   1.395181 A    
C20   C52   1.486923 S    
C28   C29   1.412463 A    
O8    V2    2.004328 S    
C26   H13   1.112172 S    
C8    C9    1.392981 A    
O1    V2    2.023476 S    
C31   C50   1.481694 S    
O12   C49   1.297837 A    
O7    V1    2.163974 S    
O15   C51   1.292286 A    
O13   V3    2.006430 S    
O16   V4    2.024997 S    
C37   C48   1.396964 A    
C31   C32   1.397940 A    
O9    C4    1.298338 A    
C21   C22   1.410036 A    
V4    O20   2.165502 S    
C46   H23   1.077520 S    
O19   V4    2.004126 S    
N1    O21   1.295759 A    
C27   C32   1.398639 A    
O14   V3    2.009301 S    
C25   H12   1.111719 S    
C34   N1    1.462248 S    
H21   C44   1.084426 S    
C6    C17   1.395327 A    
O11   C50   1.301645 A    
C40   C41   1.426038 A    
C12   C16   1.413606 A    
C9    C10   1.417937 A    
C19   C20   1.402163 A    
O4    C2    1.298006 A    
C44   C45   1.386584 A    
C3    C23   1.486204 S    
C10   C11   1.425752 A    
O18   V4    2.024081 S    
C36   C46   1.398389 A    
C48   C49   1.466677 S    
O12   V3    2.019623 S    
C32   C33   1.484292 S    
C18   C51   1.464193 S    
C33   H18   1.111923 S    
O2    C1    1.301650 A    
C22   H10   1.080839 S    
O13   C52   1.300534 A    
C14   C15   1.388234 A    
C8    H7    1.082836 S    
C27   C34   1.497562 S    
C11   C18   1.417497 A    
O11   V4    2.004063 S    
C25   C26   1.515495 S    
O17   V3    2.163970 S    
O14   C50   1.300414 A    
C16   H4    1.073645 S    
C42   C43   1.423424 A    
C22   C23   1.409592 A    
C39   H25   1.076481 S    
V3    O20   1.713191 S    
O3    C4    1.295171 A    
C19   C24   1.398012 A    
C20   C21   1.408186 A    
C11   C15   1.407770 A    
O6    V2    2.003672 S    
O9    V2    2.024105 S    
H1    C17   1.083445 S    
O2    V1    2.009251 S    
O15   V3    2.021244 S    
C37   H24   1.083823 S    
C7    C18   1.396395 A    
C24   C25   1.487535 S    
C34   H19   1.112444 S    
C1    C28   1.488610 S    
O1    C2    1.291723 A    
C5    C13   1.404962 A    
C42   C46   1.414782 A    
C38   C39   1.393543 A    
O5    V1    2.006324 S    
C38   H26   1.082860 S    
O8    C3    1.304823 A    
C41   C48   1.416712 A    
C27   C28   1.403843 A    
N1    O22   1.301883 A    
C10   C12   1.430093 A    
C29   C30   1.409667 A    
O7    V2    1.714546 S    
O4    V1    2.019782 S    
O3    V1    2.021226 S    
V1    O10   1.713290 S    
C35   C47   1.391575 A    
C30   H16   1.080057 S    
O19   C52   1.303885 A    
C35   C43   1.403710 A    
C33   C34   1.521121 S    
C49   O16   1.292642 A    
C23   C24   1.400108 A    
C26   H14   1.109059 S    
C37   C38   1.388834 A    
O18   C51   1.297151 A    
C12   C13   1.422213 A    
C5    C17   1.393600 A    
C7    C8    1.388000 A    
C41   C45   1.406155 A    
C19   C26   1.490362 S    
H2    C14   1.084356 S    
