data_str_m2_o1_o6_f0_pcu.sym.103
_audit_creation_date              2012-12-10T18:04:35-0500
_audit_creation_method            fapswitch 2.2
_symmetry_space_group_name_H-M    P1
_symmetry_Int_Tables_number       1
_space_group_crystal_system       triclinic
_cell_length_a                    10.925093
_cell_length_b                    9.545359
_cell_length_c                    16.006025
_cell_angle_alpha                 90.029973
_cell_angle_beta                  90.211946
_cell_angle_gamma                 89.85078
_cell_volume                      1669.15396631

loop_
_atom_site_label
_atom_site_type_symbol
_atom_type_description
_atom_site_fract_x
_atom_site_fract_y
_atom_site_fract_z
_atom_type_partial_charge
C1    C     C_R   0.871027 0.500179 0.499757 -0.371274
C2    C     C_R   0.505644 0.371302 0.955868 -0.055958
C3    C     C_R   0.502958 0.500072 0.912375 -0.043609
C4    C     C_R   0.502658 0.499918 0.087648 -0.043344
C5    C     C_1   0.502072 0.500126 0.822368 0.075714
C6    C     C_1   0.501671 0.499868 0.177647 0.076342
C7    C     C_1   0.500799 0.499890 0.252577 -0.046946
C8    C     C_1   0.501179 0.500106 0.747432 -0.045498
C9    C     C_R   0.463107 0.074159 0.431141 0.072710
C10   C     C_R   0.538107 0.925735 0.568593 0.036393
C11   C     C_R   0.537388 0.074062 0.568760 0.087394
C12   C     C_R   0.126979 0.500775 0.499553 -0.371428
C13   C     C_R   0.462642 0.925877 0.431239 0.068947
C14   C     C_R   0.060636 0.372997 0.501407 0.288894
C15   C     C_R   0.935862 0.621741 0.476261 0.287548
C16   C     C_R   0.937332 0.379093 0.522889 0.296913
C17   C     C_R   0.059745 0.628575 0.497367 0.281827
C18   C     C_2   0.520042 0.763117 0.090475 0.890882
C19   C     C_2   0.520470 0.236769 0.909680 0.887120
C20   C     C_2   0.486664 0.763449 0.909912 0.897474
C21   C     C_2   0.486235 0.236648 0.089998 0.892467
C22   C     C_R   0.261720 0.500249 0.499795 0.925079
C23   C     C_R   0.737571 0.499931 0.500009 0.964870
C24   C     C_R   0.499972 0.499964 0.341436 0.835768
C25   C     C_R   0.500233 0.500035 0.658566 0.836026
C26   C     C_R   0.500739 0.628773 0.956026 -0.059530
C27   C     C_R   0.500565 0.371231 0.043983 -0.057987
C28   C     C_R   0.505477 0.628672 0.044176 -0.056884
Cu1   Cu    Cu3+1 0.500000 0.640660 0.500000 1.060261
Cu2   Cu    Cu3+1 0.500000 0.359340 0.500000 1.077122
H1    H     H_    0.433633 0.129010 0.375613 0.149417
H2    H     H_    0.733147 0.755582 0.312403 0.376290
H3    H     H_    0.754309 0.243572 0.695708 0.368241
H4    H     H_    0.252958 0.860789 0.622827 0.381328
H5    H     H_    0.569778 0.870726 0.623589 0.156005
H6    H     H_    0.568205 0.128884 0.623975 0.146778
H7    H     H_    0.431606 0.871013 0.376057 0.153587
H8    H     H_    0.611589 0.945534 0.101419 0.371566
H9    H     H_    0.612146 0.053854 0.899404 0.369268
H10   H     H_    0.395861 0.946917 0.899246 0.372848
H11   H     H_    0.395272 0.053800 0.100050 0.369987
H12   H     H_    0.209193 0.150630 0.347729 0.374537
N1    N     N_R   0.500000 0.852070 0.500000 -0.176535
N2    N     N_R   0.500000 0.147930 0.500000 -0.172045
O1    O     O_R   0.319640 0.618740 0.499990 -0.529913
O2    O     O_R   0.607204 0.860216 0.063876 -0.712350
O3    O     O_2   0.457830 0.211881 0.847974 -0.586488
O4    O     O_R   0.607531 0.139185 0.936923 -0.714205
O5    O     O_2   0.549625 0.788028 0.848648 -0.589146
O6    O     O_R   0.399964 0.861511 0.936695 -0.711506
O7    O     O_2   0.548940 0.211647 0.151696 -0.582724
O8    O     O_R   0.399582 0.139168 0.062621 -0.713718
O9    O     O_2   0.194453 0.140438 0.528191 -0.215323
O10   O     O_2   0.014665 0.117203 0.437034 -0.148871
O11   O     O_3   0.204517 0.241850 0.377088 -0.548706
O12   O     O_R   0.680360 0.381260 0.500010 -0.530324
O13   O     O_2   0.803698 0.859306 0.459626 -0.205156
O14   O     O_2   0.971742 0.823926 0.360838 -0.191066
O15   O     O_3   0.775375 0.676645 0.340608 -0.546874
O16   O     O_2   0.809525 0.139902 0.539015 -0.207667
O17   O     O_2   0.978677 0.177279 0.637318 -0.196102
O18   O     O_3   0.779862 0.321199 0.658677 -0.560827
O19   O     O_2   0.189168 0.858903 0.461987 -0.242263
O20   O     O_2   0.015916 0.888119 0.557423 -0.133443
O21   O     O_3   0.210826 0.769822 0.615393 -0.517008
O22   O     O_R   0.680360 0.618740 0.500010 -0.536229
O23   O     O_R   0.319640 0.381260 0.499990 -0.519705
O24   O     O_R   0.499970 0.618750 0.380310 -0.587087
O25   O     O_R   0.500030 0.381250 0.619690 -0.581302
O26   O     O_R   0.500030 0.618750 0.619690 -0.587861
O27   O     O_R   0.499970 0.381250 0.380310 -0.581149
O28   O     O_2   0.457086 0.788355 0.151716 -0.593693
S1    S     S_3+6 0.118455 0.211440 0.462110 0.117790
S2    S     S_3+6 0.872098 0.752249 0.409014 0.105621
S3    S     S_3+6 0.876692 0.247586 0.589843 0.092104
S4    S     S_3+6 0.118681 0.792599 0.531953 0.126626

loop_
_geom_bond_atom_site_label_1
_geom_bond_atom_site_label_2
_ccdc_geom_bond_type
O13   S2    D    
C12   C17   A    
C5    C8    T    
Cu1   O26   S    
O17   S3    D    
C1    C23   S    
C2    C27   A    
C1    C15   A    
H12   O11   S    
C17   S4    S    
Cu1   O24   S    
C20   O5    D    
H11   O8    S    
C26   C28   A    
Cu2   O23   S    
C21   O7    D    
C15   S2    S    
Cu2   O25   S    
C2    C3    A    
C21   C27   S    
C11   N2    A    
C1    C16   A    
Cu1   N1    S    
C16   S3    S    
C18   O28   D    
C8    C25   S    
O15   S2    S    
Cu2   N2    S    
C6    C7    T    
O21   S4    S    
C20   C26   S    
C13   H7    S    
H10   O6    S    
C18   O2    S    
C23   O22   A    
C11   H6    S    
C4    C28   A    
C12   C14   A    
Cu2   O27   S    
C14   C16   A    
C3    C26   A    
O20   S4    D    
O18   S3    S    
C10   H5    S    
C19   O3    D    
C22   O23   A    
H8    O2    S    
C25   O25   A    
C10   C11   A    
C9    H1    S    
Cu1   Cu2   S    
Cu1   O22   S    
O10   S1    D    
C14   S1    S    
C12   C22   S    
C13   N1    A    
C4    C27   A    
C18   C28   S    
O14   S2    D    
C4    C6    S    
C22   O1    A    
O19   S4    D    
C23   O12   A    
H4    O21   S    
C15   C17   A    
C9    C13   A    
C19   O4    S    
H3    O18   S    
C9    N2    A    
C20   O6    S    
C25   O26   A    
O16   S3    D    
H2    O15   S    
C10   N1    A    
C2    C19   S    
C24   O24   A    
Cu2   O12   S    
C21   O8    S    
O9    S1    D    
C7    C24   S    
C24   O27   A    
Cu1   O1    S    
H9    O4    S    
C3    C5    S    
O11   S1    S    
