data_str_m9_o7_o16_f0_sra.sym.45
_audit_creation_date              2012-12-11T17:34:20-0500
_audit_creation_method            fapswitch 2.2
_symmetry_space_group_name_H-M    P1
_symmetry_Int_Tables_number       1
_space_group_crystal_system       triclinic
_cell_length_a                    23.884666
_cell_length_b                    7.2556
_cell_length_c                    20.736624
_cell_angle_alpha                 90.000465
_cell_angle_beta                  104.824819
_cell_angle_gamma                 90.000871
_cell_volume                      3473.98514703

loop_
_atom_site_label
_atom_site_type_symbol
_atom_type_description
_atom_site_fract_x
_atom_site_fract_y
_atom_site_fract_z
_atom_type_partial_charge
O1    O     O_R   0.449110 0.494310 0.552140 -0.549061
O2    O     O_R   0.550890 0.994310 0.447860 -0.549043
O3    O     O_R   0.440010 0.824420 0.415850 -0.534669
O4    O     O_R   0.559990 0.324420 0.584150 -0.534694
C1    C     C_R   0.425276 0.655876 0.391740 0.774799
C2    C     C_R   0.574722 0.155881 0.608261 0.774868
O5    O     O_R   0.442260 0.824040 0.549660 -0.494289
O6    O     O_R   0.557740 0.324040 0.450340 -0.494292
O7    O     O_R   0.553160 0.993960 0.582620 -0.533417
O8    O     O_R   0.446840 0.493960 0.417380 -0.533449
C3    C     C_R   0.428540 0.655981 0.567565 0.785689
C4    C     C_R   0.571463 0.155983 0.432438 0.785682
O9    O     O_3   0.536380 0.660670 0.510660 -0.373907
O10   O     O_3   0.463620 0.160670 0.489340 -0.373926
V1    V     V_3+5 0.493250 0.935680 0.498020 1.581255
V2    V     V_3+5 0.506750 0.435680 0.501980 1.581192
C5    C     C_R   0.832017 0.891027 0.178543 0.195140
C6    C     C_R   0.167991 0.391044 0.821465 0.195132
C7    C     C_R   0.869800 0.888382 0.136332 -0.169529
C8    C     C_R   0.130206 0.388393 0.863673 -0.169530
H1    H     H_    0.883383 0.756277 0.121203 0.132627
H2    H     H_    0.116624 0.256285 0.878803 0.132628
C9    C     C_R   0.890084 0.053078 0.114083 -0.081089
C10   C     C_R   0.109917 0.553085 0.885918 -0.081093
C11   C     C_R   0.871690 0.221212 0.135389 -0.172321
C12   C     C_R   0.128308 0.721222 0.864611 -0.172312
H3    H     H_    0.886201 0.351264 0.119783 0.137348
H4    H     H_    0.113794 0.851272 0.880214 0.137350
C13   C     C_R   0.834053 0.223460 0.177252 -0.187179
C14   C     C_R   0.165948 0.723477 0.822751 -0.187176
H5    H     H_    0.820105 0.352114 0.192988 0.132546
H6    H     H_    0.179893 0.852134 0.807012 0.132547
C15   C     C_R   0.813906 0.060642 0.199179 0.119367
C16   C     C_R   0.186099 0.560663 0.800828 0.119364
C17   C     C_1   0.774186 0.072280 0.241744 -0.029766
C18   C     C_1   0.225821 0.572309 0.758264 -0.029755
C19   C     C_1   0.740391 0.084633 0.276293 0.082709
C20   C     C_1   0.259616 0.584662 0.723716 0.082708
C21   C     C_R   0.691353 0.967784 0.360317 0.412211
C22   C     C_R   0.308648 0.467805 0.639688 0.412177
C23   C     C_R   0.649772 0.986393 0.396719 -0.185368
C24   C     C_R   0.350225 0.486409 0.603281 -0.185452
H7    H     H_    0.644965 0.875547 0.429898 0.214544
H8    H     H_    0.355024 0.375571 0.570093 0.214479
C25   C     C_R   0.615634 0.146185 0.392204 -0.218122
C26   C     C_R   0.384374 0.646181 0.607806 -0.218078
C27   C     C_R   0.624576 0.290959 0.349528 0.410325
C28   C     C_R   0.375453 0.790933 0.650500 0.410319
C29   C     C_R   0.664935 0.269324 0.310116 0.081236
C30   C     C_R   0.335086 0.769323 0.689904 0.081241
C31   C     C_R   0.698610 0.107006 0.316086 -0.052550
C32   C     C_R   0.301399 0.607025 0.683924 -0.052520
C33   C     C_R   0.638134 0.167643 0.794212 -0.163362
C34   C     C_R   0.361878 0.667327 0.205784 -0.163350
H9    H     H_    0.715889 0.161371 0.905664 0.121464
H10   H     H_    0.284125 0.660976 0.094329 0.121463
H11   H     H_    0.622901 0.189748 0.838655 0.130054
H12   H     H_    0.377118 0.689277 0.161337 0.130051
C35   C     C_R   0.617419 0.149873 0.674123 -0.096108
C36   C     C_R   0.382580 0.649843 0.325877 -0.096094
C37   C     C_R   0.899943 0.005982 0.769781 0.137076
C38   C     C_R   0.100044 0.506130 0.230226 0.137072
C39   C     C_R   0.859622 0.966353 0.708730 0.169661
C40   C     C_R   0.140359 0.466590 0.291290 0.169669
C41   C     C_R   0.800523 0.988717 0.702953 -0.104568
C42   C     C_R   0.199460 0.488907 0.297070 -0.104557
C43   C     C_R   0.779100 0.065063 0.754098 0.028465
C44   C     C_R   0.220893 0.565111 0.245910 0.028466
C45   C     C_R   0.818428 0.080710 0.819424 0.006271
C46   C     C_R   0.181571 0.580675 0.180579 0.006274
C47   C     C_R   0.718312 0.108252 0.743210 0.023826
C48   C     C_R   0.281686 0.608233 0.256793 0.023831
C49   C     C_R   0.696934 0.136253 0.800000 0.021850
C50   C     C_R   0.303072 0.636051 0.199999 0.021854
C51   C     C_R   0.734078 0.138328 0.863416 -0.147588
C52   C     C_R   0.265932 0.638060 0.136581 -0.147585
C53   C     C_R   0.793719 0.116407 0.874254 0.136122
C54   C     C_R   0.206287 0.616239 0.125745 0.136136
C55   C     C_R   0.677585 0.129557 0.678957 0.265396
C56   C     C_R   0.322410 0.629632 0.321042 0.265402
C57   C     C_R   0.598306 0.174948 0.732403 0.071303
C58   C     C_R   0.401702 0.674712 0.267594 0.071238
C59   C     C_R   0.879815 0.051877 0.826563 -0.123687
C60   C     C_R   0.120181 0.551903 0.173439 -0.123675
H13   H     H_    0.771070 0.935565 0.658592 0.190913
H14   H     H_    0.228906 0.435826 0.341448 0.190911
O11   O     O_R   0.053190 0.709680 0.082610 -0.534543
O12   O     O_R   0.946810 0.209680 0.917390 -0.534548
O13   O     O_R   0.057740 0.380240 0.950340 -0.542689
O14   O     O_R   0.942260 0.880240 0.049660 -0.542690
C61   C     C_R   0.069332 0.547884 0.930124 0.686270
C62   C     C_R   0.930669 0.047883 0.069876 0.686271
O15   O     O_R   0.060000 0.379940 0.084150 -0.535100
O16   O     O_R   0.940000 0.879940 0.915850 -0.535101
O17   O     O_R   0.949110 0.210100 0.052140 -0.538981
O18   O     O_R   0.050890 0.710100 0.947860 -0.538982
C63   C     C_R   0.075751 0.548412 0.107913 0.726856
C64   C     C_R   0.924248 0.048408 0.892088 0.726853
O19   O     O_3   0.963630 0.543720 0.989330 -0.375146
O20   O     O_3   0.036370 0.043720 0.010670 -0.375137
V3    V     V_3+5 0.006750 0.268680 0.001980 1.393911
V4    V     V_3+5 0.993250 0.768680 0.998020 1.393917
C65   C     C_3   0.812398 0.710795 0.200299 -0.803899
H15   H     H_    0.782721 0.725367 0.233241 0.244367
H16   H     H_    0.789120 0.633224 0.155279 0.198076
H17   H     H_    0.851131 0.633627 0.228303 0.217330
C66   C     C_3   0.187614 0.210816 0.799710 -0.803883
H18   H     H_    0.217297 0.225394 0.766776 0.244368
H19   H     H_    0.210886 0.133243 0.844732 0.198074
H20   H     H_    0.148883 0.133648 0.771699 0.217333
Cl1   Cl    Cl    0.699488 0.175786 0.604956 -0.668489
Cl2   Cl    Cl    0.300506 0.676084 0.395027 -0.668483
C67   C     C_3   0.964728 0.990376 0.776446 -0.760862
H21   H     H_    0.976199 0.972092 0.728436 0.217834
H22   H     H_    0.986752 0.118335 0.799170 0.196965
H23   H     H_    0.982765 0.871217 0.808672 0.207922
C68   C     C_3   0.035257 0.490564 0.223554 -0.760876
H24   H     H_    0.023779 0.472331 0.271561 0.217835
H25   H     H_    0.013241 0.618518 0.200815 0.196980
H26   H     H_    0.017217 0.371388 0.191337 0.207905
C69   C     C_3   0.878265 0.893528 0.649215 -0.689885
H27   H     H_    0.904087 0.765654 0.663111 0.210348
H28   H     H_    0.840741 0.859568 0.606798 0.232008
H29   H     H_    0.904395 0.999068 0.631312 0.217023
C70   C     C_3   0.121705 0.393912 0.350819 -0.689902
H30   H     H_    0.095881 0.266030 0.336952 0.210357
H31   H     H_    0.159225 0.360016 0.393250 0.232000
H32   H     H_    0.095575 0.499515 0.368689 0.217018
C71   C     C_3   0.827365 0.124270 0.945945 -0.769151
H33   H     H_    0.848836 0.989756 0.959779 0.198293
H34   H     H_    0.857708 0.242090 0.953617 0.225307
H35   H     H_    0.799646 0.146625 0.980883 0.194785
C72   C     C_3   0.172643 0.624070 0.054052 -0.769196
H36   H     H_    0.151160 0.489565 0.040228 0.198341
H37   H     H_    0.142308 0.741911 0.046372 0.225267
H38   H     H_    0.200364 0.646372 0.019113 0.194797
Cl3   Cl    Cl    0.734460 0.767676 0.372087 -0.620876
Cl4   Cl    Cl    0.265536 0.267701 0.627918 -0.620926
Cl5   Cl    Cl    0.585378 0.498924 0.344295 -0.695602
Cl6   Cl    Cl    0.414701 0.998814 0.655781 -0.695660
C73   C     C_3   0.672583 0.415527 0.260681 -0.623944
H39   H     H_    0.661638 0.355975 0.209653 0.168679
H40   H     H_    0.645268 0.539274 0.259116 0.262009
H41   H     H_    0.718382 0.462036 0.273188 0.231496
C74   C     C_3   0.327444 0.915531 0.739340 -0.623954
H42   H     H_    0.338389 0.855982 0.790368 0.168705
H43   H     H_    0.354760 0.039277 0.740902 0.262009
H44   H     H_    0.281646 0.962049 0.726834 0.231476
C75   C     C_3   0.536574 0.220808 0.731636 -0.684015
H45   H     H_    0.508324 0.240517 0.680791 0.233929
H46   H     H_    0.518467 0.109081 0.756808 0.238900
H47   H     H_    0.535505 0.351542 0.759171 0.195423
C76   C     C_3   0.463444 0.720422 0.268356 -0.684064
H48   H     H_    0.491682 0.740312 0.319197 0.233925
H49   H     H_    0.481545 0.608523 0.243255 0.238890
H50   H     H_    0.464536 0.851019 0.240752 0.195443

loop_
_geom_bond_atom_site_label_1
_geom_bond_atom_site_label_2
_ccdc_geom_bond_type
C42   C44   A    
C39   C41   A    
H10   C52   S    
O18   V4    S    
C46   C54   A    
C68   H24   S    
C49   C51   A    
C45   C53   A    
C21   C31   A    
O1    C3    A    
O2    C4    A    
C2    O7    A    
C21   Cl3   S    
O12   V3    S    
C27   C29   A    
O5    C3    A    
C5    C15   A    
C60   C63   S    
C7    H1    S    
C10   C12   A    
C67   H21   S    
C73   H40   S    
C19   C31   S    
C20   C32   S    
O16   C64   A    
C13   C15   A    
C33   C57   A    
C24   C26   A    
C72   H37   S    
C37   C39   A    
C6    C66   S    
O14   V4    S    
C38   C68   S    
C38   C40   A    
C39   C69   S    
C61   O18   A    
C34   C50   A    
C58   C76   S    
C36   C58   A    
C8    C10   A    
C41   C43   A    
C59   C64   S    
C29   C73   S    
C72   H38   S    
C30   C32   A    
C66   H18   S    
C68   H25   S    
C76   H49   S    
C46   C60   A    
C43   C47   A    
C44   C48   A    
C67   H23   S    
H9    C51   S    
O5    V1    S    
C70   H30   S    
O6    V2    S    
C22   C24   A    
C23   H7    S    
C24   H8    S    
C47   C55   A    
C74   H43   S    
C74   H42   S    
C25   C27   A    
C11   C13   A    
C26   C28   A    
C14   C16   A    
C48   C50   A    
C37   C59   A    
C68   H26   S    
C35   C55   A    
C47   C49   A    
C33   H11   S    
C5    C7    A    
C29   C31   A    
C22   C32   A    
C62   O17   A    
C22   Cl4   S    
C43   C45   A    
C40   C42   A    
O4    V2    S    
C7    C9    A    
C45   C59   A    
C70   H32   S    
O11   V4    S    
C51   C53   A    
O14   C62   A    
O6    C4    A    
C28   Cl6   S    
C56   Cl2   S    
C65   H16   S    
O1    V2    S    
C53   C71   S    
C71   H34   S    
C76   H50   S    
O2    V1    S    
C6    C16   A    
C69   H27   S    
C50   C52   A    
C30   C74   S    
O4    C2    A    
C8    H2    S    
C12   C14   A    
C37   C67   S    
C72   H36   S    
C66   H20   S    
C75   H47   S    
O13   C61   A    
O15   V3    S    
C18   C20   T    
C10   C61   S    
O15   C63   A    
C34   C58   A    
C74   H44   S    
O3    V1    S    
C17   C19   T    
C70   H31   S    
C71   H33   S    
C34   H12   S    
C38   C60   A    
C36   C56   A    
C1    C36   S    
O13   V3    S    
O10   V1    S    
C2    C35   S    
C33   C49   A    
C35   C57   A    
C52   C54   A    
C4    C25   S    
O3    C1    A    
C42   H14   S    
C41   H13   S    
C73   H41   S    
C11   H3    S    
C21   C23   A    
C12   H4    S    
C55   Cl1   S    
C71   H35   S    
C75   H46   S    
C5    C65   S    
C1    O8    A    
C48   C56   A    
O8    V2    S    
C75   H45   S    
C14   H6    S    
C66   H19   S    
C57   C75   S    
C28   C30   A    
O20   V3    S    
C15   C17   S    
C16   C18   S    
C65   H17   S    
C6    C8    A    
C9    C11   A    
O7    V1    S    
C54   C72   S    
C69   H28   S    
O19   V4    S    
O16   V4    S    
C13   H5    S    
C40   C70   S    
O9    V2    S    
C27   Cl5   S    
C65   H15   S    
C69   H29   S    
C44   C46   A    
C23   C25   A    
C9    C62   S    
C3    C26   S    
O11   C63   A    
C76   H48   S    
C73   H39   S    
O12   C64   A    
O17   V3    S    
C67   H22   S    
