data_str_m2_o10_o29_f0_pcu.sym.219
_audit_creation_date              2012-12-10T16:51:18-0500
_audit_creation_method            fapswitch 2.2
_symmetry_space_group_name_H-M    P1
_symmetry_Int_Tables_number       1
_space_group_crystal_system       triclinic
_cell_length_a                    27.765874
_cell_length_b                    8.738291
_cell_length_c                    7.432114
_cell_angle_alpha                 102.729452
_cell_angle_beta                  93.501872
_cell_angle_gamma                 92.472168
_cell_volume                      1752.65275085

loop_
_atom_site_label
_atom_site_type_symbol
_atom_type_description
_atom_site_fract_x
_atom_site_fract_y
_atom_site_fract_z
_atom_type_partial_charge
C1    C     C_R   0.496959 0.200211 0.454453 0.812358
C2    C     C_R   0.503041 0.799789 0.545546 0.812359
C3    C     C_R   0.102225 0.497986 0.516504 -0.045482
C4    C     C_R   0.897776 0.502023 0.483497 -0.045482
C5    C     C_R   0.125335 0.355520 0.482798 -0.065870
C6    C     C_R   0.874665 0.644489 0.517209 -0.065868
C7    C     C_R   0.097721 0.214595 0.422663 -0.157682
C8    C     C_R   0.902280 0.785413 0.577345 -0.157686
C9    C     C_R   0.130601 0.640510 0.553391 -0.018059
C10   C     C_R   0.869399 0.359499 0.446605 -0.018056
C11   C     C_R   0.354682 0.499297 0.512134 -0.034211
C12   C     C_R   0.645318 0.500707 0.487866 -0.034210
C13   C     C_R   0.971598 0.355878 0.459285 0.076503
C14   C     C_R   0.028403 0.644130 0.540714 0.076503
C15   C     C_R   0.977226 0.646961 0.543958 0.000086
C16   C     C_R   0.022775 0.353047 0.456042 0.000088
C17   C     C_R   0.949118 0.501878 0.492685 0.035227
C18   C     C_R   0.050883 0.498130 0.507315 0.035228
C19   C     C_R   0.941986 0.217925 0.445756 -0.100293
C20   C     C_R   0.058014 0.782083 0.554239 -0.100292
C21   C     C_R   0.891996 0.218502 0.432280 -0.126847
C22   C     C_R   0.108005 0.781506 0.567713 -0.126845
C23   C     C_R   0.407514 0.499818 0.503595 0.796005
C24   C     C_R   0.592486 0.500183 0.496405 0.796002
C25   C     C_R   0.047651 0.212739 0.395877 0.234644
C26   C     C_R   0.952350 0.787269 0.604126 0.234644
C27   C     C_2   0.490169 0.032895 0.433684 0.169464
C28   C     C_2   0.509831 0.967104 0.566316 0.169467
C29   C     C_R   0.176041 0.357868 0.494063 0.559971
C30   C     C_R   0.823960 0.642141 0.505946 0.559962
C31   C     C_R   0.181166 0.637849 0.562430 0.549346
C32   C     C_R   0.818835 0.362160 0.437565 0.549346
C33   C     C_R   0.283789 0.517342 0.690313 -0.096121
C34   C     C_R   0.716209 0.482518 0.309673 -0.096130
C35   C     C_R   0.333890 0.518061 0.683110 -0.207952
C36   C     C_R   0.666107 0.481799 0.316875 -0.207968
C37   C     C_R   0.324482 0.479514 0.348883 -0.196145
C38   C     C_R   0.675519 0.520637 0.651135 -0.196167
C39   C     C_R   0.274493 0.478440 0.356538 -0.100990
C40   C     C_R   0.725509 0.521716 0.643481 -0.100982
C41   C     C_R   0.254082 0.497379 0.526990 0.357711
C42   C     C_R   0.745918 0.502631 0.473012 0.357689
Cu1   Cu    Cu3+1 0.505380 0.517380 0.684380 0.995118
Cu2   Cu    Cu3+1 0.494620 0.482620 0.315620 0.995116
H1    H     H_    0.339397 0.464794 0.215242 0.159586
H2    H     H_    0.660606 0.535474 0.784789 0.159588
H3    H     H_    0.462362 0.378881 0.948978 0.228379
H4    H     H_    0.537638 0.621119 0.051022 0.228383
H5    H     H_    0.251513 0.463398 0.230060 0.138087
H6    H     H_    0.748490 0.536874 0.769973 0.138111
H7    H     H_    0.115356 0.105490 0.380302 0.206516
H8    H     H_    0.884645 0.894518 0.619707 0.206518
H9    H     H_    0.643740 0.466285 0.188857 0.163114
H10   H     H_    0.356256 0.533457 0.811114 0.163082
H11   H     H_    0.731955 0.467581 0.177579 0.137218
H12   H     H_    0.268041 0.532163 0.822393 0.137185
H13   H     H_    0.871153 0.108114 0.417175 0.197481
H14   H     H_    0.128848 0.891893 0.582814 0.197480
H15   H     H_    0.956563 0.108360 0.455723 0.204144
H16   H     H_    0.043437 0.891647 0.544270 0.204144
N1    N     N_R   0.202703 0.497762 0.533043 -0.474250
N2    N     N_R   0.797298 0.502248 0.466960 -0.474246
N3    N     N_2   0.486510 0.456430 0.038510 -0.196669
N4    N     N_2   0.513490 0.543570 0.961490 -0.196668
O1    O     O_R   0.503500 0.286120 0.619780 -0.534501
O2    O     O_R   0.496500 0.713880 0.380220 -0.534502
O3    O     O_R   0.494410 0.256780 0.308360 -0.595197
O4    O     O_R   0.505590 0.743220 0.691640 -0.595196
O5    O     O_R   0.434810 0.514700 0.655690 -0.594802
O6    O     O_R   0.565190 0.485300 0.344310 -0.594806
O7    O     O_R   0.425720 0.485350 0.344280 -0.581567
O8    O     O_R   0.574280 0.514650 0.655720 -0.581564
O9    O     O_2   0.198567 0.221638 0.463463 -0.510690
O10   O     O_2   0.801434 0.778371 0.536549 -0.510699
O11   O     O_2   0.791389 0.226166 0.402699 -0.505544
O12   O     O_2   0.208611 0.773842 0.597292 -0.505534
Br1   Br    Br    0.020703 0.022984 0.229507 -0.487019
Br2   Br    Br    0.979298 0.977025 0.770491 -0.487019
O13   O     O_3   0.461623 0.943569 0.284178 -0.728062
H17   H     H_    0.446959 0.013466 0.210335 0.337045
O14   O     O_3   0.538377 0.056431 0.715823 -0.728064
H18   H     H_    0.553042 0.986533 0.789663 0.337040

loop_
_geom_bond_atom_site_label_1
_geom_bond_atom_site_label_2
_ccdc_geom_bond_type
Cu1   O8    S    
C8    C26   A    
C31   N1    A    
Cu2   O2    S    
C34   C42   A    
C41   N1    S    
C32   O11   S    
O14   H18   S    
C24   O6    A    
C39   C41   A    
C26   Br2   S    
Cu2   O7    S    
C25   Br1   S    
C19   C21   A    
C27   O13   S    
H3    N3    S    
C30   O10   S    
C9    C22   A    
H4    N4    S    
C29   O9    S    
C3    C18   A    
C11   C37   A    
C14   C18   A    
C36   H9    S    
C33   C35   A    
Cu1   O4    S    
C1    O1    A    
Cu2   O6    S    
C12   C36   A    
C42   N2    S    
C33   H12   S    
C40   C42   A    
C34   H11   S    
Cu2   N3    S    
C35   H10   S    
Cu1   N4    S    
C5    C29   A    
C10   C21   A    
C29   N1    A    
C13   C19   A    
C14   C20   A    
C4    C6    A    
C5    C7    A    
C15   C26   A    
C6    C8    A    
C19   H15   S    
C23   O5    A    
O13   H17   S    
Cu1   Cu2   S    
C21   H13   S    
C3    C9    A    
C23   O7    A    
Cu1   O1    S    
C4    C17   A    
C39   H5    S    
C20   C22   A    
C30   N2    A    
C20   H16   S    
C4    C10   A    
C3    C5    A    
C24   O8    A    
C16   C25   A    
C15   C17   A    
C8    H8    S    
C6    C30   A    
C28   O14   S    
C2    O2    A    
C22   H14   S    
C12   C24   S    
C2    O4    A    
C7    C25   A    
C13   C17   A    
C33   C41   A    
C11   C35   A    
C7    H7    S    
C37   C39   A    
C38   C40   A    
C31   O12   S    
C40   H6    S    
C11   C23   S    
C1    O3    A    
C34   C36   A    
C12   C38   A    
C38   H2    S    
C9    C31   A    
C32   N2    A    
N3    N4    D    
C10   C32   A    
C16   C18   A    
C13   C16   A    
C27   C28   D    
C1    C27   S    
C14   C15   A    
Cu2   O3    S    
C2    C28   S    
Cu1   O5    S    
C37   H1    S    
