data_str_m2_o40_o40_f0_fof.sym.36
_audit_creation_date              2012-10-26T17:12:27-0400
_audit_creation_method            fapswitch 2.2
_symmetry_space_group_name_H-M    P1
_symmetry_Int_Tables_number       1
_space_group_crystal_system       triclinic
_cell_length_a                    16.83115
_cell_length_b                    16.891555
_cell_length_c                    16.883629
_cell_angle_alpha                 67.843659
_cell_angle_beta                  67.90944
_cell_angle_gamma                 68.051775
_cell_volume                      3965.98652695

loop_
_atom_site_label
_atom_site_type_symbol
_atom_type_description
_atom_site_fract_x
_atom_site_fract_y
_atom_site_fract_z
_atom_type_partial_charge
C1    C     C_R   0.018146 0.830209 0.568258 0.557215
C2    C     C_R   0.027771 0.564648 0.828669 0.555768
C3    C     C_R   0.170731 0.978364 0.433060 0.561366
C4    C     C_R   0.828452 0.027876 0.564414 0.546296
C5    C     C_R   0.451961 0.066491 0.707517 -0.125346
C6    C     C_R   0.500174 0.065621 0.254573 -0.112121
C7    C     C_R   0.971710 0.727802 0.487057 -0.113255
C8    C     C_R   0.946037 0.290234 0.544501 -0.109817
C9    C     C_R   0.706284 0.456689 0.063801 -0.113138
C10   C     C_R   0.267790 0.507522 0.039270 -0.116521
C11   C     C_R   0.295588 0.959219 0.534268 -0.114396
C12   C     C_R   0.972458 0.171289 0.435328 0.548216
C13   C     C_R   0.702312 0.087134 0.450386 -0.124518
C14   C     C_R   0.543242 0.289331 0.953890 -0.117259
C15   C     C_R   0.482093 0.726644 0.978309 -0.111442
C16   C     C_R   0.030295 0.512276 0.271237 -0.111432
C17   C     C_R   0.057012 0.455333 0.708914 -0.113999
C18   C     C_R   0.534187 0.056494 0.533352 0.044738
C19   C     C_R   0.441898 0.030255 0.439450 0.044133
C20   C     C_R   0.009821 0.544276 0.550545 0.045088
C21   C     C_R   0.993655 0.448385 0.454859 0.045345
C22   C     C_R   0.546891 0.543203 0.018198 0.045547
C23   C     C_R   0.828971 0.565117 0.026527 0.562762
C24   C     C_R   0.451650 0.445605 0.003687 0.045374
C25   C     C_R   0.569405 0.068169 0.440581 0.012978
C26   C     C_R   0.407910 0.018803 0.532058 0.011392
C27   C     C_R   0.012451 0.453610 0.588976 0.011155
C28   C     C_R   0.004821 0.534426 0.412765 0.011854
C29   C     C_R   0.459880 0.583792 0.009028 0.011692
C30   C     C_R   0.542253 0.407830 0.002060 0.010360
C31   C     C_R   0.520009 0.060126 0.392452 0.012434
C32   C     C_R   0.449128 0.041618 0.576427 0.011449
C33   C     C_R   0.408612 0.530968 0.015916 0.010895
C34   C     C_R   0.169583 0.431549 0.982568 0.552440
C35   C     C_R   0.585384 0.452376 0.022376 0.011155
C36   C     C_R   0.991614 0.409876 0.545439 0.010680
C37   C     C_R   0.998696 0.586185 0.464470 0.011068
C38   C     C_R   0.406351 0.054137 0.661479 -0.144579
C39   C     C_R   0.545553 0.080624 0.299123 -0.132592
C40   C     C_R   0.976078 0.678735 0.434979 -0.138939
C41   C     C_R   0.964829 0.331599 0.590094 -0.138515
C42   C     C_R   0.663729 0.409061 0.049206 -0.140229
C43   C     C_R   0.315747 0.559247 0.038200 -0.143563
C44   C     C_R   0.337152 0.979315 0.578737 -0.137837
C45   C     C_R   0.565941 0.024220 0.828825 0.555314
C46   C     C_R   0.652389 0.088131 0.399917 -0.137129
C47   C     C_R   0.587781 0.330178 0.974869 -0.144706
C48   C     C_R   0.429294 0.676240 0.986434 -0.139509
C49   C     C_R   0.026912 0.564042 0.320114 -0.138821
C50   C     C_R   0.039233 0.409280 0.667235 -0.139308
C51   C     C_R   0.545093 0.054608 0.675550 -0.041686
C52   C     C_R   0.429282 0.025821 0.300847 -0.037922
C53   C     C_R   0.003370 0.686568 0.563766 -0.039568
C54   C     C_R   0.963833 0.318945 0.450732 -0.036009
C55   C     C_R   0.679051 0.550636 0.040652 -0.036005
C56   C     C_R   0.429419 0.990802 0.166380 0.572536
C57   C     C_R   0.310819 0.432891 0.004831 -0.039953
C58   C     C_R   0.318538 0.983326 0.440697 -0.036085
C59   C     C_R   0.673280 0.063308 0.544070 -0.042091
C60   C     C_R   0.449454 0.317665 0.969966 -0.038547
C61   C     C_R   0.561586 0.686981 0.005434 -0.038419
C62   C     C_R   0.998266 0.435702 0.312915 -0.036549
C63   C     C_R   0.038279 0.549051 0.680425 -0.036344
C64   C     C_R   0.600494 0.036957 0.730509 -0.018800
C65   C     C_R   0.386759 0.003023 0.256971 -0.027096
C66   C     C_R   0.020625 0.734208 0.607217 -0.026907
C67   C     C_R   0.435161 0.171333 0.973132 0.542633
C68   C     C_R   0.961049 0.269050 0.400410 -0.028786
C69   C     C_R   0.732174 0.602551 0.034687 -0.016273
C70   C     C_R   0.264918 0.391594 0.982661 -0.021439
C71   C     C_R   0.265600 0.981205 0.392238 -0.021572
C72   C     C_R   0.729666 0.041653 0.599196 -0.028742
C73   C     C_R   0.399915 0.268663 0.963829 -0.028521
C74   C     C_R   0.608506 0.736483 0.015209 -0.025338
C75   C     C_R   0.979791 0.392673 0.265742 -0.019365
C76   C     C_R   0.039668 0.599650 0.730773 -0.030413
C77   C     C_R   0.693260 0.018878 0.692322 0.235247
C78   C     C_R   0.568693 0.830976 0.016155 0.574640
C79   C     C_R   0.299677 0.995282 0.299483 0.218113
C80   C     C_R   0.042089 0.688681 0.689033 0.210988
C81   C     C_R   0.957748 0.311100 0.311630 0.217297
C82   C     C_R   0.695325 0.694594 0.025120 0.217612
C83   C     C_R   0.311394 0.310982 0.959289 0.217882
C84   C     C_R   0.584379 0.058098 0.584356 0.020936
C85   C     C_R   0.396593 0.013044 0.393622 0.023240
C86   C     C_R   0.017970 0.593345 0.598076 0.020365
C87   C     C_R   0.984517 0.401134 0.406120 0.019654
C88   C     C_R   0.595763 0.593741 0.022039 0.020484
C89   C     C_R   0.981822 0.431758 0.169811 0.558214
C90   C     C_R   0.403929 0.398709 0.992326 0.018417
C91   C     C_3   0.777621 0.880297 0.743348 -0.107340
C92   C     C_3   0.209582 0.094311 0.212751 -0.045418
C93   C     C_3   0.154444 0.713731 0.711046 -0.084705
C94   C     C_3   0.843921 0.289453 0.288710 -0.091719
C95   C     C_3   0.792609 0.781707 0.946533 -0.051207
C96   C     C_3   0.290581 0.292589 0.842877 -0.092272
Cu1   Cu    Cu3+1 0.995180 0.995180 0.424630 0.947265
Cu2   Cu    Cu3+1 0.004820 0.004820 0.575370 0.947084
Cu3   Cu    Cu3+1 0.995180 0.424630 0.995180 0.949695
Cu4   Cu    Cu3+1 0.004820 0.575370 0.004820 0.923587
Cu5   Cu    Cu3+1 0.424630 0.995180 0.995180 0.945838
Cu6   Cu    Cu3+1 0.575370 0.004820 0.004820 0.939906
H1    H     H_    0.411626 0.085158 0.767671 0.152827
H2    H     H_    0.459953 0.796163 0.946427 0.155187
H3    H     H_    0.061038 0.533544 0.201231 0.145268
H4    H     H_    0.088145 0.415301 0.761877 0.144351
H5    H     H_    0.336274 0.058088 0.691865 0.103499
H6    H     H_    0.599110 0.110919 0.258159 0.100524
H7    H     H_    0.955415 0.713957 0.374464 0.111832
H8    H     H_    0.952606 0.304827 0.661465 0.106358
H9    H     H_    0.690026 0.337621 0.063728 0.101157
H10   H     H_    0.279485 0.618835 0.060029 0.107602
H11   H     H_    0.315530 0.959807 0.650625 0.103200
H12   H     H_    0.519470 0.090069 0.183037 0.152985
H13   H     H_    0.682207 0.102155 0.329110 0.099053
H14   H     H_    0.659235 0.303976 0.963366 0.106482
H15   H     H_    0.367508 0.710456 0.967878 0.105641
H16   H     H_    0.047652 0.624549 0.284613 0.107888
H17   H     H_    0.051935 0.337944 0.693888 0.104202
H18   H     H_    0.793009 0.872620 0.676002 0.101939
H19   H     H_    0.726101 0.845491 0.789873 0.092339
H20   H     H_    0.840665 0.847082 0.762827 0.150405
H21   H     H_    0.261782 0.128025 0.165339 0.117272
H22   H     H_    0.168941 0.128912 0.265575 0.120435
H23   H     H_    0.940263 0.797560 0.466096 0.158254
H24   H     H_    0.164721 0.100621 0.175272 0.161811
H25   H     H_    0.185194 0.735462 0.638118 0.106371
H26   H     H_    0.184799 0.641794 0.738126 0.106653
H27   H     H_    0.169877 0.750894 0.742834 0.133311
H28   H     H_    0.813293 0.362270 0.267186 0.108011
H29   H     H_    0.814301 0.262362 0.361003 0.099957
H30   H     H_    0.827429 0.257683 0.252323 0.127060
H31   H     H_    0.852533 0.788735 0.953294 0.152453
H32   H     H_    0.754540 0.849431 0.918133 0.165403
H33   H     H_    0.816235 0.741056 0.899057 0.089956
H34   H     H_    0.914597 0.237504 0.585080 0.151269
H35   H     H_    0.363167 0.265931 0.813986 0.103216
H36   H     H_    0.269387 0.365704 0.813338 0.100588
H37   H     H_    0.254659 0.261857 0.824400 0.129344
H38   H     H_    0.759710 0.417928 0.094615 0.144049
H39   H     H_    0.197353 0.527307 0.069421 0.145874
H40   H     H_    0.247101 0.922357 0.575201 0.143880
H41   H     H_    0.763492 0.106007 0.413881 0.144800
H42   H     H_    0.584896 0.237803 0.921576 0.153832
O1    O     O_R   0.124540 0.978640 0.385460 -0.444693
O2    O     O_R   0.124540 0.385460 0.978640 -0.454744
O3    O     O_R   0.021360 0.875460 0.614540 -0.454294
O4    O     O_R   0.978640 0.124540 0.385460 -0.463787
O5    O     O_R   0.013780 0.867370 0.487190 -0.534426
O6    O     O_R   0.986220 0.132630 0.512810 -0.536374
O7    O     O_R   0.867370 0.487190 0.013780 -0.532507
O8    O     O_R   0.132630 0.512810 0.986220 -0.547229
O9    O     O_R   0.487190 0.013780 0.867370 -0.549880
O10   O     O_R   0.512810 0.986220 0.132630 -0.524795
O11   O     O_R   0.512810 0.132630 0.986220 -0.551942
O12   O     O_R   0.875460 0.021360 0.614540 -0.456746
O13   O     O_R   0.487190 0.867370 0.013780 -0.531138
O14   O     O_R   0.986220 0.512810 0.132630 -0.540176
O15   O     O_R   0.013780 0.487190 0.867370 -0.531759
O16   O     O_R   0.132630 0.986220 0.512810 -0.535250
O17   O     O_R   0.867370 0.013780 0.487190 -0.544875
O18   O     O_3   0.749375 0.969543 0.746635 -0.535866
O19   O     O_3   0.246897 0.003029 0.249260 -0.525416
O20   O     O_3   0.061059 0.733067 0.731015 -0.530733
O21   O     O_3   0.937451 0.269613 0.267764 -0.526334
O22   O     O_3   0.742709 0.742608 0.032079 -0.525005
O23   O     O_R   0.978640 0.385460 0.124540 -0.454993
O24   O     O_3   0.268302 0.270620 0.936473 -0.525262
O25   O     O_R   0.021360 0.614540 0.875460 -0.460842
O26   O     O_R   0.385460 0.124540 0.978640 -0.465885
O27   O     O_R   0.614540 0.875460 0.021360 -0.458234
O28   O     O_R   0.614540 0.021360 0.875460 -0.468745
O29   O     O_R   0.385460 0.978640 0.124540 -0.446144
O30   O     O_R   0.875460 0.614540 0.021360 -0.462752

loop_
_geom_bond_atom_site_label_1
_geom_bond_atom_site_label_2
_ccdc_geom_bond_type
C25   C31   A    
C21   C87   A    
C26   C32   A    
Cu5   Cu6   S    
C65   C79   A    
C22   C29   A    
Cu3   O15   S    
C8    H34   S    
C64   C77   A    
C23   C69   S    
Cu5   O29   S    
C19   C31   A    
C96   H37   S    
C71   C79   A    
Cu1   Cu2   S    
C66   C80   A    
C26   C44   A    
C89   O14   A    
C23   O30   A    
Cu4   O8    S    
C62   C87   A    
C22   C35   A    
C12   C68   S    
Cu2   O6    S    
C9    C42   A    
C94   H28   S    
C30   C35   A    
C68   C81   A    
C80   O20   S    
C52   C85   A    
C95   O22   S    
C37   C40   A    
C92   H22   S    
C96   H36   S    
C54   C87   A    
C77   O18   S    
C9    H38   S    
C58   C71   A    
C54   C68   A    
C63   C76   A    
C56   C65   S    
C29   C33   A    
C60   C73   A    
C95   H31   S    
C67   O11   A    
C38   H5    S    
C35   C42   A    
C19   C26   A    
C6    H12   S    
C23   O7    A    
C69   C82   A    
C89   O23   A    
Cu3   Cu4   S    
C2    O15   A    
C91   H20   S    
C20   C86   A    
C18   C84   A    
C7    C40   A    
C96   O24   S    
C91   O18   S    
C1    O5    A    
C53   C86   A    
C9    C55   A    
C32   C38   A    
C57   C70   A    
C11   C58   A    
C34   C70   S    
C27   C50   A    
C59   C72   A    
C10   C43   A    
Cu5   O13   S    
C5    C38   A    
C4    O17   A    
C5    H1    S    
C36   C41   A    
C39   H6    S    
C18   C25   A    
C16   C62   A    
C15   C48   A    
C74   C82   A    
C93   H27   S    
C94   O21   S    
C24   C33   A    
Cu3   O23   S    
C67   O26   A    
Cu6   O28   S    
C47   H14   S    
Cu2   O12   S    
C57   C90   A    
C51   C64   A    
C29   C48   A    
C50   H17   S    
C33   C43   A    
C12   O6    A    
C30   C47   A    
C11   C44   A    
C10   C57   A    
C16   C49   A    
C56   O10   A    
C92   H21   S    
C8    C54   A    
C96   H35   S    
C21   C36   A    
C34   O8    A    
C75   C81   A    
C93   O20   S    
Cu3   O7    S    
C95   H32   S    
C94   H30   S    
C24   C90   A    
C10   H39   S    
C3    C71   S    
C42   H9    S    
C93   H25   S    
C72   C77   A    
C70   C83   A    
C61   C88   A    
C28   C49   A    
C78   O13   A    
C49   H16   S    
C14   H42   S    
Cu5   O9    S    
Cu6   O11   S    
C95   H33   S    
C1    C66   S    
C15   C61   A    
C40   H7    S    
Cu5   O26   S    
C8    C41   A    
C53   C66   A    
C55   C69   A    
C16   H3    S    
C67   C73   S    
C46   H13   S    
C92   O19   S    
C7    H23   S    
Cu3   O2    S    
Cu2   O16   S    
C44   H11   S    
C3    O1    A    
C22   C88   A    
C41   H8    S    
C63   C86   A    
Cu4   O30   S    
C3    O16   A    
C15   H2    S    
Cu1   O4    S    
C62   C75   A    
C1    O3    A    
C18   C32   A    
C43   H10   S    
C7    C53   A    
C58   C85   A    
C4    C72   S    
C2    C76   S    
C82   O22   S    
Cu6   O27   S    
Cu6   O10   S    
Cu1   O5    S    
C4    O12   A    
Cu4   O25   S    
C91   H18   S    
Cu1   O1    S    
C21   C28   A    
Cu2   O3    S    
C94   H29   S    
C79   O19   S    
C19   C85   A    
C92   H24   S    
C17   C50   A    
C76   C80   A    
C14   C47   A    
C13   C59   A    
C20   C27   A    
C60   C90   A    
C61   C74   A    
C14   C60   A    
C83   O24   S    
C45   C64   S    
Cu1   O17   S    
C59   C84   A    
C56   O29   A    
C27   C36   A    
C12   O4    A    
C93   H26   S    
C45   O28   A    
C17   H4    S    
C17   C63   A    
C20   C37   A    
C34   O2    A    
C13   C46   A    
C28   C37   A    
C51   C84   A    
C78   O27   A    
C31   C39   A    
C55   C88   A    
C91   H19   S    
C13   H41   S    
C11   H40   S    
C24   C30   A    
C48   H15   S    
C2    O25   A    
Cu4   O14   S    
C45   O9    A    
C74   C78   S    
C75   C89   S    
C81   O21   S    
C6    C39   A    
C5    C51   A    
C6    C52   A    
C25   C46   A    
C73   C83   A    
C52   C65   A    
