data_str_m9_o10_o29_f0_sra.sym.84
_audit_creation_date              2012-12-11T14:08:46-0500
_audit_creation_method            fapswitch 2.2
_symmetry_space_group_name_H-M    P1
_symmetry_Int_Tables_number       1
_space_group_crystal_system       triclinic
_cell_length_a                    28.165692
_cell_length_b                    7.216462
_cell_length_c                    17.185746
_cell_angle_alpha                 89.99964
_cell_angle_beta                  101.916351
_cell_angle_gamma                 90.00021
_cell_volume                      3417.84076361

loop_
_atom_site_label
_atom_site_type_symbol
_atom_type_description
_atom_site_fract_x
_atom_site_fract_y
_atom_site_fract_z
_atom_type_partial_charge
O1    O     O_R   0.000700 0.436510 0.857920 -0.532396
O2    O     O_R   0.999300 0.563490 0.142080 -0.534488
O3    O     O_R   0.999300 0.936510 0.642080 -0.532395
O4    O     O_R   0.000700 0.063490 0.357920 -0.534487
O5    O     O_R   0.930080 0.766380 0.721890 -0.541068
O6    O     O_R   0.069920 0.233620 0.278110 -0.542544
O7    O     O_R   0.069920 0.266380 0.778110 -0.541071
O8    O     O_R   0.930080 0.733620 0.221890 -0.542544
C1    C     C_R   0.910664 0.597773 0.708636 0.718170
C2    C     C_R   0.089318 0.402405 0.290435 0.716731
C3    C     C_R   0.089336 0.097773 0.791365 0.718172
C4    C     C_R   0.910681 0.902404 0.209564 0.716731
O9    O     O_R   0.996180 0.766230 0.862310 -0.544825
O10   O     O_R   0.003820 0.233770 0.137690 -0.542601
O11   O     O_R   0.003820 0.266230 0.637690 -0.544826
O12   O     O_R   0.996180 0.733770 0.362310 -0.542601
O13   O     O_R   0.065870 0.936460 0.783500 -0.537953
O14   O     O_R   0.934130 0.063540 0.216500 -0.535892
O15   O     O_R   0.934130 0.436460 0.716500 -0.537950
O16   O     O_R   0.065870 0.563540 0.283500 -0.535893
C5    C     C_R   0.998488 0.596442 0.894432 0.758810
C6    C     C_R   0.001520 0.403562 0.105571 0.758607
C7    C     C_R   0.001512 0.096443 0.605568 0.758809
C8    C     C_R   0.998480 0.903562 0.394429 0.758606
O17   O     O_3   0.022790 0.603020 0.723980 -0.378267
O18   O     O_3   0.977210 0.396980 0.276020 -0.379440
O19   O     O_3   0.977210 0.103020 0.776020 -0.378263
O20   O     O_3   0.022790 0.896980 0.223980 -0.379441
V1    V     V_3+5 0.995770 0.877900 0.754830 1.418581
V2    V     V_3+5 0.004230 0.122100 0.245170 1.412246
V3    V     V_3+5 0.004230 0.377900 0.745170 1.418579
V4    V     V_3+5 0.995770 0.622100 0.254830 1.412246
C9    C     C_2   0.001692 0.082466 0.519556 -0.330202
C10   C     C_2   0.998290 0.917547 0.480437 -0.327098
C11   C     C_2   0.998308 0.582466 0.980444 -0.330202
C12   C     C_2   0.001710 0.417548 0.019564 -0.327099
H1    H     H_    0.004474 0.210859 0.487819 0.153187
H2    H     H_    0.995506 0.789155 0.512173 0.153709
H3    H     H_    0.995526 0.710859 0.012180 0.153187
H4    H     H_    0.004494 0.289155 0.987827 0.153710
C13   C     C_R   0.683825 0.993368 0.030159 0.578369
C14   C     C_R   0.317156 0.086972 0.977408 0.562145
C15   C     C_R   0.316177 0.493334 0.469837 0.578354
C16   C     C_R   0.682844 0.587036 0.522584 0.562155
O21   O     O_2   0.713612 0.014955 0.978580 -0.517351
O22   O     O_2   0.288243 0.125760 0.028854 -0.516410
O23   O     O_2   0.286391 0.514870 0.521421 -0.517361
O24   O     O_2   0.711758 0.625853 0.471141 -0.516407
N1    N     N_R   0.703022 0.962510 0.109084 -0.543126
N2    N     N_R   0.297157 0.061875 0.898369 -0.559333
N3    N     N_R   0.296978 0.462541 0.390908 -0.543123
N4    N     N_R   0.702844 0.561892 0.601620 -0.559331
C17   C     C_R   0.673536 0.949698 0.163146 0.612769
C18   C     C_R   0.325921 0.027373 0.844691 0.558809
C19   C     C_R   0.326464 0.449802 0.336841 0.612786
C20   C     C_R   0.674081 0.527329 0.655294 0.558794
C21   C     C_R   0.781932 0.087324 0.180084 0.224242
C22   C     C_R   0.223112 0.229680 0.830998 0.221762
C23   C     C_R   0.218066 0.587346 0.319912 0.224242
C24   C     C_R   0.776888 0.729666 0.669016 0.221740
C25   C     C_R   0.832512 0.071916 0.204087 -0.251302
C26   C     C_R   0.172522 0.238494 0.805976 -0.150405
C27   C     C_R   0.167486 0.571929 0.295911 -0.251308
C28   C     C_R   0.827477 0.738471 0.694045 -0.150395
C29   C     C_R   0.829846 0.767926 0.144050 -0.168462
C30   C     C_R   0.165150 0.929747 0.857147 -0.155984
C31   C     C_R   0.170157 0.267929 0.355940 -0.168469
C32   C     C_R   0.834852 0.429773 0.642830 -0.155985
C33   C     C_R   0.779363 0.783035 0.118155 0.165260
C34   C     C_R   0.215501 0.921175 0.884592 0.214590
C35   C     C_R   0.220640 0.283044 0.381833 0.165268
C36   C     C_R   0.784501 0.421207 0.615382 0.214601
C37   C     C_R   0.755019 0.944458 0.135628 0.353229
C38   C     C_R   0.245044 0.071063 0.871286 0.281718
C39   C     C_R   0.244981 0.444479 0.364364 0.353223
C40   C     C_R   0.754957 0.571077 0.628705 0.281718
C41   C     C_R   0.602340 0.992369 0.057145 -0.045651
C42   C     C_R   0.397942 0.041433 0.950821 -0.045088
C43   C     C_R   0.397661 0.492405 0.442846 -0.045650
C44   C     C_R   0.602059 0.541451 0.549168 -0.045088
C45   C     C_R   0.633203 0.003103 0.002451 -0.036250
C46   C     C_R   0.367711 0.072433 0.005352 -0.031143
C47   C     C_R   0.366799 0.503058 0.497545 -0.036246
C48   C     C_R   0.632289 0.572514 0.494641 -0.031140
C49   C     C_R   0.612956 0.024186 0.921475 -0.123259
C50   C     C_R   0.388562 0.089242 0.086326 -0.126509
C51   C     C_R   0.387047 0.524052 0.578524 -0.123257
C52   C     C_R   0.611437 0.589401 0.413670 -0.126515
C53   C     C_R   0.622826 0.968426 0.138470 -0.039142
C54   C     C_R   0.376798 0.021447 0.869536 -0.029873
C55   C     C_R   0.377173 0.468543 0.361518 -0.039155
C56   C     C_R   0.623204 0.521391 0.630449 -0.029869
C57   C     C_R   0.856984 0.913344 0.185863 -0.123448
C58   C     C_R   0.143009 0.088510 0.818170 -0.173272
C59   C     C_R   0.143016 0.413349 0.314133 -0.123447
C60   C     C_R   0.856991 0.588510 0.681830 -0.173266
H5    H     H_    0.847958 0.643908 0.129689 0.153873
H6    H     H_    0.143271 0.812762 0.867937 0.157264
H7    H     H_    0.152046 0.143903 0.370298 0.153870
H8    H     H_    0.856731 0.312806 0.632024 0.157256
H9    H     H_    0.635843 0.035463 0.878179 0.174716
H10   H     H_    0.366276 0.115923 0.129502 0.179905
H11   H     H_    0.364161 0.535264 0.621824 0.174713
H12   H     H_    0.633723 0.616134 0.370497 0.179908
C61   C     C_R   0.479457 0.013100 0.921202 0.036526
C62   C     C_R   0.520638 0.009235 0.086922 0.036751
C63   C     C_R   0.520546 0.513038 0.578786 0.036527
C64   C     C_R   0.479361 0.509358 0.413067 0.036747
C65   C     C_R   0.469745 0.035890 0.060271 0.034602
C66   C     C_R   0.530806 0.015362 0.947792 0.034006
C67   C     C_R   0.530255 0.536002 0.439720 0.034611
C68   C     C_R   0.469196 0.515303 0.552199 0.034002
C69   C     C_R   0.449231 0.030183 0.977529 0.065316
C70   C     C_R   0.551079 0.005767 0.030538 0.067907
C71   C     C_R   0.550770 0.530206 0.522460 0.065313
C72   C     C_R   0.448921 0.505800 0.469452 0.067909
C73   C     C_R   0.457072 0.992002 0.840042 -0.187183
C74   C     C_R   0.542296 0.983548 0.168154 -0.184788
C75   C     C_R   0.542932 0.491850 0.659941 -0.187180
C76   C     C_R   0.457701 0.483765 0.331829 -0.184793
C77   C     C_R   0.406784 0.994455 0.814988 -0.138464
C78   C     C_R   0.592298 0.961891 0.193159 -0.136750
C79   C     C_R   0.593219 0.494311 0.684993 -0.138459
C80   C     C_R   0.407700 0.462102 0.306824 -0.136757
O25   O     O_2   0.305376 0.998478 0.767508 -0.519903
O26   O     O_2   0.693168 0.918648 0.240523 -0.514165
O27   O     O_2   0.694627 0.498385 0.732473 -0.519900
O28   O     O_2   0.306830 0.418811 0.259460 -0.514165
C81   C     C_R   0.562820 0.028520 0.894487 -0.185398
C82   C     C_R   0.438467 0.069734 0.113445 -0.187290
C83   C     C_R   0.437183 0.528376 0.605510 -0.185403
C84   C     C_R   0.561531 0.569916 0.386551 -0.187284
H13   H     H_    0.156438 0.362053 0.775689 0.163995
H14   H     H_    0.852591 0.184324 0.237559 0.146531
H15   H     H_    0.843562 0.862006 0.724353 0.163993
H16   H     H_    0.147406 0.684339 0.262442 0.146533
H17   H     H_    0.391499 0.976346 0.752229 0.168873
H18   H     H_    0.606969 0.941036 0.255962 0.165257
H19   H     H_    0.608505 0.476133 0.747748 0.168867
H20   H     H_    0.393028 0.441317 0.244018 0.165282
H21   H     H_    0.477518 0.967317 0.794497 0.122429
H22   H     H_    0.521278 0.973656 0.213789 0.122614
H23   H     H_    0.522487 0.467085 0.705480 0.122421
H24   H     H_    0.478718 0.473950 0.286190 0.122630
H25   H     H_    0.550170 0.047856 0.831405 0.122810
H26   H     H_    0.451725 0.087327 0.176492 0.123645
H27   H     H_    0.449835 0.547640 0.668596 0.122823
H28   H     H_    0.548273 0.587579 0.323507 0.123621
N5    N     N_3   0.753411 0.632213 0.074659 -0.652010
H29   H     H_    0.738829 0.676676 0.016867 0.275969
H30   H     H_    0.724676 0.595862 0.101614 0.242200
N6    N     N_3   0.236077 0.758271 0.925653 -0.638317
H31   H     H_    0.250530 0.793933 0.984691 0.262686
H32   H     H_    0.264761 0.715154 0.900096 0.246505
N7    N     N_3   0.246594 0.132214 0.425318 -0.652029
H33   H     H_    0.261175 0.176653 0.483113 0.275984
H34   H     H_    0.275329 0.095884 0.398360 0.242201
N8    N     N_3   0.763926 0.258323 0.574304 -0.638331
H35   H     H_    0.749479 0.294013 0.515267 0.262690
H36   H     H_    0.735236 0.215201 0.599848 0.246472
N9    N     N_3   0.251720 0.383550 0.815077 -0.634792
H37   H     H_    0.271986 0.341465 0.773719 0.267470
H38   H     H_    0.276153 0.417084 0.867624 0.235448
N10   N     N_3   0.757764 0.248643 0.200891 -0.629505
H39   H     H_    0.763512 0.254321 0.262920 0.253619
H40   H     H_    0.774640 0.364542 0.182337 0.247495
N11   N     N_3   0.748280 0.883518 0.684955 -0.634761
H41   H     H_    0.727996 0.841373 0.726279 0.267473
H42   H     H_    0.723864 0.917144 0.632401 0.235454
N12   N     N_3   0.242231 0.748676 0.299108 -0.629499
H43   H     H_    0.236485 0.754357 0.237079 0.253629
H44   H     H_    0.225350 0.864566 0.317661 0.247496

loop_
_geom_bond_atom_site_label_1
_geom_bond_atom_site_label_2
_ccdc_geom_bond_type
O17   V3    S    
C47   C51   A    
C61   C66   A    
N1    C17   A    
O1    C5    A    
C30   H6    S    
C79   H19   S    
O19   V1    S    
O13   V1    S    
C63   C68   A    
C64   C76   A    
O3    C7    A    
C11   C12   D    
C14   C46   A    
C44   C48   A    
O15   V3    S    
N9    H37   S    
O4    V2    S    
N11   H42   S    
C42   C54   A    
O7    C3    A    
C41   C53   A    
C32   C60   A    
C62   C70   A    
C26   H13   S    
O9    V1    S    
N10   H39   S    
N3    C39   S    
C18   C54   A    
N5    H30   S    
C74   C78   A    
O4    C8    A    
C25   C57   A    
C82   H26   S    
C31   C35   A    
N7    H34   S    
C53   C78   A    
C77   H17   S    
C27   C59   A    
C15   C47   A    
O1    V3    S    
C36   N8    S    
C66   C81   A    
O2    V4    S    
C14   O22   S    
C20   O27   S    
C51   C83   A    
O3    V1    S    
C73   C77   A    
C34   C38   A    
C19   C55   A    
C49   C81   A    
C1    O15   A    
C2    O16   A    
C7    C9    S    
C76   H24   S    
O2    C6    A    
C83   H27   S    
O14   V2    S    
C23   N12   S    
C66   C70   A    
C43   C55   A    
C65   C69   A    
C30   C58   A    
C16   N4    A    
O11   C7    A    
C28   H15   S    
C35   N7    S    
O12   C8    A    
C43   C72   A    
C62   C74   A    
C31   C59   A    
C61   C73   A    
O10   V2    S    
C63   C75   A    
N9    H38   S    
C21   C37   A    
C25   H14   S    
O5    V1    S    
C75   H23   S    
C18   O25   S    
N7    H33   S    
C24   N11   S    
O7    V3    S    
N4    C20   A    
O8    V4    S    
C12   H4    S    
C34   N6    S    
C78   H18   S    
C56   C79   A    
N11   H41   S    
O18   V4    S    
C50   C82   A    
C16   C48   A    
C46   C50   A    
O11   V3    S    
C24   C40   A    
C8    C10   S    
C32   C36   A    
C84   H28   S    
C44   C56   A    
C11   H3    S    
C32   H8    S    
O5    C1    A    
C42   C46   A    
C44   C71   A    
C41   C45   A    
O8    C4    A    
C13   C45   A    
C9    C10   D    
O9    C5    A    
C36   C40   A    
N2    C18   A    
N6    H31   S    
C33   C37   A    
C1    C60   S    
C28   C60   A    
C22   C26   A    
C14   N2    A    
C51   H11   S    
C3    C58   S    
O6    V2    S    
N6    H32   S    
C75   C79   A    
C55   C80   A    
C26   C58   A    
C17   C53   A    
N8    H35   S    
C54   C77   A    
N1    C37   S    
C4    C57   S    
C42   C69   A    
C52   C84   A    
O10   C6    A    
C41   C70   A    
C50   H10   S    
C23   C39   A    
C68   C72   A    
C49   H9    S    
C73   H21   S    
C22   C38   A    
O16   V4    S    
C61   C69   A    
C3    O13   A    
C10   H2    S    
C81   H25   S    
C80   H20   S    
C48   C52   A    
C74   H22   S    
O6    C2    A    
C21   C25   A    
C5    C11   S    
C31   H7    S    
O12   V4    S    
C13   N1    A    
C6    C12   S    
C23   C27   A    
C64   C67   A    
N4    C40   S    
C24   C28   A    
C33   N5    S    
C27   H16   S    
C64   C72   A    
N2    C38   S    
C29   H5    S    
O20   V2    S    
N5    H29   S    
C35   C39   A    
N8    H36   S    
C15   N3    A    
C30   C34   A    
C21   N10   S    
N12   H44   S    
C2    C59   S    
C29   C33   A    
N10   H40   S    
C29   C57   A    
C63   C71   A    
N3    C19   A    
C68   C83   A    
C9    H1    S    
C17   O26   S    
C43   C47   A    
C76   C80   A    
C67   C84   A    
C20   C56   A    
C19   O28   S    
N12   H43   S    
C4    O14   A    
C65   C82   A    
C13   O21   S    
C67   C71   A    
C22   N9    S    
C15   O23   S    
C52   H12   S    
C45   C49   A    
C16   O24   S    
C62   C65   A    
