data_str_m3_o14_o14_f0_pcu.sym.218
_audit_creation_date              2012-12-10T17:40:58-0500
_audit_creation_method            fapswitch 2.2
_symmetry_space_group_name_H-M    P1
_symmetry_Int_Tables_number       1
_space_group_crystal_system       triclinic
_cell_length_a                    14.733604
_cell_length_b                    15.386555
_cell_length_c                    9.978369
_cell_angle_alpha                 90.002223
_cell_angle_beta                  91.14567
_cell_angle_gamma                 90.000741
_cell_volume                      2261.63813703

loop_
_atom_site_label
_atom_site_type_symbol
_atom_type_description
_atom_site_fract_x
_atom_site_fract_y
_atom_site_fract_z
_atom_type_partial_charge
C1    C     C_R   0.382977 0.878050 0.499493 0.844453
C2    C     C_R   0.379306 0.118504 0.498655 0.961471
C3    C     C_R   0.879313 0.381490 0.498654 0.961392
C4    C     C_R   0.882978 0.621951 0.499496 0.844445
C5    C     C_R   0.330256 0.263441 0.451698 -0.092410
C6    C     C_R   0.245035 0.813943 0.419866 -0.204117
C7    C     C_R   0.745047 0.686063 0.419847 -0.204130
C8    C     C_R   0.830280 0.236538 0.451771 -0.092486
C9    C     C_R   0.681449 0.750354 0.421713 -0.230592
C10   C     C_R   0.765824 0.172594 0.455522 -0.119429
C11   C     C_R   0.265802 0.327386 0.455442 -0.119408
C12   C     C_R   0.181435 0.749654 0.421741 -0.230579
C13   C     C_R   0.695626 0.823191 0.502257 -0.046871
C14   C     C_R   0.680039 0.191714 0.503441 -0.056396
C15   C     C_R   0.180031 0.308278 0.503424 -0.056401
C16   C     C_R   0.195619 0.676816 0.502270 -0.046877
C17   C     C_R   0.329476 0.998786 0.127635 0.633935
C18   C     C_R   0.829479 0.501226 0.127635 0.633960
C19   C     C_R   0.249814 0.997010 0.050562 -0.223048
C20   C     C_R   0.749821 0.503026 0.050564 -0.223052
C21   C     C_R   0.252719 0.996799 0.913190 -0.290716
C22   C     C_R   0.752725 0.503240 0.913191 -0.290740
C23   C     C_R   0.335592 0.998449 0.851153 -0.123450
C24   C     C_R   0.835593 0.501568 0.851154 -0.123440
C25   C     C_R   0.418426 0.999239 0.924108 0.107463
C26   C     C_R   0.918426 0.500767 0.924108 0.107478
C27   C     C_R   0.417291 0.999330 0.068453 0.030482
C28   C     C_R   0.917291 0.500675 0.068453 0.030482
C29   C     C_R   0.578014 0.000599 0.073691 -0.102166
C30   C     C_R   0.078015 0.499399 0.073691 -0.102165
C31   C     C_R   0.617211 0.121954 0.500993 0.999093
C32   C     C_R   0.623590 0.884204 0.501009 0.917418
C33   C     C_R   0.123589 0.615797 0.501012 0.917440
C34   C     C_R   0.117207 0.378042 0.500989 0.999062
C35   C     C_R   0.577948 0.000626 0.931152 -0.061122
C36   C     C_R   0.077949 0.499372 0.931152 -0.061112
C37   C     C_R   0.196066 0.069851 0.557864 -0.277852
C38   C     C_R   0.423723 0.721840 0.652652 -0.289935
C39   C     C_R   0.923710 0.778162 0.652695 -0.289962
C40   C     C_R   0.696068 0.430151 0.557785 -0.277823
C41   C     C_R   0.108457 0.048877 0.596108 -0.356094
C42   C     C_R   0.438010 0.650040 0.734937 -0.366085
C43   C     C_R   0.937993 0.849964 0.734990 -0.366069
C44   C     C_R   0.608448 0.451132 0.595961 -0.356050
C45   C     C_R   0.873298 0.915345 0.739368 0.697235
C46   C     C_R   0.544968 0.385549 0.613405 0.662303
C47   C     C_R   0.044981 0.114462 0.613559 0.662323
C48   C     C_R   0.373311 0.584662 0.739333 0.697251
C49   C     C_R   0.795092 0.910642 0.658430 0.481973
C50   C     C_R   0.568100 0.299043 0.590342 0.460327
C51   C     C_R   0.068104 0.200961 0.590418 0.460302
C52   C     C_R   0.295097 0.589365 0.658418 0.482046
C53   C     C_R   0.776222 0.835018 0.580434 -0.133173
C54   C     C_R   0.655337 0.276746 0.543777 -0.126371
C55   C     C_R   0.155334 0.223252 0.543804 -0.126340
C56   C     C_R   0.276222 0.664988 0.580431 -0.133211
C57   C     C_R   0.220587 0.157192 0.533222 0.032922
C58   C     C_R   0.341503 0.731744 0.578189 0.038587
C59   C     C_R   0.841499 0.768259 0.578206 0.038585
C60   C     C_R   0.720593 0.342806 0.533190 0.032935
C61   C     C_R   0.308516 0.180244 0.494560 -0.011793
C62   C     C_R   0.323242 0.806003 0.498735 -0.035046
C63   C     C_R   0.823244 0.693999 0.498741 -0.035059
C64   C     C_R   0.808527 0.319747 0.494562 -0.011775
H1    H     H_    0.397531 0.279019 0.416798 0.159589
H2    H     H_    0.231675 0.871418 0.359970 0.200846
H3    H     H_    0.731692 0.628590 0.359936 0.200841
H4    H     H_    0.897563 0.220951 0.416923 0.159567
H5    H     H_    0.190259 0.995741 0.854224 0.197687
H6    H     H_    0.690267 0.504310 0.854224 0.197682
H7    H     H_    0.331599 0.999222 0.745391 0.212719
H8    H     H_    0.831595 0.500791 0.745393 0.212720
H9    H     H_    0.641977 0.001161 0.880059 0.203998
H10   H     H_    0.141980 0.498838 0.880059 0.203995
H11   H     H_    0.243524 0.017115 0.544337 0.172400
H12   H     H_    0.477977 0.768845 0.648270 0.201778
H13   H     H_    0.977959 0.731154 0.648331 0.201793
H14   H     H_    0.743530 0.482886 0.544260 0.172428
H15   H     H_    0.090077 0.981700 0.613183 0.190665
H16   H     H_    0.500141 0.644599 0.794148 0.192781
H17   H     H_    0.000119 0.855403 0.794224 0.192779
H18   H     H_    0.590057 0.518314 0.612962 0.190671
H19   H     H_    0.619464 0.742167 0.362493 0.161324
H20   H     H_    0.783164 0.107536 0.422801 0.165798
H21   H     H_    0.283136 0.392435 0.422671 0.165795
H22   H     H_    0.119442 0.757842 0.362537 0.161317
H23   H     H_    0.642041 0.001091 0.128675 0.158068
H24   H     H_    0.142043 0.498906 0.128676 0.158062
H25   H     H_    0.184545 0.996328 0.098702 0.188116
H26   H     H_    0.684553 0.503717 0.098705 0.188114
N1    N     N_R   0.498810 0.000000 0.142780 -0.107577
N2    N     N_R   0.998810 0.500000 0.142780 -0.107577
N3    N     N_R   0.498740 0.000000 0.857170 -0.111089
N4    N     N_R   0.998740 0.500000 0.857170 -0.111082
O1    O     O_R   0.408390 0.908380 0.614690 -0.672756
O2    O     O_R   0.408390 0.091620 0.614690 -0.594125
O3    O     O_R   0.908390 0.408380 0.614690 -0.594115
O4    O     O_R   0.908390 0.591620 0.614690 -0.672761
O5    O     O_R   0.408370 0.908380 0.385360 -0.549665
O6    O     O_R   0.408370 0.091620 0.385360 -0.563677
O7    O     O_R   0.908370 0.408380 0.385360 -0.563652
O8    O     O_R   0.908370 0.591620 0.385360 -0.549686
O9    O     O_R   0.591620 0.091610 0.614640 -0.507683
O10   O     O_R   0.591620 0.908390 0.614640 -0.594489
O11   O     O_R   0.091620 0.591610 0.614640 -0.594490
O12   O     O_R   0.091620 0.408390 0.614640 -0.507657
O13   O     O_R   0.591610 0.091610 0.385310 -0.651398
O14   O     O_R   0.591610 0.908390 0.385310 -0.635834
O15   O     O_R   0.091610 0.591610 0.385310 -0.635829
O16   O     O_R   0.091610 0.408390 0.385310 -0.651415
Zn1   Zn    Zn3+2 0.500010 0.000000 0.653130 1.020575
Zn2   Zn    Zn3+2 0.000010 0.500000 0.653130 1.020584
Zn3   Zn    Zn3+2 0.499980 0.000000 0.346870 1.004139
Zn4   Zn    Zn3+2 0.999980 0.500000 0.346870 1.004137
F1    F     F_    0.887037 0.984550 0.821418 -0.586341
F2    F     F_    0.459771 0.405597 0.651260 -0.587276
F3    F     F_    0.959810 0.094422 0.651529 -0.587190
F4    F     F_    0.387051 0.515461 0.821380 -0.586394
F5    F     F_    0.741410 0.981987 0.654139 -0.651447
F6    F     F_    0.504938 0.238453 0.617088 -0.660033
F7    F     F_    0.004954 0.261555 0.617166 -0.660027
F8    F     F_    0.241409 0.518021 0.654141 -0.651409
F9    F     F_    0.314171 0.000803 0.258530 -0.678156
F10   F     F_    0.814170 0.499182 0.258524 -0.678154

loop_
_geom_bond_atom_site_label_1
_geom_bond_atom_site_label_2
_ccdc_geom_bond_type
C58   C62   A    
C42   H16   S    
C40   C60   A    
C4    O4    A    
C13   C32   S    
C14   C31   S    
C1    C62   S    
C1    O5    A    
C53   C59   A    
C54   C60   A    
C3    C64   S    
C25   N3    A    
C4    C63   S    
C50   C54   A    
C50   F6    S    
C39   H13   S    
C19   C21   A    
C24   C26   A    
C5    C11   A    
C48   C52   A    
C44   H18   S    
C6    C12   A    
O9    Zn1   S    
N4    Zn2   S    
C46   F2    S    
C9    C13   A    
O13   Zn3   S    
C38   C58   A    
C47   F3    S    
C52   F8    S    
C17   F9    S    
C12   C16   A    
C4    O8    A    
C32   O10   A    
C27   N1    A    
O16   Zn4   S    
C40   C44   A    
C51   C55   A    
C2    C61   S    
C17   C27   A    
C3    O7    A    
C37   H11   S    
C2    O6    A    
C38   H12   S    
O7    Zn4   S    
C11   C15   A    
C26   C28   A    
C44   C46   A    
C13   C53   A    
C35   N3    A    
C39   C43   A    
O12   Zn2   S    
O2    Zn1   S    
O4    Zn2   S    
C34   O12   A    
C23   H7    S    
C18   C28   A    
O8    Zn4   S    
C30   N2    A    
C10   C14   A    
O3    Zn2   S    
C47   C51   A    
C20   H26   S    
C2    O2    A    
N1    Zn3   S    
C21   H5    S    
C31   O9    A    
O14   Zn3   S    
C16   C56   A    
C41   H15   S    
C19   H25   S    
C16   C33   S    
C3    O3    A    
C45   C49   A    
C1    O1    A    
C39   C59   A    
C41   C47   A    
C5    C61   A    
C28   N2    A    
C42   C48   A    
C43   C45   A    
C7    C63   A    
C36   H10   S    
O15   Zn4   S    
C9    H19   S    
C40   H14   S    
C5    H1    S    
C14   C54   A    
O11   Zn2   S    
C8    C64   A    
C8    H4    S    
C26   N4    A    
C55   C57   A    
C51   F7    S    
C22   C24   A    
C33   O15   A    
C30   H24   S    
C29   N1    A    
C24   H8    S    
C7    C9    A    
C46   C50   A    
C35   H9    S    
C15   C34   S    
C43   H17   S    
C31   O13   A    
O6    Zn3   S    
C20   C22   A    
C45   F1    S    
O5    Zn3   S    
O10   Zn1   S    
C48   F4    S    
C57   C61   A    
C30   C36   A    
C25   C27   A    
C29   C35   A    
C59   C63   A    
C33   O11   A    
C12   H22   S    
C60   C64   A    
C6    C62   A    
C21   C23   A    
N3    Zn1   S    
O1    Zn1   S    
C49   F5    S    
C11   H21   S    
C49   C53   A    
C10   H20   S    
C17   C19   A    
C56   C58   A    
C18   C20   A    
C23   C25   A    
C37   C41   A    
C29   H23   S    
C7    H3    S    
C38   C42   A    
C36   N4    A    
C6    H2    S    
C8    C10   A    
C32   O14   A    
C18   F10   S    
C34   O16   A    
N2    Zn4   S    
C22   H6    S    
C37   C57   A    
C52   C56   A    
C15   C55   A    
