data_str_m4_o14_o22_f0_acs.sym.76
_audit_creation_date              2012-12-11T14:23:15-0500
_audit_creation_method            fapswitch 2.2
_symmetry_space_group_name_H-M    P1
_symmetry_Int_Tables_number       1
_space_group_crystal_system       triclinic
_cell_length_a                    10.993768
_cell_length_b                    10.868932
_cell_length_c                    18.839633
_cell_angle_alpha                 89.771031
_cell_angle_beta                  89.313453
_cell_angle_gamma                 60.564484
_cell_volume                      1960.40871819

loop_
_atom_site_label
_atom_site_type_symbol
_atom_type_description
_atom_site_fract_x
_atom_site_fract_y
_atom_site_fract_z
_atom_type_partial_charge
C1    C     C_R   0.241031 0.643300 0.611521 0.547881
C2    C     C_R   0.550597 0.204978 0.719816 -0.151248
C3    C     C_R   0.563383 0.202480 0.791882 -0.152637
C4    C     C_R   0.653885 0.623434 0.600509 0.556885
C5    C     C_R   0.935519 0.114383 0.807619 -0.052853
C6    C     C_R   0.047773 0.087053 0.762756 -0.085310
C7    C     C_R   0.038845 0.072849 0.690065 -0.115679
C8    C     C_R   0.915650 0.090975 0.661156 -0.050142
C9    C     C_R   0.664341 0.172791 0.674998 0.018373
C10   C     C_R   0.198798 0.653414 0.838454 0.008625
C11   C     C_R   0.198870 0.540518 0.800856 -0.032605
C12   C     C_3   0.651781 0.569709 0.801296 -0.192768
C13   C     C_R   0.192475 0.545077 0.725507 0.000259
C14   C     C_R   0.239649 0.741364 0.728740 -0.137310
C15   C     C_R   0.234323 0.743128 0.802117 0.319968
C16   C     C_R   0.628286 0.226169 0.602310 0.555047
C17   C     C_R   0.205813 0.422963 0.836672 -0.096177
C18   C     C_R   0.194218 0.318713 0.799935 -0.144011
C19   C     C_R   0.172013 0.331146 0.727184 -0.152253
C20   C     C_R   0.169088 0.443942 0.690288 -0.106485
C21   C     C_R   0.211524 0.649293 0.688802 -0.059732
C22   C     C_R   0.674517 0.653373 0.170839 -0.000980
C23   C     C_3   0.701785 0.677795 0.811094 0.002880
C24   C     C_R   0.792570 0.559650 0.213140 0.031933
C25   C     C_R   0.789375 0.587588 0.285887 0.020040
C26   C     C_R   0.537722 0.724993 0.277487 -0.151836
C27   C     C_R   0.546353 0.733342 0.204224 -0.147721
C28   C     C_R   0.283987 0.624943 0.391725 0.542217
C29   C     C_R   0.912329 0.437664 0.186594 -0.090563
C30   C     C_R   0.032522 0.367564 0.226865 -0.152921
C31   C     C_R   0.035835 0.414154 0.294955 -0.121010
C32   C     C_R   0.915423 0.525152 0.324293 -0.072710
C33   C     C_R   0.658139 0.660511 0.319450 -0.008048
C34   C     C_3   0.670760 0.650562 0.675714 0.071009
C35   C     C_R   0.619201 0.190432 0.168760 -0.003191
C36   C     C_R   0.540285 0.152092 0.215105 0.031333
C37   C     C_R   0.569674 0.142561 0.287276 0.018971
C38   C     C_R   0.665946 0.299172 0.267641 -0.170267
C39   C     C_R   0.672512 0.273671 0.194822 -0.180048
C40   C     C_R   0.642895 0.624616 0.392703 0.510731
C41   C     C_R   0.434305 0.122496 0.193208 -0.085769
C42   C     C_R   0.377837 0.065080 0.240633 -0.150822
C43   C     C_R   0.428939 0.031963 0.309198 -0.121208
C44   C     C_R   0.531914 0.060776 0.330787 -0.073136
C45   C     C_3   0.822277 0.616158 0.689827 -0.224321
C46   C     C_R   0.621710 0.227648 0.314405 0.005890
C47   C     C_R   0.086437 0.707989 0.193005 0.009191
C48   C     C_R   0.069107 0.821299 0.236291 0.015718
C49   C     C_R   0.158931 0.795169 0.292676 0.044069
C50   C     C_R   0.243929 0.541683 0.278104 -0.166822
C51   C     C_R   0.177380 0.568554 0.213270 -0.127956
C52   C     C_R   0.591064 0.276640 0.387379 0.529595
C53   C     C_R   0.971826 0.961869 0.220306 -0.079794
C54   C     C_R   0.985945 0.073484 0.246229 -0.107979
C55   C     C_R   0.083902 0.048923 0.296706 -0.144049
C56   C     C_3   0.636920 0.550850 0.721710 0.257719
C57   C     C_R   0.168912 0.912744 0.319919 -0.094272
C58   C     C_R   0.231712 0.653748 0.319454 -0.001490
C59   C     C_R   0.703792 0.102355 0.895925 0.521435
C60   C     C_R   0.726518 0.690021 0.887184 0.550018
C61   C     C_R   0.123280 0.702511 0.907018 0.572908
C62   C     C_R   0.668952 0.115351 0.101029 0.526899
C63   C     C_R   0.698082 0.686008 0.097628 0.541428
C64   C     C_3   0.590774 0.821895 0.778788 -0.250804
C65   C     C_R   0.037580 0.739809 0.120281 0.543822
C66   C     C_3   0.572280 0.805563 0.698903 -0.299372
C67   C     C_R   0.692363 0.158449 0.823480 -0.014367
C68   C     C_3   0.841110 0.628843 0.769592 -0.220436
C69   C     C_R   0.809223 0.132286 0.779773 0.044909
C70   C     C_R   0.796903 0.129743 0.704608 0.083194
Cr1   Cr    Cr6+3 0.392940 0.397950 0.502230 0.997260
Cr2   Cr    Cr6+3 0.398400 0.708500 0.501260 0.981634
Cr3   Cr    Cr6+3 0.708640 0.393530 0.496460 1.032175
Cr4   Cr    Cr6+3 0.937880 0.938320 0.007620 1.023891
Cr5   Cr    Cr6+3 0.625560 0.937220 0.994510 1.018480
Cr6   Cr    Cr6+3 0.938080 0.625010 0.001190 0.996203
F1    F     F_    0.727166 0.411829 0.703844 -0.645410
F2    F     F_    0.261412 0.834912 0.837908 -0.674079
H1    H     H_    0.624339 0.902388 0.785800 0.147695
H2    H     H_    0.268945 0.811975 0.703140 0.143251
H3    H     H_    0.488520 0.861441 0.806705 0.191689
H4    H     H_    0.227114 0.406912 0.892858 0.134003
H5    H     H_    0.201747 0.229081 0.828596 0.116376
H6    H     H_    0.158504 0.252688 0.698788 0.119570
H7    H     H_    0.145062 0.451053 0.634625 0.137554
H8    H     H_    0.436606 0.767308 0.301311 0.124329
H9    H     H_    0.913403 0.390799 0.135928 0.134717
H10   H     H_    0.453273 0.796998 0.173654 0.135157
H11   H     H_    0.123134 0.277701 0.204534 0.105155
H12   H     H_    0.920725 0.524173 0.789603 0.178152
H13   H     H_    0.130082 0.360941 0.325921 0.123539
H14   H     H_    0.461685 0.836616 0.688886 0.130918
H15   H     H_    0.700315 0.370046 0.287709 0.146054
H16   H     H_    0.387712 0.150478 0.141341 0.141098
H17   H     H_    0.722498 0.314512 0.159430 0.116083
H18   H     H_    0.298138 0.041856 0.223150 0.114346
H19   H     H_    0.389398 0.984980 0.346550 0.103836
H20   H     H_    0.573896 0.027705 0.383459 0.144119
H21   H     H_    0.306585 0.433446 0.295590 0.133127
H22   H     H_    0.887541 0.982889 0.186737 0.148154
H23   H     H_    0.896921 0.506924 0.672081 0.186129
H24   H     H_    0.197510 0.480612 0.179055 0.143330
H25   H     H_    0.596305 0.878271 0.667627 0.123619
H26   H     H_    0.095300 0.134927 0.317887 0.119580
H27   H     H_    0.244795 0.905417 0.357178 0.139054
H28   H     H_    0.880520 0.704383 0.778180 0.122320
H29   H     H_    0.727233 0.466713 0.825461 0.163677
H30   H     H_    0.549462 0.606811 0.828812 0.117769
H31   H     H_    0.528913 0.572422 0.711222 0.126295
H32   H     H_    0.919053 0.556581 0.378358 0.133472
H33   H     H_    0.925090 0.178497 0.226185 0.128353
H34   H     H_    0.447793 0.238558 0.699342 0.164947
H35   H     H_    0.847104 0.689314 0.659496 0.091923
H36   H     H_    0.947502 0.128777 0.863173 0.149897
H37   H     H_    0.471909 0.226240 0.823409 0.153447
H38   H     H_    0.143755 0.073658 0.784517 0.157501
H39   H     H_    0.127847 0.047880 0.655852 0.099893
H40   H     H_    0.914183 0.075367 0.604594 0.117126
O1    O     O_R   0.507340 0.255690 0.581430 -0.534974
O2    O     O_R   0.837290 0.593240 0.915240 -0.528801
O3    O     O_R   0.065320 0.635310 0.931580 -0.527881
O4    O     O_R   0.280360 0.527380 0.578910 -0.499851
O5    O     O_R   0.068470 0.828620 0.091850 -0.513144
O6    O     O_R   0.799150 0.057200 0.079350 -0.531871
O7    O     O_R   0.585220 0.080180 0.076770 -0.528142
O8    O     O_R   0.627170 0.809480 0.067050 -0.486646
O9    O     O_R   0.816200 0.596410 0.076500 -0.540242
O10   O     O_R   0.045770 0.638240 0.081070 -0.505711
O11   O     O_3   0.833840 0.833520 0.001110 -0.265381
O12   O     O_R   0.524510 0.695820 0.424050 -0.534331
O13   O     O_R   0.260600 0.739610 0.584580 -0.526700
O14   O     O_R   0.532370 0.695050 0.573830 -0.525134
O15   O     O_R   0.744850 0.503430 0.576380 -0.468104
O16   O     O_R   0.699080 0.276500 0.571950 -0.458191
O17   O     O_R   0.498860 0.256520 0.419860 -0.542003
O18   O     O_R   0.272490 0.528150 0.429140 -0.503488
O19   O     O_R   0.252110 0.740440 0.423010 -0.530113
O20   O     O_R   0.736370 0.504260 0.414810 -0.531124
O21   O     O_R   0.691220 0.277270 0.422180 -0.498296
O22   O     O_3   0.499990 0.499990 0.499980 -0.272185
O23   O     O_R   0.089570 0.825450 0.930590 -0.441666
O24   O     O_R   0.818700 0.054260 0.929860 -0.515981
O25   O     O_R   0.606310 0.077010 0.915520 -0.527900
O26   O     O_R   0.646730 0.806540 0.917560 -0.491397

loop_
_geom_bond_atom_site_label_1
_geom_bond_atom_site_label_2
_ccdc_geom_bond_type
C57   H27   S    
C1    C21   S    
C18   H5    S    
Cr5   O25   S    
C5    H36   S    
C41   C42   A    
C7    H39   S    
Cr1   O4    S    
Cr4   O6    S    
C19   C20   A    
C16   O16   A    
C34   C66   S    
C62   O6    A    
C8    H40   S    
C7    C8    A    
C4    O14   A    
C41   H16   S    
C53   C54   A    
C51   H24   S    
C34   C56   S    
C12   C23   S    
C2    H34   S    
C50   H21   S    
Cr6   O2    S    
C32   H32   S    
C42   H18   S    
Cr6   O3    S    
C14   C21   A    
C36   C37   A    
C9    C16   S    
C18   C19   A    
C10   C15   A    
Cr1   O17   S    
C30   C31   A    
C15   F2    S    
Cr3   O20   S    
C46   C52   S    
C52   O21   A    
C49   C57   A    
C61   O3    A    
C17   H4    S    
C1    O4    A    
C5    C69   A    
C59   C67   S    
C22   C63   S    
C24   C29   A    
C44   H20   S    
C35   C36   A    
C59   O24   A    
C40   O20   A    
C68   H12   S    
C14   H2    S    
C25   C32   A    
Cr4   O5    S    
Cr4   O24   S    
C59   O25   A    
C36   C41   A    
C48   C53   A    
C68   H28   S    
C30   H11   S    
Cr2   O14   S    
C53   H22   S    
Cr2   O19   S    
C23   C60   S    
C4    C34   S    
C33   C40   S    
C29   H9    S    
C50   C58   A    
C65   O10   A    
C38   C39   A    
C9    C70   A    
Cr5   O26   S    
C16   O1    A    
Cr1   O18   S    
C12   H30   S    
C66   H14   S    
Cr3   O21   S    
C50   C51   A    
C55   H26   S    
C56   F1    S    
C67   C69   A    
C64   C66   S    
C23   C68   S    
C35   C39   A    
C43   C44   A    
C29   C30   A    
C12   H29   S    
Cr6   O11   S    
C26   C33   A    
C47   C48   A    
C26   H8    S    
C39   H17   S    
C20   H7    S    
C45   C68   S    
C17   C18   A    
C26   C27   A    
C13   C21   A    
C34   C45   S    
C24   C25   A    
C6    H38   S    
C12   C56   S    
C45   H23   S    
C61   O23   A    
C23   C64   S    
Cr4   O23   S    
Cr3   O15   S    
C31   H13   S    
C22   C27   A    
C55   C57   A    
Cr6   O10   S    
C64   H1    S    
C22   C24   A    
C10   C61   S    
C42   C43   A    
C19   H6    S    
C56   H31   S    
Cr2   O13   S    
C52   O17   A    
C40   O12   A    
C54   C55   A    
C11   C17   A    
Cr1   O22   S    
C13   C20   A    
C28   O18   A    
C66   H25   S    
C31   C32   A    
C3    C67   A    
C28   O19   A    
C43   H19   S    
C1    O13   A    
C62   O7    A    
C47   C51   A    
Cr2   O12   S    
C6    C7    A    
Cr3   O22   S    
C28   C58   S    
C8    C70   A    
Cr1   O1    S    
Cr5   O8    S    
C37   C44   A    
C2    C3    A    
C3    H37   S    
C60   O26   A    
C11   C13   A    
C5    C6    A    
C48   C49   A    
C38   H15   S    
C54   H33   S    
C60   O2    A    
C35   C62   S    
C65   O5    A    
C27   H10   S    
C69   C70   A    
C64   H3    S    
C38   C46   A    
C63   O8    A    
C10   C11   A    
C49   C58   A    
C45   H35   S    
Cr2   O22   S    
Cr3   O16   S    
Cr4   O11   S    
Cr6   O9    S    
C14   C15   A    
Cr5   O7    S    
C37   C46   A    
C2    C9    A    
C47   C65   S    
C63   O9    A    
Cr5   O11   S    
C25   C33   A    
C4    O15   A    
