data_str_m9_o16_o22_f0_sra.sym.109
_audit_creation_date              2013-03-05T15:48:28-0500
_audit_creation_method            fapswitch 2.2
_symmetry_space_group_name_H-M    P1
_symmetry_Int_Tables_number       1
_space_group_crystal_system       triclinic
_cell_length_a                    20.153384
_cell_length_b                    7.123091
_cell_length_c                    13.708748
_cell_angle_alpha                 90.139
_cell_angle_beta                  103.720846
_cell_angle_gamma                 90.114746
_cell_volume                      1911.7789347

loop_
_atom_site_label
_atom_site_type_symbol
_atom_site_description
_atom_site_fract_x
_atom_site_fract_y
_atom_site_fract_z
_atom_type_partial_charge
O1    O     O_R   0.449830 0.506740 0.599960 -0.578530
O2    O     O_R   0.550170 0.006740 0.400040 -0.584101
O3    O     O_R   0.588980 0.179860 0.596720 -0.603280
O4    O     O_R   0.411020 0.679860 0.403280 -0.599527
C1    C     C_R   0.616597 0.344337 0.617956 0.977585
C2    C     C_R   0.382646 0.843692 0.384328 0.981863
O5    O     O_R   0.452740 0.177340 0.612040 -0.605009
O6    O     O_R   0.547260 0.677340 0.387960 -0.593772
O7    O     O_R   0.412960 0.002070 0.415460 -0.593882
O8    O     O_R   0.587040 0.502070 0.584540 -0.593994
C3    C     C_R   0.434162 0.345549 0.634837 0.994546
C4    C     C_R   0.565700 0.845336 0.364831 1.008490
O9    O     O_3   0.487110 0.337570 0.435490 -0.272312
O10   O     O_3   0.512890 0.837570 0.564510 -0.274413
V1    V     V_3+5 0.502390 0.064650 0.511970 1.214543
V2    V     V_3+5 0.497610 0.564650 0.488030 1.217774
C5    C     C_R   0.612694 0.919579 0.121099 -0.145530
C6    C     C_R   0.388899 0.322785 0.882244 -0.145837
H1    H     H_    0.522353 0.942278 0.173752 0.216302
H2    H     H_    0.478960 0.279999 0.829135 0.193032
H3    H     H_    0.584658 0.955430 0.046036 0.170828
H4    H     H_    0.417460 0.302298 0.958805 0.170950
C7    C     C_R   0.607473 0.854635 0.290890 -0.160010
C8    C     C_R   0.392943 0.352913 0.709264 -0.147272
C9    C     C_R   0.936256 0.852530 0.316889 -0.202225
C10   C     C_R   0.065301 0.332125 0.683524 -0.215642
C11   C     C_R   0.902704 0.856808 0.395031 0.460304
C12   C     C_R   0.099790 0.304194 0.607316 0.470326
C13   C     C_R   0.831168 0.869707 0.371724 -0.310640
C14   C     C_R   0.171481 0.308552 0.631646 -0.303940
C15   C     C_R   0.791758 0.855091 0.271553 0.057479
C16   C     C_R   0.209488 0.354284 0.729524 0.051789
C17   C     C_R   0.827077 0.859170 0.193356 0.061855
C18   C     C_R   0.173708 0.367608 0.806957 0.062658
C19   C     C_R   0.718470 0.850092 0.246237 0.039835
C20   C     C_R   0.282487 0.368891 0.754455 0.044263
C21   C     C_R   0.683453 0.885902 0.144805 0.090095
C22   C     C_R   0.317797 0.352942 0.857275 0.087094
C23   C     C_R   0.719229 0.883211 0.068253 0.232625
C24   C     C_R   0.281497 0.366425 0.933174 0.228745
C25   C     C_R   0.790005 0.866626 0.092884 -0.241231
C26   C     C_R   0.210575 0.381276 0.907331 -0.231836
C27   C     C_R   0.677743 0.808294 0.316005 0.221966
C28   C     C_R   0.322477 0.396803 0.682245 0.182862
C29   C     C_R   0.576221 0.912331 0.194337 -0.170331
C30   C     C_R   0.424919 0.311875 0.808270 -0.156856
C31   C     C_R   0.899260 0.858767 0.217107 -0.207446
C32   C     C_R   0.101504 0.358794 0.782940 -0.201143
H5    H     H_    0.991554 0.847040 0.333436 0.176989
H6    H     H_    0.009992 0.326165 0.666338 0.172369
H7    H     H_    0.807320 0.896717 0.432821 0.207956
H8    H     H_    0.197116 0.269375 0.573998 0.195207
H9    H     H_    0.816121 0.864133 0.032355 0.137991
H10   H     H_    0.184101 0.393188 0.967196 0.128631
C33   C     C_3   0.210973 0.649386 0.216149 0.265993
C34   C     C_3   0.784232 0.150312 0.794926 0.260463
H11   H     H_    0.209392 0.574755 0.144546 0.056668
H12   H     H_    0.784079 0.089342 0.869130 0.063029
C35   C     C_3   0.285882 0.647802 0.279132 -0.451594
C36   C     C_3   0.709831 0.150451 0.730332 -0.440415
H13   H     H_    0.319202 0.585001 0.234100 0.198747
H14   H     H_    0.674944 0.096643 0.775219 0.197687
H15   H     H_    0.290522 0.554347 0.345306 0.191208
H16   H     H_    0.704815 0.049943 0.666694 0.192044
H17   H     H_    0.146064 0.908370 0.325951 0.221084
H18   H     H_    0.852604 0.376576 0.675448 0.211684
H19   H     H_    0.253176 0.842040 0.431328 0.222176
H20   H     H_    0.744335 0.323419 0.571731 0.217659
C37   C     C_3   0.187922 0.958549 0.292489 -0.297763
C38   C     C_3   0.812559 0.441530 0.707799 -0.316433
C39   C     C_3   0.240000 0.959747 0.142130 -0.104056
C40   C     C_3   0.760680 0.475886 0.857394 -0.094683
C41   C     C_3   0.186564 0.856391 0.190919 -0.133158
C42   C     C_3   0.812311 0.356124 0.812356 -0.119615
H21   H     H_    0.220917 0.105265 0.124422 0.151764
H22   H     H_    0.781579 0.621154 0.867667 0.164363
C43   C     C_3   0.311466 0.849770 0.314498 -0.101332
C44   C     C_3   0.687195 0.350558 0.689361 -0.107352
C45   C     C_3   0.258528 0.934363 0.368383 -0.462737
C46   C     C_3   0.741273 0.421102 0.633929 -0.461296
C47   C     C_3   0.310456 0.977119 0.221649 0.272199
C48   C     C_3   0.689449 0.488722 0.778773 0.266870
H23   H     H_    0.312885 0.125050 0.249530 0.061359
H24   H     H_    0.687154 0.633260 0.746820 0.058962
H25   H     H_    0.178806 0.110306 0.278553 0.223021
H26   H     H_    0.825904 0.592470 0.716143 0.231905
H27   H     H_    0.276413 0.073187 0.402126 0.163792
H28   H     H_    0.725701 0.559928 0.600179 0.180068
O11   O     O_R   0.912980 0.203550 0.915410 -0.573369
O12   O     O_R   0.087020 0.703550 0.084590 -0.578450
O13   O     O_R   0.047270 0.535570 0.887960 -0.589733
O14   O     O_R   0.952730 0.035570 0.112040 -0.587434
C49   C     C_R   0.062881 0.367971 0.861132 0.946946
C50   C     C_R   0.937341 0.867863 0.138823 0.954215
O15   O     O_R   0.911030 0.532970 0.903270 -0.573050
O16   O     O_R   0.088970 0.032970 0.096730 -0.581413
O17   O     O_R   0.949820 0.708150 0.099970 -0.592267
O18   O     O_R   0.050180 0.208150 0.900030 -0.590955
C51   C     C_R   0.884057 0.364189 0.881365 0.896267
C52   C     C_R   0.115344 0.864454 0.120333 0.899537
O19   O     O_3   0.012900 0.375230 0.064480 -0.240751
O20   O     O_3   0.987100 0.875230 0.935520 -0.236523
V3    V     V_3+5 0.997610 0.648190 0.988040 1.259156
V4    V     V_3+5 0.002390 0.148190 0.011960 1.259917
C53   C     C_3   0.244529 0.875305 0.040004 -0.854428
H29   H     H_    0.193475 0.872570 0.987039 0.224363
H30   H     H_    0.278157 0.962158 0.004930 0.267206
H31   H     H_    0.264911 0.730968 0.047804 0.274541
C54   C     C_3   0.756918 0.413358 0.963818 -0.865270
H32   H     H_    0.808079 0.421960 0.016301 0.225825
H33   H     H_    0.722635 0.506862 0.993794 0.277815
H34   H     H_    0.737688 0.268403 0.964973 0.271022
N1    N     N_R   0.371380 0.951008 0.181858 0.216664
O21   O     O_R   0.385570 0.789411 0.147686 -0.456225
O22   O     O_R   0.418554 0.079971 0.199939 -0.452336
N2    N     N_R   0.628990 0.470059 0.820817 0.222554
O23   O     O_R   0.616450 0.316028 0.863640 -0.471637
O24   O     O_R   0.580898 0.595415 0.798612 -0.422559
C55   C     C_3   0.682005 0.885109 0.959424 -0.991725
H35   H     H_    0.716305 0.861454 0.908580 0.232480
H36   H     H_    0.643328 0.771931 0.946094 0.299210
H37   H     H_    0.655926 0.020580 0.940883 0.291161
C56   C     C_3   0.317627 0.363933 0.042347 -0.970851
H38   H     H_    0.282072 0.374223 0.092359 0.223299
H39   H     H_    0.345115 0.230259 0.058237 0.286738
H40   H     H_    0.354723 0.481153 0.059308 0.300499
C57   C     C_3   0.703963 0.691017 0.408880 -1.035477
H41   H     H_    0.667330 0.576949 0.413436 0.259068
H42   H     H_    0.751696 0.615352 0.407423 0.274408
H43   H     H_    0.710759 0.781581 0.476554 0.246930
C58   C     C_3   0.294781 0.496785 0.583376 -0.967399
H44   H     H_    0.329234 0.613887 0.574637 0.247515
H45   H     H_    0.290680 0.397674 0.519561 0.238383
H46   H     H_    0.245024 0.565577 0.579945 0.280925
N3    N     N_R   0.941075 0.846278 0.497863 0.255418
O25   O     O_R   0.007520 0.852921 0.519898 -0.365130
O26   O     O_R   0.910369 0.810228 0.569169 -0.345662
N4    N     N_R   0.062152 0.269101 0.505637 0.262808
O27   O     O_R   0.995947 0.285215 0.480879 -0.370644
O28   O     O_R   0.093755 0.224814 0.436332 -0.364067
N5    N     N_R   0.165884 0.545762 0.267534 0.233087
O29   O     O_R   0.127113 0.412350 0.220256 -0.383843
O30   O     O_R   0.168403 0.572290 0.362313 -0.400989
N6    N     N_R   0.827530 0.029311 0.749038 0.234495
O31   O     O_R   0.860807 0.892197 0.800779 -0.402481
O32   O     O_R   0.826845 0.041961 0.654137 -0.398288

loop_
_geom_bond_atom_site_label_1
_geom_bond_atom_site_label_2
_geom_bond_distance
_ccdc_geom_bond_type
H20   C46   1.112309 S    
C41   C52   1.530214 S    
C14   C16   1.415113 A    
C33   N5    1.473175 S    
C33   C35   1.551289 S    
C11   C13   1.403971 A    
O1    C3    1.311280 A    
C40   H22   1.112373 S    
C58   H46   1.107965 S    
O2    C4    1.312685 A    
C35   C43   1.563855 S    
C2    O7    1.303574 A    
C45   H27   1.113097 S    
O3    V1    2.023966 S    
N3    O25   1.301691 A    
C23   C25   1.391026 A    
H17   C37   1.110392 S    
C28   C58   1.517619 S    
O5    C3    1.314891 A    
C53   H30   1.107964 S    
C4    C7    1.464760 S    
C36   C44   1.562118 S    
O11   C51   1.320258 A    
C7    C29   1.387716 A    
C16   C20   1.432708 A    
C19   C21   1.426023 A    
C5    C29   1.378830 A    
C10   H6    1.083955 S    
O15   C51   1.322592 A    
C56   H39   1.098564 S    
H2    C30   1.083070 S    
C3    C8    1.461443 S    
C7    C27   1.415689 A    
N2    O23   1.297952 A    
C36   H14   1.106890 S    
C54   H33   1.106832 S    
N2    O24   1.301604 A    
O16   V4    2.029065 S    
C18   C26   1.403200 A    
C38   C42   1.559561 S    
C34   N6    1.469970 S    
C15   C17   1.420794 A    
C39   C53   1.544973 S    
C37   C41   1.563960 S    
C19   C27   1.431760 A    
C9    C31   1.394860 A    
C10   C32   1.397255 A    
C24   C26   1.392914 A    
O6    V2    2.044698 S    
C22   C24   1.409925 A    
C46   H28   1.106796 S    
C13   C15   1.417382 A    
C6    C30   1.382186 A    
O12   C52   1.319667 A    
C47   H23   1.117041 S    
O15   V3    2.023949 S    
C43   C45   1.556040 S    
C53   H31   1.103891 S    
C11   N3    1.440321 S    
C35   H13   1.108453 S    
C34   C42   1.567601 S    
C32   C49   1.467936 S    
C38   C46   1.555290 S    
C56   H38   1.105388 S    
H19   C45   1.111443 S    
C40   C42   1.580321 S    
C54   H34   1.103610 S    
C27   C57   1.511914 S    
C39   C41   1.577970 S    
C2    C43   1.524822 S    
O5    V1    2.043657 S    
C50   O17   1.304965 A    
O3    C1    1.298462 A    
C5    H3    1.081380 S    
C34   C36   1.550028 S    
N5    O30   1.301521 A    
C16   C18   1.420798 A    
O4    V2    2.029079 S    
C57   H42   1.107904 S    
O13   C49   1.309088 A    
C44   C48   1.562239 S    
C43   C47   1.561020 S    
O6    C4    1.313987 A    
O14   C50   1.308703 A    
C12   N4    1.441105 S    
O1    V2    2.038193 S    
C5    C21   1.406637 A    
O20   V4    2.192704 S    
O2    V1    2.037467 S    
C25   H9    1.083053 S    
O17   V3    2.040592 S    
C55   H36   1.104571 S    
N4    O28   1.301622 A    
N6    O32   1.301121 A    
O19   V4    1.760482 S    
C48   H24   1.116589 S    
C33   H11   1.108907 S    
O11   V4    2.007048 S    
C8    C28   1.415814 A    
C15   C19   1.435197 A    
C37   C45   1.560922 S    
O4    C2    1.300009 A    
C18   C32   1.414951 A    
C57   H41   1.108552 S    
C23   C55   1.502649 S    
C37   H25   1.106307 S    
N1    O21   1.299404 A    
C13   H7    1.077072 S    
C55   H37   1.100846 S    
N3    O26   1.300764 A    
C24   C56   1.501213 S    
C14   H8    1.078200 S    
C40   C54   1.545350 S    
C6    H4    1.081039 S    
C10   C12   1.399346 A    
O13   V3    2.043701 S    
N6    O31   1.298884 A    
C58   H45   1.110419 S    
C56   H40   1.106456 S    
C55   H35   1.104778 S    
H1    C29   1.076837 S    
C42   C51   1.529535 S    
C9    C11   1.396155 A    
C53   H29   1.109811 S    
C35   H15   1.112544 S    
C36   H16   1.112961 S    
C17   C25   1.403722 A    
C12   C14   1.403885 A    
C6    C22   1.409113 A    
C57   H43   1.109978 S    
C8    C30   1.389465 A    
C1    O8    1.304902 A    
C21   C23   1.407266 A    
O8    V2    2.018012 S    
N5    O29   1.299030 A    
C26   H10   1.083023 S    
C39   H21   1.113450 S    
H18   C38   1.110112 S    
C17   C31   1.413372 A    
O16   C52   1.323224 A    
C20   C22   1.425259 A    
C31   C50   1.461418 S    
C34   H12   1.107713 S    
C44   C46   1.552507 S    
O7    V1    2.014995 S    
O20   V3    1.764466 S    
C9    H5    1.084094 S    
O12   V3    2.004365 S    
C20   C28   1.430997 A    
N4    O27   1.301756 A    
O14   V4    2.044742 S    
C48   N2    1.472198 S    
C33   C41   1.568587 S    
O19   V3    2.198300 S    
O9    V2    1.760842 S    
C47   N1    1.468964 S    
O10   V1    1.764827 S    
N1    O22   1.301058 A    
C1    C44   1.524251 S    
C54   H32   1.110003 S    
C49   O18   1.308585 A    
O18   V4    2.041342 S    
C40   C48   1.580446 S    
C58   H44   1.108990 S    
C39   C47   1.576135 S    
C38   H26   1.106808 S    
