data_str_m3_o5_o28_f0_pcu.sym.124
_audit_creation_date              2013-03-05T16:48:14-0500
_audit_creation_method            fapswitch 2.2
_symmetry_space_group_name_H-M    P1
_symmetry_Int_Tables_number       1
_space_group_crystal_system       triclinic
_cell_length_a                    23.48016
_cell_length_b                    8.912117
_cell_length_c                    8.092037
_cell_angle_alpha                 89.942967
_cell_angle_beta                  89.995793
_cell_angle_gamma                 90.002221
_cell_volume                      1693.32209242

loop_
_atom_site_label
_atom_site_type_symbol
_atom_site_description
_atom_site_fract_x
_atom_site_fract_y
_atom_site_fract_z
_atom_type_partial_charge
O1    O     O_R   0.500000 0.285350 0.636850 -0.627097
O2    O     O_R   0.500000 0.714650 0.363150 -0.626982
O3    O     O_R   0.500000 0.714650 0.636850 -0.613796
O4    O     O_R   0.500000 0.285350 0.363150 -0.613763
C1    C     C_R   0.499833 0.217974 0.500051 0.918129
C2    C     C_R   0.499830 0.782026 0.499949 0.918450
O5    O     O_R   0.416160 0.500000 0.636910 -0.582342
O6    O     O_R   0.583840 0.500000 0.363090 -0.579044
O7    O     O_R   0.583840 0.500000 0.636910 -0.579446
O8    O     O_R   0.416160 0.500000 0.363090 -0.582388
C3    C     C_R   0.208937 0.499694 0.500030 0.160328
C4    C     C_R   0.792893 0.499632 0.499923 0.185955
C5    C     C_R   0.389248 0.499995 0.500006 0.944261
C6    C     C_R   0.611227 0.499950 0.499991 0.914005
Zn1   Zn    Zn3+2 0.500000 0.500000 0.682780 1.026889
Zn2   Zn    Zn3+2 0.500000 0.500000 0.317220 1.027083
C7    C     C_R   0.297660 0.591297 0.612655 0.443244
C8    C     C_R   0.704276 0.479100 0.649693 0.423735
C9    C     C_R   0.297700 0.408337 0.387428 0.443180
C10   C     C_R   0.704274 0.520313 0.350190 0.424050
C11   C     C_R   0.327443 0.499882 0.500025 -0.285874
C12   C     C_R   0.673889 0.499789 0.499961 -0.289654
C13   C     C_R   0.881613 0.630758 0.467907 0.522501
C14   C     C_R   0.119986 0.369137 0.534892 0.528031
C15   C     C_R   0.881609 0.368489 0.531901 0.522562
C16   C     C_R   0.119987 0.630174 0.465013 0.528016
N1    N     N_R   0.853461 0.499623 0.499909 -0.334877
N2    N     N_R   0.148246 0.499664 0.499976 -0.331917
C17   C     C_R   0.941052 0.365747 0.533087 -0.021102
C18   C     C_R   0.060543 0.633261 0.465715 -0.020189
C19   C     C_R   0.941055 0.633506 0.466715 -0.021084
C20   C     C_R   0.060541 0.366023 0.534133 -0.020187
C21   C     C_R   0.970890 0.499630 0.499904 -0.019515
C22   C     C_R   0.030708 0.499637 0.499915 -0.020368
C23   C     C_R   0.971158 0.232998 0.566218 -0.164227
C24   C     C_R   0.030433 0.766069 0.432737 -0.162403
C25   C     C_R   0.971162 0.766260 0.433582 -0.164239
C26   C     C_R   0.030428 0.233204 0.567086 -0.162394
C27   C     C_1   0.499673 0.065223 0.500074 -0.202369
C28   C     C_1   0.499671 0.934777 0.499927 -0.202238
C29   C     C_R   0.238415 0.587629 0.614482 -0.187746
C30   C     C_R   0.763573 0.482866 0.648333 -0.204200
C31   C     C_R   0.238454 0.411822 0.385603 -0.187582
C32   C     C_R   0.763576 0.516407 0.351524 -0.204320
N3    N     N_1   0.500000 0.500000 0.073640 -0.012642
N4    N     N_1   0.500000 0.500000 0.926360 -0.012677
O9    O     O_2   0.852022 0.757873 0.438425 -0.547135
O10   O     O_2   0.149445 0.243328 0.571501 -0.551168
O11   O     O_2   0.852014 0.241372 0.561382 -0.547100
O12   O     O_2   0.149447 0.755995 0.428422 -0.551160
H1    H     H_    0.949080 0.128819 0.591883 0.192206
H2    H     H_    0.052506 0.870131 0.406461 0.191868
H3    H     H_    0.949087 0.870434 0.407908 0.192212
H4    H     H_    0.052501 0.129148 0.593369 0.191862
H5    H     H_    0.215234 0.654806 0.703430 0.184294
H6    H     H_    0.786990 0.471681 0.763068 0.168435
H7    H     H_    0.215305 0.344568 0.296659 0.184377
H8    H     H_    0.787004 0.527429 0.236780 0.168173
O13   O     O_3   0.326288 0.681090 0.724410 -0.569668
C33   C     C_3   0.332307 0.825347 0.654671 -0.266360
H9    H     H_    0.357249 0.821745 0.537681 0.129985
H10   H     H_    0.356076 0.897094 0.742834 0.196892
H11   H     H_    0.290112 0.878830 0.633010 0.178576
O14   O     O_3   0.676362 0.463958 0.799285 -0.575569
C34   C     C_3   0.676277 0.310965 0.844155 -0.174956
H12   H     H_    0.655541 0.240573 0.747583 0.131685
H13   H     H_    0.651238 0.297973 0.959585 0.206625
H14   H     H_    0.720188 0.269873 0.869543 0.157259
O15   O     O_3   0.326358 0.318566 0.275712 -0.569650
C35   C     C_3   0.332623 0.174543 0.345801 -0.266218
H15   H     H_    0.290515 0.120698 0.367791 0.178385
H16   H     H_    0.357605 0.178663 0.462681 0.129898
H17   H     H_    0.356470 0.102843 0.257736 0.196841
O16   O     O_3   0.676324 0.535250 0.200632 -0.575476
C36   C     C_3   0.676817 0.687896 0.154436 -0.174310
H18   H     H_    0.720813 0.727181 0.127167 0.157519
H19   H     H_    0.656836 0.759747 0.251010 0.131301
H20   H     H_    0.651383 0.700935 0.039777 0.206623

loop_
_geom_bond_atom_site_label_1
_geom_bond_atom_site_label_2
_geom_bond_distance
_ccdc_geom_bond_type
O7    C6    1.281004 A    
O3    C2    1.259560 A    
N3    N4    1.191794 T    
C33   H11   1.113283 S    
O1    C1    1.259881 A    
C24   C25   1.391689 A    
C9    C11   1.408920 A    
C16   O12   1.350106 S    
C17   C21   1.409215 A    
C33   H10   1.109157 S    
C29   H5    1.083319 S    
C4    C30   1.392127 A    
C30   H6    1.083581 S    
C32   H8    1.083563 S    
C34   H13   1.109622 S    
C19   C21   1.409210 A    
C3    C31   1.397280 A    
C35   H15   1.113222 S    
O1    Zn1   1.949120 S    
C20   C26   1.404080 A    
O2    Zn2   1.949119 S    
C24   H2    1.083275 S    
C25   H3    1.083263 S    
O5    Zn1   2.003294 S    
O13   C33   1.410614 S    
O6    Zn2   2.003292 S    
O2    C2    1.259882 A    
C10   C32   1.392909 A    
C9    C31   1.391523 A    
C7    C29   1.391558 A    
C15   C17   1.395984 A    
C13   O9    1.350025 S    
O16   C36   1.410517 S    
C18   C22   1.408811 A    
C4    N1    1.422151 S    
C5    C11   1.451208 S    
C14   O10   1.350097 S    
C23   C26   1.391705 A    
C27   C28   1.162556 T    
C7    C11   1.408842 A    
C19   C25   1.403812 A    
C33   H9    1.113640 S    
C13   C19   1.395959 A    
O4    Zn2   1.948393 S    
C36   H18   1.112759 S    
C14   C20   1.396072 A    
C26   H4    1.083275 S    
C34   H14   1.113221 S    
C35   H17   1.109309 S    
C21   C22   1.404543 A    
C10   O16   1.383067 S    
C36   H19   1.114376 S    
C7    O13   1.382579 S    
C10   C12   1.417995 A    
C16   C18   1.396052 A    
C13   N1    1.367166 A    
C1    C27   1.361336 S    
C23   H1    1.083265 S    
C2    C28   1.361337 S    
C9    O15   1.382575 S    
O3    Zn1   1.948393 S    
O6    C6    1.280966 A    
C8    C12   1.418040 A    
C14   N2    1.368432 A    
O4    C1    1.259560 A    
O8    C5    1.275417 A    
Zn2   N3    1.971058 S    
C15   N1    1.367161 A    
C17   C23   1.403816 A    
C16   N2    1.368425 A    
C18   C24   1.404071 A    
O14   C34   1.410657 S    
C6    C12   1.471308 S    
C8    C30   1.392753 A    
O7    Zn1   2.003238 S    
C4    C32   1.392118 A    
O8    Zn2   2.003240 S    
C8    O14   1.382991 S    
C3    N2    1.425023 S    
C3    C29   1.397312 A    
O15   C35   1.410455 S    
C36   H20   1.109439 S    
C15   O11   1.350028 S    
C31   H7    1.083331 S    
O5    C5    1.275412 A    
C34   H12   1.114590 S    
C35   H16   1.113604 S    
Zn1   N4    1.971058 S    
C20   C22   1.408812 A    
