data_str_m3_o14_o14_f0_pcu.sym.48
_audit_creation_date              2012-12-10T17:41:01-0500
_audit_creation_method            fapswitch 2.2
_symmetry_space_group_name_H-M    P1
_symmetry_Int_Tables_number       1
_space_group_crystal_system       triclinic
_cell_length_a                    14.921171
_cell_length_b                    15.231123
_cell_length_c                    9.911781
_cell_angle_alpha                 90.373152
_cell_angle_beta                  89.441209
_cell_angle_gamma                 90.600848
_cell_volume                      2252.33543842

loop_
_atom_site_label
_atom_site_type_symbol
_atom_type_description
_atom_site_fract_x
_atom_site_fract_y
_atom_site_fract_z
_atom_type_partial_charge
C1    C     C_R   0.381563 0.879053 0.500018 0.855341
C2    C     C_R   0.669063 0.264749 0.452864 -0.213334
C3    C     C_R   0.223952 0.285848 0.383372 -0.218071
C4    C     C_R   0.169064 0.764748 0.452860 -0.213336
C5    C     C_R   0.678252 0.804862 0.503172 -0.109928
C6    C     C_R   0.689897 0.181628 0.499485 -0.074501
C7    C     C_R   0.178252 0.304862 0.503171 -0.109932
C8    C     C_R   0.189897 0.681628 0.499485 -0.074501
C9    C     C_R   0.336009 0.997047 0.142001 -0.158773
C10   C     C_R   0.836009 0.497047 0.142001 -0.158773
C11   C     C_R   0.255441 0.994376 0.072726 -0.218858
C12   C     C_R   0.386012 0.125372 0.501698 0.860237
C13   C     C_R   0.755441 0.494376 0.072726 -0.218857
C14   C     C_R   0.255500 0.995549 0.933166 -0.170530
C15   C     C_R   0.755500 0.495549 0.933166 -0.170531
C16   C     C_R   0.336223 0.998103 0.862026 -0.138975
C17   C     C_R   0.836223 0.498103 0.862026 -0.138975
C18   C     C_R   0.419266 0.998998 0.928739 0.149178
C19   C     C_R   0.919266 0.498998 0.928739 0.149179
C20   C     C_R   0.419251 0.998780 0.073332 0.168832
C21   C     C_R   0.919251 0.498780 0.073332 0.168831
C22   C     C_R   0.577219 0.000876 0.070349 -0.131597
C23   C     C_R   0.881563 0.379053 0.500018 0.855340
C24   C     C_R   0.077219 0.500876 0.070349 -0.131598
C25   C     C_R   0.620071 0.119211 0.499840 0.866926
C26   C     C_R   0.615443 0.875676 0.500241 0.850025
C27   C     C_R   0.120071 0.619211 0.499840 0.866926
C28   C     C_R   0.115443 0.375676 0.500241 0.850025
C29   C     C_R   0.577190 0.000741 0.927222 -0.129778
C30   C     C_R   0.077190 0.500741 0.927222 -0.129778
C31   C     C_R   0.330045 0.218747 0.758555 -0.218919
C32   C     C_R   0.430593 0.703357 0.579965 -0.230141
C33   C     C_R   0.830046 0.718748 0.758555 -0.218918
C34   C     C_R   0.886013 0.625372 0.501698 0.860238
C35   C     C_R   0.930594 0.203356 0.579956 -0.230137
C36   C     C_R   0.282430 0.233917 0.878050 -0.169296
C37   C     C_R   0.451403 0.618598 0.621233 -0.164461
C38   C     C_R   0.782431 0.733918 0.878050 -0.169297
C39   C     C_R   0.951406 0.118596 0.621222 -0.164472
C40   C     C_R   0.692109 0.756642 0.873467 0.222461
C41   C     C_R   0.885032 0.053009 0.624648 0.235561
C42   C     C_R   0.192108 0.256641 0.873467 0.222461
C43   C     C_R   0.385030 0.553010 0.624657 0.235562
C44   C     C_R   0.653349 0.771908 0.748090 -0.230254
C45   C     C_R   0.295030 0.230042 0.384473 -0.234789
C46   C     C_R   0.797771 0.073413 0.585294 -0.234956
C47   C     C_R   0.153347 0.271908 0.748089 -0.230252
C48   C     C_R   0.297770 0.573414 0.585298 -0.234960
C49   C     C_R   0.704912 0.767739 0.627346 0.056877
C50   C     C_R   0.776113 0.159254 0.543497 0.059624
C51   C     C_R   0.204911 0.267738 0.627346 0.056872
C52   C     C_R   0.276112 0.659254 0.543499 0.059626
C53   C     C_R   0.288451 0.227789 0.631371 0.104365
C54   C     C_R   0.342571 0.724692 0.542162 0.099274
C55   C     C_R   0.788452 0.727789 0.631371 0.104368
C56   C     C_R   0.233739 0.829002 0.453249 -0.218039
C57   C     C_R   0.842572 0.224692 0.542158 0.099275
C58   C     C_R   0.326123 0.198617 0.507140 -0.109478
C59   C     C_R   0.318854 0.809414 0.499416 -0.069434
C60   C     C_R   0.826124 0.698617 0.507140 -0.109480
C61   C     C_R   0.818854 0.309414 0.499416 -0.069433
C62   C     C_3   0.638947 0.771805 0.001505 -0.418537
C63   C     C_3   0.627918 0.687843 0.083202 -0.866263
C64   C     C_3   0.907132 0.961522 0.670355 -0.426877
C65   C     C_3   0.960208 0.911955 0.562330 -0.862103
C66   C     C_3   0.138945 0.271804 0.001504 -0.418536
C67   C     C_R   0.795030 0.730042 0.384473 -0.234796
C68   C     C_3   0.127917 0.187842 0.083202 -0.866266
C69   C     C_3   0.407129 0.461523 0.670365 -0.426883
C70   C     C_3   0.460225 0.411962 0.562357 -0.862127
C71   C     C_R   0.733738 0.329003 0.453253 -0.218040
C72   C     C_R   0.723952 0.785848 0.383373 -0.218078
H1    H     H_    0.325483 0.211547 0.288859 0.170299
H2    H     H_    0.140289 0.501084 0.872490 0.152839
H3    H     H_    0.400284 0.203583 0.767670 0.179760
H4    H     H_    0.483917 0.751560 0.575831 0.134357
H5    H     H_    0.900285 0.703584 0.767670 0.179760
H6    H     H_    0.983919 0.251559 0.575821 0.134355
H7    H     H_    0.315684 0.226599 0.973922 0.144747
H8    H     H_    0.519438 0.604077 0.650330 0.142912
H9    H     H_    0.815686 0.726600 0.973922 0.144747
H10   H     H_    0.019440 0.104074 0.650314 0.142911
H11   H     H_    0.582948 0.787342 0.746936 0.165559
H12   H     H_    0.217317 0.894393 0.419170 0.133045
H13   H     H_    0.747695 0.021524 0.585781 0.145771
H14   H     H_    0.082947 0.287341 0.746935 0.165560
H15   H     H_    0.247694 0.521524 0.585784 0.145770
H16   H     H_    0.705102 0.814343 0.288448 0.176565
H17   H     H_    0.602264 0.279999 0.418353 0.145217
H18   H     H_    0.205102 0.314343 0.288448 0.176563
H19   H     H_    0.102266 0.779997 0.418347 0.145216
H20   H     H_    0.640333 0.001401 0.123150 0.146852
H21   H     H_    0.140332 0.501401 0.123150 0.146852
H22   H     H_    0.330000 0.997779 0.248944 0.206356
H23   H     H_    0.825483 0.711547 0.288859 0.170301
H24   H     H_    0.830000 0.497779 0.248944 0.206357
H25   H     H_    0.192488 0.992421 0.127963 0.152710
H26   H     H_    0.692488 0.492421 0.127963 0.152711
H27   H     H_    0.597178 0.635062 0.020492 0.259523
H28   H     H_    0.693877 0.666049 0.120376 0.260739
H29   H     H_    0.583703 0.700412 0.171862 0.259116
H30   H     H_    0.673564 0.822849 0.062629 0.192344
H31   H     H_    0.571084 0.797011 0.978885 0.215435
H32   H     H_    0.920677 0.906498 0.468168 0.267133
H33   H     H_    0.024797 0.946147 0.540437 0.251937
H34   H     H_    0.717315 0.394394 0.419177 0.133045
H35   H     H_    0.974736 0.844750 0.598399 0.246361
H36   H     H_    0.946517 0.965203 0.764867 0.199874
H37   H     H_    0.844805 0.923585 0.693323 0.214583
H38   H     H_    0.097177 0.135061 0.020492 0.259523
H39   H     H_    0.193876 0.166049 0.120377 0.260739
H40   H     H_    0.083701 0.200411 0.171862 0.259117
H41   H     H_    0.173562 0.322849 0.062628 0.192344
H42   H     H_    0.071082 0.297009 0.978884 0.215435
H43   H     H_    0.420713 0.406511 0.468178 0.267134
H44   H     H_    0.524817 0.446154 0.540498 0.251939
H45   H     H_    0.192609 0.994788 0.879536 0.147463
H46   H     H_    0.474744 0.344755 0.598423 0.246365
H47   H     H_    0.446499 0.465205 0.764891 0.199879
H48   H     H_    0.344802 0.423581 0.693310 0.214588
H49   H     H_    0.692609 0.494788 0.879536 0.147464
H50   H     H_    0.330689 0.999543 0.755194 0.208387
H51   H     H_    0.830689 0.499543 0.755194 0.208387
H52   H     H_    0.640289 0.001084 0.872490 0.152838
N1    N     N_R   0.498810 0.000000 0.142780 -0.118526
N2    N     N_R   0.998810 0.500000 0.142780 -0.118526
N3    N     N_R   0.498740 1.000000 0.857170 -0.125013
N4    N     N_R   0.998740 0.500000 0.857170 -0.125013
O1    O     O_R   0.408390 0.908380 0.614690 -0.638666
O2    O     O_R   0.591620 0.908390 0.614640 -0.634473
O3    O     O_R   0.091620 0.591610 0.614640 -0.619192
O4    O     O_R   0.091620 0.408390 0.614640 -0.634472
O5    O     O_R   0.591610 0.091610 0.385310 -0.609215
O6    O     O_R   0.591610 0.908390 0.385310 -0.615340
O7    O     O_R   0.091610 0.591610 0.385310 -0.609215
O8    O     O_R   0.091610 0.408390 0.385310 -0.615340
O9    O     O_R   0.408390 0.091620 0.614690 -0.648734
O10   O     O_R   0.908390 0.408380 0.614690 -0.638666
O11   O     O_R   0.908390 0.591620 0.614690 -0.648735
O12   O     O_R   0.408370 0.908380 0.385360 -0.628108
O13   O     O_R   0.408370 0.091620 0.385360 -0.641180
O14   O     O_R   0.908370 0.408380 0.385360 -0.628108
O15   O     O_R   0.908370 0.591620 0.385360 -0.641179
O16   O     O_R   0.591620 0.091610 0.614640 -0.619192
Zn1   Zn    Zn3+2 0.500010 0.000000 0.653130 0.915820
Zn2   Zn    Zn3+2 0.000010 0.500000 0.653130 0.915820
Zn3   Zn    Zn3+2 0.499980 1.000000 0.346870 0.931958
Zn4   Zn    Zn3+2 0.999980 0.500000 0.346870 0.931958

loop_
_geom_bond_atom_site_label_1
_geom_bond_atom_site_label_2
_ccdc_geom_bond_type
C44   C49   A    
C33   C55   A    
C66   C68   S    
O11   Zn2   S    
C66   H41   S    
C27   O3    A    
C19   N4    A    
C23   O10   A    
C36   C42   A    
C4    C8    A    
C44   H11   S    
N4    Zn2   S    
C39   C41   A    
O6    Zn3   S    
C62   C63   S    
C3    H18   S    
O9    Zn1   S    
C22   C29   A    
O10   Zn2   S    
C5    C72   A    
C3    C7    A    
C1    C59   S    
C30   H2    S    
C11   C14   A    
C6    C25   S    
C29   H52   S    
C34   O11   A    
C40   C62   S    
C12   O13   A    
O3    Zn2   S    
C45   H1    S    
C67   C72   A    
C68   H40   S    
C32   C54   A    
C13   H26   S    
C16   H50   S    
C63   H27   S    
C17   H51   S    
C60   C67   A    
C41   C46   A    
C10   C13   A    
C23   O14   A    
C64   H36   S    
O5    Zn3   S    
C25   O5    A    
C43   C48   A    
C8    C52   A    
C40   C44   A    
O1    Zn1   S    
C26   O2    A    
C63   H29   S    
C46   H13   S    
C12   C58   S    
C61   C71   A    
C31   C36   A    
C67   H23   S    
C55   C60   A    
C4    C56   A    
O2    Zn1   S    
C34   C60   S    
C5    C49   A    
C2    C6    A    
O12   Zn3   S    
C65   H33   S    
C72   H16   S    
C52   C54   A    
C56   H12   S    
C54   C59   A    
C10   C21   A    
O15   Zn4   S    
C45   C58   A    
C37   H8    S    
C30   N4    A    
C34   O15   A    
C47   H14   S    
O14   Zn4   S    
N1    Zn3   S    
N2    Zn4   S    
C22   N1    A    
C47   C51   A    
C35   H6    S    
C70   H44   S    
C49   C55   A    
C69   H47   S    
C31   C53   A    
C7    C28   S    
C28   O4    A    
C68   H39   S    
C37   C43   A    
C2    H17   S    
C35   C39   A    
C63   H28   S    
C26   O6    A    
C18   N3    A    
C9    C20   A    
C31   H3    S    
C10   H24   S    
C14   H45   S    
C48   H15   S    
C68   H38   S    
C32   C37   A    
C6    C50   A    
C57   C61   A    
C9    C11   A    
O8    Zn4   S    
C1    O12   A    
N3    Zn1   S    
C29   N3    A    
C38   H9    S    
C14   C16   A    
C25   O16   A    
C2    C71   A    
C62   H31   S    
C23   C61   S    
C24   N2    A    
C66   H42   S    
C19   C21   A    
C28   O8    A    
C50   C57   A    
C39   H10   S    
O16   Zn1   S    
C36   H7    S    
C32   H4    S    
C53   C58   A    
C15   C17   A    
C70   H43   S    
C46   C50   A    
C69   H48   S    
C1    O1    A    
C33   C38   A    
C65   H32   S    
C56   C59   A    
C11   H25   S    
C35   C57   A    
O4    Zn2   S    
C64   C65   S    
C4    H19   S    
C13   C15   A    
C27   O7    A    
C20   N1    A    
C24   H21   S    
C38   C40   A    
C33   H5    S    
C64   H37   S    
C70   H46   S    
C17   C19   A    
C3    C45   A    
C18   C20   A    
C42   C47   A    
C15   H49   S    
C69   C70   S    
C24   C30   A    
O13   Zn3   S    
C7    C51   A    
C5    C26   S    
C48   C52   A    
C16   C18   A    
O7    Zn4   S    
C71   H34   S    
C42   C66   S    
C8    C27   S    
C22   H20   S    
C12   O9    A    
C41   C64   S    
C51   C53   A    
C21   N2    A    
C43   C69   S    
C9    H22   S    
C65   H35   S    
C62   H30   S    
