data_str_m9_o4_o18_f0_sra.sym.70
_audit_creation_date              2012-12-11T17:02:19-0500
_audit_creation_method            fapswitch 2.2
_symmetry_space_group_name_H-M    P1
_symmetry_Int_Tables_number       1
_space_group_crystal_system       triclinic
_cell_length_a                    21.632073
_cell_length_b                    7.058911
_cell_length_c                    14.823139
_cell_angle_alpha                 90.000638
_cell_angle_beta                  106.425048
_cell_angle_gamma                 89.999831
_cell_volume                      2171.10523275

loop_
_atom_site_label
_atom_site_type_symbol
_atom_type_description
_atom_site_fract_x
_atom_site_fract_y
_atom_site_fract_z
_atom_type_partial_charge
O1    O     O_R   0.585850 0.505770 0.002130 -0.540085
O2    O     O_R   0.414150 0.005770 0.997870 -0.540106
O3    O     O_R   0.467530 0.173560 0.861970 -0.532773
O4    O     O_R   0.532470 0.673560 0.138030 -0.532747
C1    C     C_R   0.455767 0.344413 0.825006 0.775173
C2    C     C_R   0.544231 0.844413 0.174995 0.775168
O5    O     O_R   0.588690 0.175900 0.993250 -0.544219
O6    O     O_R   0.411310 0.675900 0.006750 -0.544194
O7    O     O_R   0.536170 0.007950 0.130090 -0.535863
O8    O     O_R   0.463830 0.507950 0.869910 -0.535838
C3    C     C_R   0.615150 0.344674 0.998121 0.738842
C4    C     C_R   0.384850 0.844677 0.001882 0.738815
O9    O     O_3   0.482630 0.339970 0.044740 -0.374745
O10   O     O_3   0.517370 0.839970 0.955260 -0.374744
V1    V     V_3+5 0.503220 0.064200 0.991700 1.482692
V2    V     V_3+5 0.496780 0.564200 0.008300 1.482754
C5    C     C_R   0.275991 0.002506 0.953495 0.078743
C6    C     C_R   0.723986 0.502652 0.046398 0.078827
C7    C     C_R   0.315584 0.852469 0.997641 -0.098895
C8    C     C_R   0.684419 0.352468 0.002373 -0.098941
C9    C     C_R   0.285916 0.703457 0.033177 -0.126837
C10   C     C_R   0.714114 0.203335 0.966968 -0.126791
H1    H     H_    0.313895 0.582247 0.066088 0.139466
H2    H     H_    0.686157 0.082011 0.934163 0.139429
C11   C     C_R   0.220699 0.715179 0.032349 -0.114626
C12   C     C_R   0.779331 0.215060 0.967793 -0.114345
H3    H     H_    0.200602 0.602229 0.064598 0.125600
H4    H     H_    0.799450 0.101984 0.935659 0.125792
C13   C     C_R   0.183082 0.875834 0.995575 -0.138540
C14   C     C_R   0.816922 0.375835 0.004440 -0.138613
C15   C     C_R   0.211528 0.013744 0.952283 0.138724
C16   C     C_R   0.788448 0.513891 0.047613 0.138883
C17   C     C_3   0.214619 0.223627 0.963756 0.120414
C18   C     C_3   0.785328 0.723729 0.035974 0.120167
C19   C     C_3   0.285184 0.211398 0.964971 -0.428062
C20   C     C_3   0.714761 0.711501 0.034745 -0.428191
H5    H     H_    0.207375 0.270233 0.031649 0.081855
H6    H     H_    0.792573 0.770105 0.968047 0.081755
H7    H     H_    0.319106 0.249311 0.034118 0.154422
H8    H     H_    0.680842 0.749170 0.965557 0.154476
H9    H     H_    0.296019 0.277780 0.903148 0.210994
H10   H     H_    0.703906 0.778108 0.096502 0.210970
C21   C     C_R   0.927527 0.881416 0.722438 -0.134116
C22   C     C_R   0.072471 0.381395 0.277563 -0.134120
C23   C     C_R   0.570300 0.850606 0.277547 -0.124976
C24   C     C_R   0.429699 0.350620 0.722455 -0.124970
C25   C     C_R   0.936964 0.837666 0.565076 -0.116141
C26   C     C_R   0.063037 0.337177 0.434898 -0.116148
C27   C     C_R   0.966521 0.865987 0.660717 0.366976
C28   C     C_R   0.033475 0.365646 0.339268 0.366943
C29   C     C_R   0.860300 0.873507 0.687068 -0.229388
C30   C     C_R   0.139699 0.373630 0.312937 -0.229394
C31   C     C_R   0.829772 0.844132 0.590221 0.085672
C32   C     C_R   0.170232 0.344070 0.409767 0.085674
C33   C     C_R   0.869667 0.824307 0.529729 -0.048091
C34   C     C_R   0.130338 0.323958 0.470246 -0.048111
C35   C     C_R   0.761252 0.833506 0.551568 0.038648
C36   C     C_R   0.238756 0.333523 0.448418 0.038633
C37   C     C_R   0.734056 0.807474 0.452546 -0.032693
C38   C     C_R   0.265954 0.307340 0.547430 -0.032682
C39   C     C_R   0.776428 0.760260 0.397520 0.357171
C40   C     C_R   0.223591 0.259877 0.602429 0.357207
C41   C     C_R   0.842638 0.781326 0.435020 -0.117489
C42   C     C_R   0.157375 0.280824 0.564934 -0.117450
C43   C     C_R   0.718973 0.844820 0.608637 -0.177867
C44   C     C_R   0.281033 0.345043 0.391357 -0.177884
C45   C     C_R   0.652609 0.838595 0.570269 -0.092040
C46   C     C_R   0.347401 0.338918 0.429727 -0.092029
C47   C     C_R   0.624951 0.833522 0.472884 0.056589
C48   C     C_R   0.375057 0.333738 0.527111 0.056569
C49   C     C_R   0.665741 0.827033 0.412922 0.025733
C50   C     C_R   0.334267 0.327008 0.587067 0.025739
C51   C     C_R   0.557067 0.839116 0.435288 0.361077
C52   C     C_R   0.442941 0.339466 0.564713 0.361107
C53   C     C_R   0.529655 0.841430 0.336399 0.165570
C54   C     C_R   0.470349 0.341704 0.663605 0.165531
C55   C     C_R   0.637068 0.850887 0.315693 -0.291005
C56   C     C_R   0.362930 0.350745 0.684307 -0.290983
H11   H     H_    0.873605 0.751842 0.390516 0.189239
H12   H     H_    0.126414 0.251133 0.609421 0.189357
H13   H     H_    0.665907 0.871690 0.267729 0.174640
H14   H     H_    0.334084 0.371366 0.732278 0.174586
H15   H     H_    0.622889 0.844538 0.618047 0.196949
H16   H     H_    0.377121 0.345027 0.381953 0.196971
H17   H     H_    0.967125 0.822442 0.518197 0.149348
H18   H     H_    0.032878 0.321720 0.481767 0.149377
H19   H     H_    0.833474 0.888781 0.737780 0.104007
H20   H     H_    0.166528 0.389139 0.262243 0.104017
H21   H     H_    0.735426 0.855041 0.684088 0.123623
H22   H     H_    0.264581 0.355340 0.315908 0.123626
O11   O     O_R   0.036080 0.231270 0.130120 -0.535218
O12   O     O_R   0.963920 0.731270 0.869880 -0.535234
O13   O     O_R   0.911300 0.558970 0.006750 -0.538334
O14   O     O_R   0.088700 0.058970 0.993250 -0.538360
C57   C     C_R   0.884808 0.389853 0.001777 0.698692
C58   C     C_R   0.115193 0.889853 0.998225 0.698649
O15   O     O_R   0.032450 0.561140 0.138040 -0.537203
O16   O     O_R   0.967550 0.061140 0.861960 -0.537183
O17   O     O_R   0.085870 0.728910 0.002130 -0.533127
O18   O     O_R   0.914130 0.228910 0.997870 -0.533107
C59   C     C_R   0.044884 0.392346 0.175289 0.678260
C60   C     C_R   0.955113 0.892347 0.824713 0.678254
O19   O     O_3   0.017320 0.394650 0.955270 -0.358489
O20   O     O_3   0.982680 0.894650 0.044730 -0.358453
V3    V     V_3+5 0.996780 0.670490 0.008300 1.508893
V4    V     V_3+5 0.003220 0.170490 0.991700 1.508916
O21   O     O_3   0.033085 0.873714 0.690169 -0.624179
H23   H     H_    0.048152 0.900150 0.758443 0.296839
O22   O     O_3   0.966909 0.373208 0.309807 -0.624199
H24   H     H_    0.951837 0.399948 0.241567 0.296815
O23   O     O_3   0.756203 0.674585 0.310588 -0.625983
H25   H     H_    0.719836 0.589388 0.310978 0.292841
O24   O     O_3   0.243833 0.174059 0.689325 -0.626009
H26   H     H_    0.280222 0.088976 0.688902 0.292836
O25   O     O_3   0.519671 0.840277 0.497237 -0.627094
H27   H     H_    0.474011 0.862878 0.463169 0.347883
O26   O     O_3   0.480338 0.340840 0.502767 -0.627071
H28   H     H_    0.525998 0.363389 0.536846 0.347924
Br1   Br    Br    0.160753 0.350437 0.853021 -0.493033
Br2   Br    Br    0.839161 0.850867 0.146632 -0.493084
Br3   Br    Br    0.437440 0.832630 0.279822 -0.594633
Br4   Br    Br    0.562567 0.333185 0.720190 -0.594617

loop_
_geom_bond_atom_site_label_1
_geom_bond_atom_site_label_2
_ccdc_geom_bond_type
C44   C46   A    
C45   H15   S    
C2    C23   S    
C51   C53   A    
C20   H10   S    
O23   H25   S    
O1    C3    A    
O2    C4    A    
C2    O7    A    
O20   V4    S    
C25   C27   A    
C41   H11   S    
C43   H21   S    
C52   C54   A    
C25   H17   S    
C7    C9    A    
C19   H7    S    
C17   C19   S    
C35   C37   A    
C38   C50   A    
C36   C38   A    
O25   H27   S    
C58   O17   A    
C38   C40   A    
C47   C49   A    
C50   C56   A    
O13   V3    S    
C36   C44   A    
C43   C45   A    
C33   C41   A    
C48   C52   A    
C40   C42   A    
O21   H23   S    
C34   C42   A    
C47   C51   A    
C55   H13   S    
C27   O21   S    
C18   C20   S    
O12   C60   A    
O15   V3    S    
C22   C30   A    
O5    V1    S    
O6    V2    S    
C53   Br3   S    
C18   Br2   S    
C42   H12   S    
O11   V4    S    
O11   C59   A    
C24   C54   A    
O20   V3    S    
C30   C32   A    
C31   C33   A    
C11   C13   A    
O17   V3    S    
C32   C34   A    
C3    C8    S    
C37   C39   A    
C46   H16   S    
C30   H20   S    
C40   O24   S    
C44   H22   S    
C29   H19   S    
C24   C56   A    
C31   C35   A    
C57   O18   A    
C21   C27   A    
C26   H18   S    
O16   C60   A    
C28   O22   S    
C17   H5    S    
C29   C31   A    
C16   C18   S    
O4    V2    S    
O5    C3    A    
C14   C57   S    
C56   H14   S    
C20   H8    S    
O6    C4    A    
C15   C17   S    
O19   V3    S    
O1    V2    S    
O14   C58   A    
O2    V1    S    
O4    C2    A    
C8    C10   A    
C12   C14   A    
C9    H1    S    
C5    C15   A    
C10   H2    S    
C6    C16   A    
C39   O23   S    
C49   C55   A    
O3    V1    S    
C25   C33   A    
O24   H26   S    
C32   C36   A    
C22   C28   A    
C26   C34   A    
C52   O26   S    
C9    C11   A    
O14   V4    S    
C18   H6    S    
O18   V4    S    
C39   C41   A    
C35   C43   A    
O3    C1    A    
O16   V4    S    
C13   C58   S    
C23   C55   A    
C22   C59   S    
C17   Br1   S    
C11   H3    S    
C1    C24   S    
C12   H4    S    
C51   O25   S    
C23   C53   A    
C54   Br4   S    
O7    V1    S    
C21   C60   S    
C1    O8    A    
C13   C15   A    
O8    V2    S    
O22   H24   S    
C14   C16   A    
C21   C29   A    
C4    C7    S    
C26   C28   A    
C5    C7    A    
O19   V4    S    
C6    C8    A    
C19   H9    S    
O12   V3    S    
O13   C57   A    
C10   C12   A    
O9    V2    S    
C46   C48   A    
O10   V1    S    
C48   C50   A    
C5    C19   S    
C45   C47   A    
O26   H28   S    
C6    C20   S    
O15   C59   A    
C37   C49   A    
