data_str_m9_o10_o29_f0_sra.sym.60
_audit_creation_date              2012-12-11T14:08:42-0500
_audit_creation_method            fapswitch 2.2
_symmetry_space_group_name_H-M    P1
_symmetry_Int_Tables_number       1
_space_group_crystal_system       triclinic
_cell_length_a                    28.17988
_cell_length_b                    7.187547
_cell_length_c                    17.174647
_cell_angle_alpha                 90.001638
_cell_angle_beta                  101.772126
_cell_angle_gamma                 90.000433
_cell_volume                      3405.45857475

loop_
_atom_site_label
_atom_site_type_symbol
_atom_type_description
_atom_site_fract_x
_atom_site_fract_y
_atom_site_fract_z
_atom_type_partial_charge
O1    O     O_R   0.000700 0.436510 0.857920 -0.533135
O2    O     O_R   0.999300 0.563490 0.142080 -0.533163
O3    O     O_R   0.999300 0.936510 0.642080 -0.533134
O4    O     O_R   0.000700 0.063490 0.357920 -0.533173
O5    O     O_R   0.930080 0.766380 0.721890 -0.542147
O6    O     O_R   0.069920 0.233620 0.278110 -0.542123
O7    O     O_R   0.069920 0.266380 0.778110 -0.542137
O8    O     O_R   0.930080 0.733620 0.221890 -0.542124
C1    C     C_R   0.910534 0.597630 0.709040 0.698657
C2    C     C_R   0.089464 0.402362 0.290956 0.698735
C3    C     C_R   0.089464 0.097636 0.790954 0.698732
C4    C     C_R   0.910535 0.902365 0.209058 0.698718
O9    O     O_R   0.996180 0.766230 0.862310 -0.543096
O10   O     O_R   0.003820 0.233770 0.137690 -0.543061
O11   O     O_R   0.003820 0.266230 0.637690 -0.543108
O12   O     O_R   0.996180 0.733770 0.362310 -0.543068
O13   O     O_R   0.065870 0.936460 0.783500 -0.539629
O14   O     O_R   0.934130 0.063540 0.216500 -0.539633
O15   O     O_R   0.934130 0.436460 0.716500 -0.539587
O16   O     O_R   0.065870 0.563540 0.283500 -0.539637
C5    C     C_R   0.998482 0.596477 0.894503 0.762759
C6    C     C_R   0.001518 0.403523 0.105497 0.762769
C7    C     C_R   0.001518 0.096477 0.605497 0.762717
C8    C     C_R   0.998482 0.903523 0.394503 0.762746
O17   O     O_3   0.022790 0.603020 0.723980 -0.377819
O18   O     O_3   0.977210 0.396980 0.276020 -0.377831
O19   O     O_3   0.977210 0.103020 0.776020 -0.377783
O20   O     O_3   0.022790 0.896980 0.223980 -0.377817
V1    V     V_3+5 0.995770 0.877900 0.754830 1.417603
V2    V     V_3+5 0.004230 0.122100 0.245170 1.417574
V3    V     V_3+5 0.004230 0.377900 0.745170 1.417619
V4    V     V_3+5 0.995770 0.622100 0.254830 1.417559
C9    C     C_2   0.001711 0.082731 0.519535 -0.327066
C10   C     C_2   0.998289 0.917269 0.480465 -0.327010
C11   C     C_2   0.998287 0.582730 0.980464 -0.327047
C12   C     C_2   0.001713 0.417270 0.019536 -0.327006
H1    H     H_    0.004512 0.211679 0.487801 0.153579
H2    H     H_    0.995488 0.788322 0.512199 0.153585
H3    H     H_    0.995482 0.711677 0.012198 0.153578
H4    H     H_    0.004518 0.288324 0.987802 0.153582
C13   C     C_R   0.682053 0.881868 0.032678 0.659756
C14   C     C_R   0.317959 0.118471 0.967333 0.659764
C15   C     C_R   0.317949 0.382015 0.467442 0.659670
C16   C     C_R   0.682029 0.619208 0.532899 0.659921
O21   O     O_2   0.710713 0.802217 0.988233 -0.459663
O22   O     O_2   0.289311 0.198263 0.011768 -0.459572
O23   O     O_2   0.289278 0.302603 0.511950 -0.459556
O24   O     O_2   0.710644 0.700002 0.488653 -0.459499
N1    N     N_R   0.702686 0.945393 0.106873 -0.583460
N2    N     N_R   0.297307 0.054730 0.893184 -0.583465
N3    N     N_R   0.297313 0.445411 0.393230 -0.583464
N4    N     N_R   0.702700 0.554876 0.606933 -0.583564
C17   C     C_R   0.675514 0.029467 0.154302 0.709631
C18   C     C_R   0.324462 0.970618 0.845743 0.709537
C19   C     C_R   0.324484 0.529347 0.345766 0.709556
C20   C     C_R   0.675587 0.470137 0.654271 0.709622
C21   C     C_R   0.777738 0.759983 0.148490 -0.043777
C22   C     C_R   0.222262 0.240038 0.851323 -0.043900
C23   C     C_R   0.222249 0.259967 0.351750 -0.043830
C24   C     C_R   0.777654 0.739861 0.650145 -0.044053
C25   C     C_R   0.828236 0.749450 0.173216 -0.187586
C26   C     C_R   0.171765 0.250550 0.826568 -0.187564
C27   C     C_R   0.171752 0.249427 0.326983 -0.187554
C28   C     C_R   0.828156 0.750344 0.674876 -0.187660
C29   C     C_R   0.833201 0.085699 0.169554 -0.182383
C30   C     C_R   0.166783 0.914352 0.830785 -0.182375
C31   C     C_R   0.166806 0.585697 0.330396 -0.182383
C32   C     C_R   0.833289 0.414540 0.667733 -0.182209
C33   C     C_R   0.782817 0.095786 0.144847 -0.073226
C34   C     C_R   0.217168 0.904290 0.855514 -0.073156
C35   C     C_R   0.217189 0.595794 0.355129 -0.073050
C36   C     C_R   0.782897 0.404518 0.643059 -0.073738
C37   C     C_R   0.754681 0.933277 0.133965 0.353172
C38   C     C_R   0.245309 0.066792 0.866132 0.353287
C39   C     C_R   0.245316 0.433273 0.366153 0.353141
C40   C     C_R   0.754693 0.566850 0.633926 0.353736
C41   C     C_R   0.602646 0.984338 0.051932 -0.151753
C42   C     C_R   0.397364 0.016135 0.948013 -0.151783
C43   C     C_R   0.397365 0.484240 0.448117 -0.151729
C44   C     C_R   0.602652 0.516198 0.552088 -0.151645
C45   C     C_R   0.631548 0.900066 0.002958 -0.102467
C46   C     C_R   0.368469 0.100357 0.997015 -0.102556
C47   C     C_R   0.368463 0.400104 0.497127 -0.102531
C48   C     C_R   0.631538 0.600755 0.503151 -0.102630
C49   C     C_R   0.609018 0.845724 0.924898 0.453806
C50   C     C_R   0.391009 0.154789 0.075057 0.453641
C51   C     C_R   0.391002 0.345792 0.575192 0.453808
C52   C     C_R   0.609011 0.655162 0.425100 0.453417
C53   C     C_R   0.625064 0.058856 0.126793 -0.156765
C54   C     C_R   0.374940 0.941626 0.873152 -0.156827
C55   C     C_R   0.374943 0.558657 0.373244 -0.156827
C56   C     C_R   0.625090 0.441394 0.626902 -0.156847
C57   C     C_R   0.856727 0.912344 0.183908 -0.055654
C58   C     C_R   0.143269 0.087672 0.816139 -0.055643
C59   C     C_R   0.143271 0.412324 0.316144 -0.055663
C60   C     C_R   0.856728 0.587651 0.683838 -0.055649
H5    H     H_    0.853645 0.214267 0.176988 0.135299
H6    H     H_    0.146333 0.785789 0.823575 0.135266
H7    H     H_    0.146364 0.714276 0.322855 0.135293
H8    H     H_    0.853796 0.286130 0.673711 0.135178
H9    H     H_    0.765583 0.230509 0.133519 0.128916
H10   H     H_    0.234390 0.769595 0.867054 0.128932
H11   H     H_    0.234425 0.730545 0.366360 0.128930
H12   H     H_    0.765732 0.270023 0.630396 0.128885
C61   C     C_R   0.477266 0.910369 0.927907 -0.039453
C62   C     C_R   0.522755 0.090297 0.071989 -0.039438
C63   C     C_R   0.522751 0.410290 0.572141 -0.039453
C64   C     C_R   0.477259 0.590170 0.428039 -0.039506
C65   C     C_R   0.471144 0.083926 0.048421 0.048336
C66   C     C_R   0.528877 0.916693 0.951493 0.048295
C67   C     C_R   0.528875 0.583929 0.451644 0.048288
C68   C     C_R   0.471141 0.416642 0.548557 0.048320
C69   C     C_R   0.448771 0.005598 0.974224 0.048467
C70   C     C_R   0.551245 0.994981 0.025695 0.048521
C71   C     C_R   0.551246 0.505601 0.525849 0.048472
C72   C     C_R   0.448769 0.494883 0.474345 0.048472
C73   C     C_R   0.452661 0.802258 0.862621 0.309722
C74   C     C_R   0.547366 0.198605 0.137204 0.309728
C75   C     C_R   0.547352 0.302073 0.637400 0.309649
C76   C     C_R   0.452643 0.698318 0.362774 0.309732
C77   C     C_R   0.403140 0.831274 0.831172 0.422986
C78   C     C_R   0.596897 0.169647 0.168657 0.422824
C79   C     C_R   0.596881 0.330972 0.668845 0.422970
C80   C     C_R   0.403113 0.669305 0.331328 0.422891
O25   O     O_2   0.302298 0.917730 0.772031 -0.439948
O26   O     O_2   0.697623 0.081863 0.228115 -0.439767
O27   O     O_2   0.697816 0.416284 0.727817 -0.440098
O28   O     O_2   0.302357 0.581748 0.271949 -0.439760
C81   C     C_R   0.559084 0.862688 0.899694 -0.089952
C82   C     C_R   0.440948 0.137942 0.100231 -0.090108
C83   C     C_R   0.440940 0.362695 0.600372 -0.089942
C84   C     C_R   0.559084 0.638047 0.399864 -0.090158
H13   H     H_    0.155137 0.386465 0.815934 0.134168
H14   H     H_    0.844873 0.613505 0.183611 0.134074
H15   H     H_    0.844715 0.886083 0.686707 0.134628
H16   H     H_    0.155106 0.113485 0.316674 0.134054
H17   H     H_    0.243491 0.366764 0.859116 0.137648
H18   H     H_    0.756507 0.633246 0.140481 0.137625
H19   H     H_    0.756368 0.866430 0.643510 0.137985
H20   H     H_    0.243466 0.133227 0.359869 0.137577
H21   H     H_    0.544429 0.838974 0.837391 0.231300
H22   H     H_    0.455619 0.161765 0.162519 0.231145
H23   H     H_    0.455604 0.338975 0.662673 0.231276
H24   H     H_    0.544436 0.661739 0.337554 0.231225
Cl1   Cl    Cl    0.640301 0.759572 0.853112 -0.417623
Cl2   Cl    Cl    0.359732 0.240882 0.146853 -0.416953
Cl3   Cl    Cl    0.359731 0.259698 0.647009 -0.417211
Cl4   Cl    Cl    0.640315 0.741262 0.353328 -0.416932
Cl5   Cl    Cl    0.377590 0.712071 0.741946 -0.413990
Cl6   Cl    Cl    0.622533 0.289647 0.257571 -0.414379
Cl7   Cl    Cl    0.622406 0.211741 0.758079 -0.413958
Cl8   Cl    Cl    0.377490 0.789098 0.242348 -0.414134
Cl9   Cl    Cl    0.478894 0.597016 0.831618 -0.545381
Cl10  Cl    Cl    0.521122 0.403933 0.168072 -0.545251
Cl11  Cl    Cl    0.521097 0.096852 0.668362 -0.545425
Cl12  Cl    Cl    0.478874 0.903591 0.331777 -0.545247

loop_
_geom_bond_atom_site_label_1
_geom_bond_atom_site_label_2
_ccdc_geom_bond_type
C84   H24   S    
C47   C51   A    
C61   C66   A    
N1    C17   A    
O1    C5    A    
C30   H6    S    
O19   V1    S    
O13   V1    S    
C63   C68   A    
C64   C76   A    
O3    C7    A    
C11   C12   D    
C14   C46   A    
O1    V3    S    
C44   C48   A    
O15   V3    S    
C75   C79   A    
O4    V2    S    
C42   C54   A    
O18   V4    S    
C41   C53   A    
C32   C60   A    
C51   Cl3   S    
C62   C70   A    
C78   Cl6   S    
C26   H13   S    
O9    V1    S    
C49   Cl1   S    
C18   C54   A    
N2    C38   S    
C74   C78   A    
C11   H3    S    
O4    C8    A    
C25   C57   A    
C31   C35   A    
C81   H21   S    
C53   C78   A    
C51   C83   A    
C27   C59   A    
C76   Cl12  S    
C15   C47   A    
C66   C81   A    
O2    V4    S    
C14   O22   S    
C20   O27   S    
C21   C37   A    
O3    V1    S    
C73   C77   A    
C34   C38   A    
C23   H20   S    
C19   C55   A    
C49   C81   A    
C1    O15   A    
C2    O16   A    
C7    C9    S    
O2    C6    A    
C33   C37   A    
O14   V2    S    
C66   C70   A    
C43   C55   A    
C65   C69   A    
C30   C58   A    
C16   N4    A    
O11   C7    A    
C80   Cl8   S    
C28   H15   S    
O12   C8    A    
C43   C72   A    
C62   C74   A    
C31   C59   A    
C61   C73   A    
O10   V2    S    
C50   Cl2   S    
C63   C75   A    
C25   H14   S    
O5    V1    S    
C18   O25   S    
C79   Cl7   S    
O7    V3    S    
O8    V4    S    
C12   H4    S    
C28   C60   A    
C56   C79   A    
C50   C82   A    
C36   H12   S    
N4    C40   S    
C46   C50   A    
C24   C40   A    
C8    C10   S    
C32   C36   A    
C44   C56   A    
O7    C3    A    
C32   H8    S    
O5    C1    A    
C42   C46   A    
C44   C71   A    
C41   C45   A    
O8    C4    A    
C13   C45   A    
C9    C10   D    
C52   Cl4   S    
O9    C5    A    
C36   C40   A    
N2    C18   A    
O11   V3    S    
C1    C60   S    
C63   C71   A    
C22   C26   A    
C14   N2    A    
C22   H17   S    
O6    V2    S    
C33   H9    S    
C55   C80   A    
C26   C58   A    
C17   C53   A    
O10   C6    A    
C54   C77   A    
N1    C37   S    
C4    C57   S    
C42   C69   A    
C52   C84   A    
C41   C70   A    
C23   C39   A    
C68   C72   A    
C83   H23   S    
C22   C38   A    
O16   V4    S    
C61   C69   A    
C35   H11   S    
C3    O13   A    
C75   Cl11  S    
C10   H2    S    
O17   V3    S    
C48   C52   A    
C3    C58   S    
C16   C48   A    
O6    C2    A    
C34   H10   S    
C21   C25   A    
C5    C11   S    
C31   H7    S    
O12   V4    S    
C13   N1    A    
C6    C12   S    
C23   C27   A    
C64   C67   A    
N3    C39   S    
C24   C28   A    
C27   H16   S    
C64   C72   A    
O20   V2    S    
C73   Cl9   S    
C29   H5    S    
C35   C39   A    
C15   N3    A    
C30   C34   A    
N4    C20   A    
C2    C59   S    
C29   C33   A    
C29   C57   A    
C77   Cl5   S    
C21   H18   S    
C74   Cl10  S    
N3    C19   A    
C68   C83   A    
C82   H22   S    
C9    H1    S    
C17   O26   S    
C24   H19   S    
C43   C47   A    
C76   C80   A    
C67   C84   A    
C20   C56   A    
C19   O28   S    
C4    O14   A    
C65   C82   A    
C13   O21   S    
C67   C71   A    
C15   O23   S    
C45   C49   A    
C16   O24   S    
C62   C65   A    
