data_str_m4_o22_o22_f0_acs.sym.13
_audit_creation_date              2012-12-11T15:06:54-0500
_audit_creation_method            fapswitch 2.2
_symmetry_space_group_name_H-M    P1
_symmetry_Int_Tables_number       1
_space_group_crystal_system       triclinic
_cell_length_a                    19.808682
_cell_length_b                    11.38885
_cell_length_c                    18.700435
_cell_angle_alpha                 89.970939
_cell_angle_beta                  90.291188
_cell_angle_gamma                 89.929959
_cell_volume                      4218.72456386

loop_
_atom_site_label
_atom_site_type_symbol
_atom_type_description
_atom_site_fract_x
_atom_site_fract_y
_atom_site_fract_z
_atom_type_partial_charge
C1    C     C_R   0.761301 0.523421 0.639353 0.537656
C2    C     C_3   0.252826 0.056656 0.563366 0.067578
C3    C     C_R   0.739035 0.031809 0.151088 0.528566
C4    C     C_R   0.783670 0.157943 0.864567 0.530217
C5    C     C_R   0.212139 0.169996 0.134386 0.527765
C6    C     C_R   0.288477 0.671019 0.865589 0.544190
C7    C     C_R   0.715697 0.659656 0.135267 0.530338
C8    C     C_R   0.969036 0.352482 0.852588 0.528000
C9    C     C_R   0.030571 0.353984 0.146176 0.541505
C10   C     C_R   0.469000 0.854161 0.854069 0.541805
C11   C     C_R   0.530105 0.853099 0.147869 0.524342
C12   C     C_3   0.687602 0.131135 0.465038 -0.234386
C13   C     C_3   0.247141 0.556611 0.436657 0.067530
C14   C     C_3   0.312285 0.131150 0.534969 -0.234187
C15   C     C_3   0.187602 0.631138 0.465037 -0.234076
C16   C     C_3   0.812286 0.631145 0.534966 -0.234472
C17   C     C_3   0.693179 0.145154 0.546219 -0.231659
C18   C     C_3   0.306761 0.145073 0.453778 -0.231910
C19   C     C_3   0.193178 0.645157 0.546218 -0.231938
C20   C     C_3   0.806761 0.645069 0.453776 -0.231700
C21   C     C_3   0.756502 0.939871 0.480612 -0.217004
C22   C     C_3   0.243557 0.939920 0.519498 -0.216538
C23   C     C_3   0.256503 0.439873 0.480611 -0.216736
C24   C     C_3   0.752827 0.556653 0.563363 0.066990
C25   C     C_3   0.743559 0.439917 0.519496 -0.216864
C26   C     C_3   0.760213 0.090705 0.574201 0.065913
C27   C     C_3   0.239794 0.090698 0.425804 0.065323
C28   C     C_3   0.260213 0.590707 0.574199 0.065437
C29   C     C_3   0.739795 0.590695 0.425802 0.065792
C30   C     C_3   0.753754 0.958880 0.561944 -0.262264
C31   C     C_3   0.246359 0.958871 0.438161 -0.262264
C32   C     C_3   0.253752 0.458882 0.561943 -0.262138
C33   C     C_R   0.238679 0.523406 0.360672 0.535916
C34   C     C_3   0.746359 0.458868 0.438159 -0.262316
C35   C     C_3   0.822556 0.133713 0.530130 -0.215575
C36   C     C_3   0.177410 0.133843 0.469808 -0.215607
C37   C     C_3   0.322555 0.633714 0.530128 -0.215726
C38   C     C_3   0.677410 0.633839 0.469805 -0.215593
C39   C     C_3   0.004241 0.205877 0.459040 -0.232471
C40   C     C_3   0.995734 0.205852 0.540990 -0.232515
C41   C     C_3   0.504237 0.705877 0.459034 -0.232503
C42   C     C_3   0.495730 0.705852 0.540984 -0.232500
C43   C     C_3   0.064328 0.405460 0.474795 -0.212756
C44   C     C_R   0.261300 0.023424 0.639354 0.535624
C45   C     C_3   0.935628 0.405573 0.525188 -0.212801
C46   C     C_3   0.564323 0.905459 0.474789 -0.212746
C47   C     C_3   0.435623 0.905574 0.525182 -0.212986
C48   C     C_3   0.942138 0.390339 0.444089 -0.262050
C49   C     C_3   0.057840 0.390119 0.555889 -0.262227
C50   C     C_3   0.442133 0.890338 0.444082 -0.262201
C51   C     C_3   0.557835 0.890120 0.555882 -0.262009
C52   C     C_3   0.010702 0.333418 0.430929 0.065402
C53   C     C_3   0.989293 0.333388 0.569071 0.065993
C54   C     C_3   0.510697 0.833418 0.430923 0.066040
C55   C     C_R   0.738678 0.023403 0.360673 0.537748
C56   C     C_3   0.489288 0.833389 0.569065 0.065210
C57   C     C_3   0.820927 0.033799 0.050049 -0.278135
C58   C     C_3   0.178845 0.033791 0.948938 -0.270426
C59   C     C_3   0.322195 0.534521 0.051406 -0.269443
C60   C     C_3   0.679070 0.533930 0.949971 -0.278747
C61   C     C_R   0.774232 0.121283 0.649567 0.539852
C62   C     C_R   0.225773 0.121282 0.350422 0.541222
C63   C     C_R   0.274232 0.621284 0.649566 0.542120
C64   C     C_R   0.725773 0.621280 0.350420 0.539704
C65   C     C_3   0.823652 0.041983 0.969979 -0.276150
C66   C     C_3   0.810361 0.130493 0.449087 -0.260522
C67   C     C_3   0.175842 0.052089 0.028275 -0.272845
C68   C     C_3   0.326013 0.553358 0.971968 -0.255614
C69   C     C_3   0.676203 0.542957 0.030007 -0.275938
C70   C     C_3   0.694247 0.022172 0.026481 -0.131643
C71   C     C_3   0.305484 0.058483 0.964840 -0.128751
C72   C     C_3   0.196071 0.554277 0.033999 -0.130712
C73   C     C_3   0.805603 0.522871 0.974205 -0.135722
C74   C     C_3   0.747230 0.206180 0.069606 -0.026177
C75   C     C_3   0.233110 0.221627 0.920638 -0.024900
C76   C     C_3   0.263696 0.719873 0.079359 -0.046926
C77   C     C_3   0.189557 0.130632 0.550864 -0.260774
C78   C     C_3   0.752461 0.706002 0.929680 -0.023535
C79   C     C_3   0.749410 0.073910 0.076613 0.032481
C80   C     C_3   0.244646 0.089064 0.917724 0.029992
C81   C     C_3   0.255363 0.587295 0.081888 0.046075
C82   C     C_3   0.750585 0.573811 0.923457 0.031205
C83   C     C_3   0.766207 0.124638 0.940078 0.059403
C84   C     C_3   0.227723 0.146980 0.054695 0.041376
C85   C     C_3   0.273601 0.647013 0.945426 0.075597
C86   C     C_3   0.733276 0.626310 0.059700 0.058861
C87   C     C_3   0.698178 0.059152 0.946082 0.225491
C88   C     C_3   0.310360 0.630496 0.449085 -0.260584
C89   C     C_3   0.301393 0.101423 0.043239 0.251508
C90   C     C_3   0.202552 0.593385 0.954824 0.249530
C91   C     C_3   0.801632 0.561328 0.054173 0.225920
C92   C     C_3   0.761176 0.233244 0.989885 -0.206529
C93   C     C_3   0.222941 0.255374 0.001624 -0.209362
C94   C     C_3   0.274952 0.755074 0.998910 -0.233019
C95   C     C_3   0.737883 0.734242 0.009121 -0.207036
C96   C     C_3   0.031427 0.473605 0.030316 0.041696
C97   C     C_3   0.006250 0.476368 0.953558 0.017232
C98   C     C_3   0.495122 0.980791 0.045900 0.020831
C99   C     C_3   0.689557 0.630628 0.550860 -0.260624
C100  C     C_3   0.470139 0.977573 0.968951 0.043149
C101  C     C_3   0.044980 0.250029 0.031071 -0.261169
C102  C     C_3   0.926800 0.314224 0.971532 -0.252384
C103  C     C_3   0.570618 0.811366 0.029254 -0.252329
C104  C     C_3   0.450990 0.755846 0.970429 -0.260452
C105  C     C_3   0.934953 0.339389 0.052927 -0.270422
C106  C     C_3   0.043592 0.262019 0.948501 -0.273027
C107  C     C_3   0.451122 0.772265 0.052920 -0.279661
C108  C     C_3   0.563308 0.835357 0.947839 -0.273718
C109  C     C_R   0.968789 0.342254 0.645039 0.534210
C110  C     C_3   0.747140 0.056609 0.436658 0.066977
C111  C     C_R   0.031214 0.342284 0.354963 0.535859
C112  C     C_R   0.468784 0.842254 0.645034 0.536295
C113  C     C_R   0.531209 0.842284 0.354959 0.534342
C114  C     C_3   0.009732 0.355301 0.068309 0.047977
C115  C     C_3   0.988726 0.350787 0.928773 0.052352
C116  C     C_3   0.509568 0.853873 0.071798 0.049406
C117  C     C_3   0.489135 0.856694 0.932101 0.047071
C118  C     C_R   0.761135 0.531127 0.849149 0.528720
C119  C     C_R   0.241262 0.537830 0.154093 0.526262
C120  C     C_R   0.258524 0.038830 0.845523 0.521568
Cr1   Cr    Cr6+3 0.885690 0.492860 0.745310 0.978157
Cr2   Cr    Cr6+3 0.111880 0.178590 0.246990 0.992380
Cr3   Cr    Cr6+3 0.388120 0.678590 0.753010 0.992776
Cr4   Cr    Cr6+3 0.611880 0.678590 0.246990 0.989405
Cr5   Cr    Cr6+3 0.114310 0.492860 0.254690 0.985944
Cr6   Cr    Cr6+3 0.385690 0.992860 0.745310 0.984983
Cr7   Cr    Cr6+3 0.614310 0.992860 0.254690 0.978762
Cr8   Cr    Cr6+3 0.729880 0.332270 0.748190 0.986264
Cr9   Cr    Cr6+3 0.270120 0.332270 0.251810 0.979200
Cr10  Cr    Cr6+3 0.229880 0.832270 0.748190 0.977152
Cr11  Cr    Cr6+3 0.770120 0.832270 0.251810 0.986072
Cr12  Cr    Cr6+3 0.888120 0.178590 0.753010 0.988651
H1    H     H_    0.639158 0.093115 0.450635 0.132189
H2    H     H_    0.191651 0.909226 0.530511 0.126188
H3    H     H_    0.850479 0.602087 0.427788 0.107581
H4    H     H_    0.721781 0.870690 0.463837 0.108370
H5    H     H_    0.278252 0.870630 0.536389 0.108660
H6    H     H_    0.221783 0.370690 0.463834 0.108551
H7    H     H_    0.778255 0.370629 0.536386 0.108416
H8    H     H_    0.705830 0.925016 0.584325 0.104155
H9    H     H_    0.294325 0.924941 0.415847 0.104047
H10   H     H_    0.205828 0.425018 0.584323 0.103905
H11   H     H_    0.794325 0.424938 0.415844 0.104158
H12   H     H_    0.803720 0.220356 0.427397 0.104142
H13   H     H_    0.308416 0.409020 0.469578 0.126146
H14   H     H_    0.196125 0.220480 0.572496 0.103658
H15   H     H_    0.303719 0.720358 0.427394 0.103879
H16   H     H_    0.696124 0.720477 0.572491 0.104079
H17   H     H_    0.687331 0.218798 0.439256 0.107389
H18   H     H_    0.312398 0.218841 0.560651 0.107322
H19   H     H_    0.187332 0.718801 0.439255 0.107382
H20   H     H_    0.812400 0.718836 0.560648 0.107294
H21   H     H_    0.742069 0.943595 0.869900 0.251842
H22   H     H_    0.662678 0.967284 0.856262 0.235301
H23   H     H_    0.282186 0.940078 0.088930 0.250753
H24   H     H_    0.691653 0.409221 0.530509 0.126182
H25   H     H_    0.319487 0.032385 0.144811 0.263904
H26   H     H_    0.184490 0.517934 0.854874 0.262390
H27   H     H_    0.159231 0.436603 0.924415 0.231565
H28   H     H_    0.757929 0.444721 0.130116 0.252697
H29   H     H_    0.836916 0.471855 0.145142 0.236569
H30   H     H_    0.685638 0.264541 0.151345 0.250018
H31   H     H_    0.640889 0.217298 0.080023 0.238102
H32   H     H_    0.280324 0.280162 0.829135 0.248564
H33   H     H_    0.334101 0.267694 0.898280 0.219968
H34   H     H_    0.207589 0.767058 0.168662 0.257342
H35   H     H_    0.795693 0.910943 0.588835 0.120518
H36   H     H_    0.160752 0.767573 0.092266 0.228295
H37   H     H_    0.813936 0.764916 0.848028 0.249430
H38   H     H_    0.858811 0.716071 0.918830 0.238936
H39   H     H_    0.688570 0.237265 0.561036 0.138193
H40   H     H_    0.311298 0.237161 0.438871 0.138394
H41   H     H_    0.188570 0.737268 0.561035 0.138191
H42   H     H_    0.811298 0.737158 0.438870 0.138373
H43   H     H_    0.634625 0.156337 0.875890 0.270801
H44   H     H_    0.632677 0.206059 0.961575 0.219478
H45   H     H_    0.351842 0.238651 0.101520 0.264693
H46   H     H_    0.204488 0.910970 0.411273 0.121005
H47   H     H_    0.358788 0.252706 0.011481 0.198070
H48   H     H_    0.141372 0.707456 0.887880 0.270902
H49   H     H_    0.141682 0.746304 0.976621 0.205033
H50   H     H_    0.865495 0.659799 0.123443 0.270245
H51   H     H_    0.866730 0.708399 0.037461 0.220741
H52   H     H_    0.000179 0.650560 0.030882 0.225335
H53   H     H_    0.049262 0.616674 0.097530 0.244100
H54   H     H_    0.029754 0.612993 0.885372 0.246784
H55   H     H_    0.069482 0.487314 0.863688 0.240008
H56   H     H_    0.472860 0.122976 0.110501 0.239141
H57   H     H_    0.295691 0.410944 0.588836 0.121019
H58   H     H_    0.433190 0.999287 0.135824 0.263914
H59   H     H_    0.504065 0.152435 0.966606 0.226052
H60   H     H_    0.453756 0.119729 0.900878 0.241862
H61   H     H_    0.854555 0.090803 0.421846 0.123525
H62   H     H_    0.145397 0.091007 0.578117 0.123018
H63   H     H_    0.354554 0.590806 0.421843 0.123140
H64   H     H_    0.645397 0.591003 0.578112 0.123531
H65   H     H_    0.840651 0.219744 0.547687 0.111460
H66   H     H_    0.159299 0.219902 0.452155 0.111511
H67   H     H_    0.340650 0.719745 0.547686 0.111272
H68   H     H_    0.704488 0.410967 0.411272 0.120573
H69   H     H_    0.659300 0.719899 0.452152 0.111669
H70   H     H_    0.047145 0.152679 0.443272 0.130634
H71   H     H_    0.952773 0.152896 0.556734 0.130675
H72   H     H_    0.547143 0.652680 0.443268 0.130660
H73   H     H_    0.360774 0.093250 0.549493 0.132439
H74   H     H_    0.452770 0.652895 0.556729 0.130636
H75   H     H_    0.960379 0.161951 0.433648 0.107824
H76   H     H_    0.039565 0.161673 0.566410 0.107385
H77   H     H_    0.460376 0.661949 0.433641 0.107424
H78   H     H_    0.539562 0.661675 0.566404 0.107907
H79   H     H_    0.615922 0.889410 0.456909 0.110739
H80   H     H_    0.384043 0.889453 0.543048 0.110769
H81   H     H_    0.115927 0.389414 0.456915 0.110570
H82   H     H_    0.884048 0.389450 0.543054 0.110948
H83   H     H_    0.599313 0.834874 0.577403 0.104104
H84   H     H_    0.139159 0.593121 0.450632 0.132271
H85   H     H_    0.400675 0.835238 0.422559 0.103636
H86   H     H_    0.099317 0.334871 0.577411 0.103534
H87   H     H_    0.900679 0.335240 0.422567 0.104020
H88   H     H_    0.938748 0.477145 0.417168 0.122699
H89   H     H_    0.061232 0.476888 0.582794 0.121595
H90   H     H_    0.438743 0.977143 0.417159 0.121813
H91   H     H_    0.561226 0.976890 0.582785 0.122726
H92   H     H_    0.947125 0.499120 0.535788 0.130448
H93   H     H_    0.052781 0.499061 0.464185 0.130408
H94   H     H_    0.447121 0.999121 0.535781 0.130461
H95   H     H_    0.860774 0.593244 0.549489 0.132317
H96   H     H_    0.552777 0.999061 0.464177 0.130441
H97   H     H_    0.835093 0.942702 0.064660 0.148948
H98   H     H_    0.171935 0.939430 0.938187 0.141450
H99   H     H_    0.329057 0.439864 0.061604 0.134455
H100  H     H_    0.665005 0.442814 0.935629 0.148575
H101  H     H_    0.861135 0.089291 0.074081 0.117645
H102  H     H_    0.133792 0.073795 0.923137 0.120432
H103  H     H_    0.366256 0.575317 0.078167 0.120709
H104  H     H_    0.638846 0.589019 0.925563 0.118178
H105  H     H_    0.875264 0.063203 0.953429 0.127233
H106  H     H_    0.863240 0.069182 0.540874 0.127126
H107  H     H_    0.123145 0.069115 0.042754 0.129059
H108  H     H_    0.378622 0.570387 0.957275 0.116491
H109  H     H_    0.624607 0.564317 0.046305 0.127311
H110  H     H_    0.818038 0.953033 0.949215 0.193676
H111  H     H_    0.184209 0.967634 0.054504 0.171874
H112  H     H_    0.316067 0.468788 0.945729 0.208462
H113  H     H_    0.682014 0.454234 0.051160 0.193775
H114  H     H_    0.702401 0.932259 0.030377 0.099766
H115  H     H_    0.311879 0.964507 0.961288 0.083048
H116  H     H_    0.189146 0.461210 0.040160 0.070094
H117  H     H_    0.136811 0.069347 0.459094 0.127197
H118  H     H_    0.796115 0.433086 0.972039 0.104398
H119  H     H_    0.789172 0.241325 0.103170 0.158328
H120  H     H_    0.186125 0.239530 0.890329 0.135639
H121  H     H_    0.309664 0.741334 0.110929 0.139235
H122  H     H_    0.710616 0.740228 0.895508 0.158217
H123  H     H_    0.811329 0.264541 0.992289 0.099505
H124  H     H_    0.174748 0.296442 0.004091 0.070399
H125  H     H_    0.321985 0.799995 0.998688 0.084244
H126  H     H_    0.687414 0.765018 0.005790 0.102621
H127  H     H_    0.725942 0.298175 0.967972 0.135225
H128  H     H_    0.363239 0.569182 0.540872 0.127093
H129  H     H_    0.258603 0.323334 0.017020 0.141803
H130  H     H_    0.238940 0.821483 0.982492 0.129336
H131  H     H_    0.773054 0.799455 0.030670 0.136263
H132  H     H_    0.644720 0.039371 0.048737 0.115020
H133  H     H_    0.349705 0.097941 0.939340 0.124526
H134  H     H_    0.151146 0.594813 0.057204 0.128602
H135  H     H_    0.855531 0.539015 0.952089 0.115532
H136  H     H_    0.085099 0.467011 0.027597 0.146147
H137  H     H_    0.958940 0.527553 0.952966 0.159414
H138  H     H_    0.543128 0.028705 0.046307 0.153301
H139  H     H_    0.636810 0.569346 0.459090 0.127236
H140  H     H_    0.416488 0.974412 0.972053 0.165725
H141  H     H_    0.613581 0.854111 0.053641 0.097305
H142  H     H_    0.401427 0.749771 0.946407 0.117219
H143  H     H_    0.094881 0.242373 0.053745 0.122477
H144  H     H_    0.884948 0.358445 0.946297 0.095632
H145  H     H_    0.588940 0.916887 0.935495 0.217823
H146  H     H_    0.404398 0.813115 0.072420 0.138424
H147  H     H_    0.091165 0.292918 0.927084 0.097062
H148  H     H_    0.911520 0.423264 0.064767 0.220708
H149  H     H_    0.912495 0.269089 0.086201 0.104862
H150  H     H_    0.808415 0.909016 0.469578 0.126131
H151  H     H_    0.032683 0.175030 0.924104 0.126581
H152  H     H_    0.458066 0.685965 0.079579 0.121066
H153  H     H_    0.584121 0.762783 0.915195 0.103947
H154  H     H_    0.919434 0.220349 0.964448 0.134969
H155  H     H_    0.018974 0.166804 0.045975 0.132569
H156  H     H_    0.476072 0.670673 0.957875 0.133750
H157  H     H_    0.575374 0.717085 0.037278 0.137622
H158  H     H_    0.649510 0.102247 0.572283 0.107592
H159  H     H_    0.350479 0.102090 0.427791 0.107038
H160  H     H_    0.149509 0.602250 0.572281 0.106810
N1    N     N_3   0.697409 0.955619 0.898008 -0.655489
N2    N     N_3   0.353627 0.193374 0.053429 -0.600127
N3    N     N_3   0.147345 0.678154 0.940125 -0.626003
N4    N     N_3   0.861581 0.634920 0.069991 -0.630208
N5    N     N_3   0.009568 0.582491 0.067210 -0.599250
N6    N     N_3   0.053139 0.538129 0.906717 -0.635154
N7    N     N_3   0.448953 0.047180 0.091372 -0.587162
N8    N     N_3   0.493397 0.084220 0.930856 -0.598481
N9    N     N_3   0.317855 0.004518 0.091704 -0.616843
N10   N     N_3   0.196854 0.491878 0.906881 -0.590276
N11   N     N_3   0.802916 0.458468 0.102941 -0.656047
N12   N     N_3   0.684658 0.260879 0.095489 -0.680855
N13   N     N_3   0.285105 0.291430 0.884437 -0.635177
N14   N     N_3   0.208223 0.784442 0.113793 -0.689279
N15   N     N_3   0.815087 0.760459 0.903867 -0.680017
N16   N     N_3   0.638125 0.132122 0.929510 -0.628918
O1    O     O_R   0.957210 0.449410 0.665480 -0.534334
O2    O     O_R   0.167480 0.095300 0.164000 -0.516705
O3    O     O_R   0.332520 0.595300 0.836000 -0.510076
O4    O     O_R   0.667480 0.595300 0.164000 -0.532462
O5    O     O_R   0.946380 0.253940 0.826940 -0.518290
O6    O     O_R   0.053620 0.253940 0.173060 -0.527450
O7    O     O_R   0.446380 0.753940 0.826940 -0.528434
O8    O     O_R   0.553620 0.753940 0.173060 -0.516736
O9    O     O_3   0.834560 0.334570 0.748840 -0.282760
O10   O     O_3   0.165440 0.334570 0.251160 -0.287631
O11   O     O_3   0.334560 0.834570 0.748840 -0.289656
O12   O     O_R   0.042790 0.449410 0.334520 -0.532494
O13   O     O_3   0.665440 0.834570 0.251160 -0.282968
O14   O     O_R   0.820730 0.541240 0.668250 -0.515231
O15   O     O_R   0.179270 0.541240 0.331750 -0.516473
O16   O     O_R   0.320730 0.041240 0.668250 -0.515920
O17   O     O_R   0.679270 0.041240 0.331750 -0.515254
O18   O     O_R   0.714240 0.455060 0.663710 -0.531501
O19   O     O_R   0.285760 0.455060 0.336290 -0.532823
O20   O     O_R   0.214240 0.955060 0.663710 -0.533187
O21   O     O_R   0.785760 0.955060 0.336290 -0.531599
O22   O     O_R   0.736780 0.204870 0.675910 -0.513195
O23   O     O_R   0.457210 0.949410 0.665480 -0.532001
O24   O     O_R   0.263220 0.204870 0.324090 -0.513402
O25   O     O_R   0.236780 0.704870 0.675910 -0.514010
O26   O     O_R   0.763220 0.704870 0.324090 -0.513339
O27   O     O_R   0.833070 0.087590 0.673490 -0.528629
O28   O     O_R   0.166930 0.087590 0.326510 -0.526144
O29   O     O_R   0.333070 0.587590 0.673490 -0.526279
O30   O     O_R   0.666930 0.587590 0.326510 -0.528351
O31   O     O_R   0.946890 0.246800 0.676300 -0.513259
O32   O     O_R   0.053110 0.246800 0.323700 -0.512606
O33   O     O_R   0.446890 0.746800 0.676300 -0.512818
O34   O     O_R   0.542790 0.949410 0.334520 -0.534299
O35   O     O_R   0.553110 0.746800 0.323700 -0.513074
O36   O     O_R   0.956650 0.457120 0.827980 -0.540082
O37   O     O_R   0.043350 0.457120 0.172020 -0.501741
O38   O     O_R   0.456650 0.957120 0.827980 -0.502659
O39   O     O_R   0.543350 0.957120 0.172020 -0.543088
O40   O     O_R   0.820220 0.548390 0.818890 -0.514560
O41   O     O_R   0.179780 0.548390 0.181110 -0.523847
O42   O     O_R   0.320220 0.048390 0.818890 -0.524966
O43   O     O_R   0.679780 0.048390 0.181110 -0.514518
O44   O     O_R   0.713680 0.462770 0.826210 -0.536123
O45   O     O_R   0.736260 0.212010 0.826560 -0.516398
O46   O     O_R   0.286320 0.462770 0.173790 -0.541695
O47   O     O_R   0.213680 0.962770 0.826210 -0.538225
O48   O     O_R   0.786320 0.962770 0.173790 -0.536393
O49   O     O_R   0.263740 0.212010 0.173440 -0.522478
O50   O     O_R   0.236260 0.712010 0.826560 -0.520549
O51   O     O_R   0.763740 0.712010 0.173440 -0.515835
O52   O     O_R   0.832520 0.095300 0.836000 -0.532986

loop_
_geom_bond_atom_site_label_1
_geom_bond_atom_site_label_2
_ccdc_geom_bond_type
C40   H76   S    
Cr5   O41   S    
Cr6   O23   S    
Cr7   O43   S    
C3    C79   S    
C15   H19   S    
C21   C110  S    
C55   O17   A    
C6    C85   S    
C9    C114  S    
Cr12  O52   S    
H54   N6    S    
C48   H88   S    
C94   H125  S    
C70   C87   S    
Cr6   O16   S    
C74   C92   S    
C37   C88   S    
C76   C94   S    
H56   N7    S    
C64   O26   A    
C51   H91   S    
C2    C22   S    
C105  H149  S    
C71   H115  S    
C97   C115  S    
H55   N6    S    
C38   H139  S    
C32   H10   S    
C25   C34   S    
C95   H131  S    
C10   O7    A    
C29   C64   S    
H45   N2    S    
C96   C114  S    
H51   N4    S    
C76   N14   S    
Cr3   O33   S    
Cr1   O9    S    
C34   H11   S    
Cr2   O6    S    
Cr10  O50   S    
C27   C31   S    
C55   O21   A    
C28   C32   S    
C10   O38   A    
C68   H108  S    
C38   C99   S    
C35   C66   S    
Cr7   O34   S    
C13   C33   S    
Cr5   O10   S    
C78   C82   S    
C6    O3    A    
C16   C20   S    
C72   H134  S    
C87   N1    S    
C66   C110  S    
C113  O34   A    
C69   H113  S    
C94   H130  S    
C19   H160  S    
H48   N3    S    
C82   C118  S    
C75   H120  S    
C104  H142  S    
C75   C93   S    
C104  C117  S    
C18   H159  S    
C53   C109  S    
C50   H90   S    
C70   C79   S    
C45   H92   S    
C59   H103  S    
C97   N6    S    
C85   C90   S    
C81   C119  S    
C106  C115  S    
C86   C91   S    
C72   H116  S    
C103  C116  S    
Cr8   O44   S    
H59   N8    S    
C47   H94   S    
C7    O4    A    
C49   C53   S    
Cr10  O47   S    
C84   C93   S    
H29   N11   S    
H28   N11   S    
H30   N12   S    
C86   C95   S    
C92   H123  S    
Cr9   O49   S    
C26   C35   S    
C48   C52   S    
Cr10  O11   S    
C39   H70   S    
H47   N2    S    
C100  C117  S    
H26   N10   S    
C104  C107  S    
C11   O8    A    
C48   H87   S    
Cr4   O13   S    
C96   H136  S    
H43   N16   S    
C107  H152  S    
C59   H99   S    
C12   C110  S    
C1    O14   A    
C93   H124  S    
C70   H132  S    
C22   H5    S    
C30   H35   S    
Cr5   O12   S    
Cr6   O11   S    
Cr11  O21   S    
C89   N2    S    
C103  H157  S    
C7    C86   S    
C78   N15   S    
C62   O24   A    
C91   N4    S    
H44   N16   S    
C33   O15   A    
H37   N15   S    
C20   H42   S    
C2    C44   S    
Cr5   O37   S    
C29   C38   S    
Cr4   O4    S    
C89   N9    S    
C96   N5    S    
Cr9   O10   S    
Cr11  O51   S    
C45   C53   S    
C25   H24   S    
C68   C85   S    
C120  O47   A    
C2    C14   S    
C98   N7    S    
C47   C50   S    
C31   H46   S    
C39   C40   S    
C5    C84   S    
C120  O42   A    
C87   N16   S    
C46   C51   S    
H27   N10   S    
C31   H9    S    
C28   C63   S    
C58   H98   S    
C27   C62   S    
C34   H68   S    
C72   C90   S    
C58   C67   S    
H23   N9    S    
C41   H72   S    
C19   C28   S    
C63   O29   A    
Cr10  O20   S    
H31   N12   S    
Cr3   O29   S    
C104  H156  S    
Cr2   O10   S    
Cr3   O7    S    
C108  H145  S    
C92   H127  S    
C35   H65   S    
C101  C106  S    
C49   H89   S    
C108  C117  S    
H49   N3    S    
C1    O18   A    
H50   N4    S    
C101  H155  S    
C26   C30   S    
C44   O20   A    
C90   N3    S    
H33   N13   S    
C50   H85   S    
C102  H154  S    
C10   C117  S    
C69   H109  S    
C60   C69   S    
C67   H107  S    
Cr7   O13   S    
C107  C116  S    
C119  O41   A    
C1    C24   S    
Cr1   O1    S    
C105  H148  S    
C111  O32   A    
Cr3   O3    S    
C106  H147  S    
C107  H146  S    
C77   H14   S    
C47   C56   S    
Cr9   O46   S    
H60   N8    S    
C95   H126  S    
C83   C87   S    
Cr6   O42   S    
C8    O5    A    
C41   C42   S    
C23   H6    S    
H22   N1    S    
Cr10  O25   S    
C15   C19   S    
H58   N7    S    
C64   O30   A    
C50   C54   S    
Cr12  O31   S    
C25   H7    S    
C26   C61   S    
C36   H66   S    
C73   H118  S    
C36   C77   S    
C66   H12   S    
C17   H158  S    
C46   H79   S    
C102  C105  S    
C63   O25   A    
C14   C18   S    
C102  C115  S    
C112  O23   A    
C42   C56   S    
Cr11  O26   S    
H32   N13   S    
C12   C17   S    
C74   N12   S    
C61   O22   A    
C72   C81   S    
C42   H78   S    
C58   C80   S    
Cr8   O22   S    
C101  C114  S    
C88   H63   S    
C3    O48   A    
C74   H119  S    
C33   O19   A    
C11   O39   A    
C103  H141  S    
H52   N5    S    
C67   H111  S    
C3    O43   A    
Cr3   O11   S    
C29   C34   S    
Cr12  O5    S    
C77   H62   S    
C19   H41   S    
C57   H97   S    
C90   N10   S    
C78   C95   S    
C46   C54   S    
C36   H117  S    
C16   H20   S    
C11   C116  S    
C70   H114  S    
C98   C100  S    
Cr8   O18   S    
C118  O44   A    
Cr1   O36   S    
Cr2   O28   S    
C73   C82   S    
C66   H61   S    
Cr12  O27   S    
C100  H140  S    
C45   C48   S    
C51   H83   S    
C60   H100  S    
C12   H17   S    
C59   C81   S    
C119  O46   A    
C57   C65   S    
C15   H84   S    
C58   H102  S    
C27   C36   S    
C21   C30   S    
C49   H86   S    
C23   C32   S    
Cr7   O39   S    
C2    C77   S    
C112  O33   A    
C4    C83   S    
C99   H64   S    
C88   H15   S    
C42   H74   S    
H53   N5    S    
C43   C52   S    
C5    O49   A    
C44   O16   A    
C113  O35   A    
C14   H18   S    
C14   H73   S    
C46   H96   S    
C8    O36   A    
C99   H16   S    
C80   C120  S    
C16   H95   S    
H34   N14   S    
C24   C99   S    
C57   C79   S    
C60   H104  S    
C37   H128  S    
C21   H150  S    
C97   H137  S    
C111  O12   A    
C98   H138  S    
C83   C92   S    
C23   H13   S    
C13   C23   S    
C22   H2    S    
H36   N14   S    
C17   C26   S    
Cr7   O17   S    
C106  H151  S    
C75   N13   S    
C65   C83   S    
C54   C113  S    
Cr2   O2    S    
C51   C56   S    
Cr4   O8    S    
C108  H153  S    
C73   H135  S    
C8    C115  S    
C109  O31   A    
C60   C82   S    
Cr6   O38   S    
C28   C37   S    
C38   H69   S    
C39   H75   S    
C103  C108  S    
C100  N8    S    
C75   C80   S    
C21   H4    S    
C41   H77   S    
C39   C52   S    
C67   C84   S    
C71   H133  S    
C47   H80   S    
C65   H105  S    
Cr9   O19   S    
C35   H106  S    
C61   O27   A    
C4    O52   A    
C71   C80   S    
C45   H82   S    
C93   H129  S    
C20   C29   S    
C6    O50   A    
C30   H8    S    
C22   C31   S    
Cr5   O15   S    
C78   H122  S    
C105  C114  S    
C24   C25   S    
C73   C91   S    
C43   C49   S    
C52   C111  S    
H21   N1    S    
Cr11  O48   S    
C59   C68   S    
C85   C94   S    
Cr1   O14   S    
C98   C116  S    
C71   C89   S    
C40   H71   S    
H38   N15   S    
C96   C97   S    
C76   H121  S    
Cr11  O13   S    
Cr4   O30   S    
C62   O28   A    
C40   C53   S    
C12   H1    S    
C13   C15   S    
C55   C110  S    
C84   C89   S    
C109  O1    A    
C43   H81   S    
C9    O6    A    
Cr12  O9    S    
C18   C27   S    
H25   N9    S    
Cr4   O35   S    
C76   C81   S    
C57   H101  S    
C17   H39   S    
C18   H40   S    
C65   H110  S    
C74   C79   S    
C7    O51   A    
C4    O45   A    
Cr9   O24   S    
C68   H112  S    
C13   C88   S    
C32   H57   S    
C37   H67   S    
C20   H3    S    
C118  O40   A    
Cr1   O40   S    
Cr2   O32   S    
C41   C54   S    
C91   N11   S    
C5    O2    A    
C16   C24   S    
Cr8   O9    S    
C9    O37   A    
C101  H143  S    
C102  H144  S    
C56   C112  S    
C69   C86   S    
C43   H93   S    
Cr8   O45   S    
