data_str_m3_o14_o18_f0_pcu.sym.30
_audit_creation_date              2012-12-10T17:44:35-0500
_audit_creation_method            fapswitch 2.2
_symmetry_space_group_name_H-M    P1
_symmetry_Int_Tables_number       1
_space_group_crystal_system       triclinic
_cell_length_a                    9.946029
_cell_length_b                    10.594405
_cell_length_c                    15.30291
_cell_angle_alpha                 91.935779
_cell_angle_beta                  69.449911
_cell_angle_gamma                 86.48176
_cell_volume                      1504.40364946

loop_
_atom_site_label
_atom_site_type_symbol
_atom_type_description
_atom_site_fract_x
_atom_site_fract_y
_atom_site_fract_z
_atom_type_partial_charge
C1    C     C_R   0.505963 0.735831 0.482093 0.902837
C2    C     C_R   0.746402 0.421161 0.029536 0.169009
C3    C     C_R   0.601462 0.400859 0.083049 0.096096
C4    C     C_R   0.411711 0.492759 0.675354 0.851547
C5    C     C_R   0.839356 0.462396 0.073525 -0.218849
C6    C     C_R   0.789080 0.487145 0.169841 -0.204737
C7    C     C_R   0.553256 0.426746 0.179722 -0.259278
C8    C     C_R   0.264540 0.904021 0.454924 -0.200825
C9    C     C_R   0.131133 0.972635 0.498035 -0.209200
C10   C     C_R   0.119826 0.075627 0.560152 0.206058
C11   C     C_R   0.244493 0.119265 0.568671 -0.140701
C12   C     C_R   0.443107 0.389653 0.898781 0.099047
C13   C     C_R   0.381833 0.061156 0.513403 0.014631
C14   C     C_R   0.387086 0.942061 0.471562 0.069039
C15   C     C_R   0.514423 0.864604 0.450511 -0.202462
C16   C     C_R   0.503270 0.257988 0.501247 0.897014
C17   C     C_R   0.647309 0.919131 0.423469 0.192385
C18   C     C_R   0.647878 0.049474 0.444837 0.170593
C19   C     C_R   0.512945 0.119935 0.493730 -0.187078
C20   C     C_R   0.771574 0.627818 0.646191 -0.200864
C21   C     C_R   0.784998 0.653388 0.732051 -0.262208
C22   C     C_R   0.919147 0.636168 0.740748 0.215729
C23   C     C_R   0.303959 0.351535 0.946867 0.181471
C24   C     C_R   0.040535 0.619193 0.657364 0.186235
C25   C     C_R   0.026083 0.556909 0.576403 0.082863
C26   C     C_R   0.883442 0.559986 0.573616 0.162037
C27   C     C_R   0.970788 0.442392 0.429229 -0.111260
C28   C     C_R   0.589523 0.495311 0.324106 0.841612
C29   C     C_R   0.113729 0.443332 0.428841 -0.087969
C30   C     C_R   0.366204 0.453019 0.771474 -0.057347
C31   C     C_R   0.645110 0.471604 0.222856 -0.048919
C32   C     C_R   0.201658 0.353366 0.902775 -0.220093
C33   C     C_R   0.232652 0.403944 0.815182 -0.215490
C34   C     C_R   0.549250 0.381603 0.940163 0.059040
C35   C     C_R   0.469456 0.445026 0.813724 -0.247819
C36   C     C_3   0.784515 0.839694 0.366586 -0.862579
C37   C     C_3   0.789587 0.111989 0.415231 -0.830273
C38   C     C_3   0.932984 0.679388 0.831926 -0.922740
C39   C     C_3   0.131117 0.729798 0.644270 -0.754915
C40   C     C_R   0.505669 0.368226 0.037319 0.071147
C41   C     C_R   0.366399 0.328695 0.084888 -0.229542
C42   C     C_R   0.268879 0.315725 0.038743 -0.240642
C43   C     C_R   0.696615 0.390004 0.887935 -0.199028
C44   C     C_R   0.794584 0.405548 0.932472 -0.250822
H1    H     H_    0.163132 0.285056 0.076689 0.149060
H2    H     H_    0.201420 0.396639 0.370696 0.136076
H3    H     H_    0.861799 0.520767 0.202520 0.154722
H4    H     H_    0.905983 0.415185 0.890579 0.159899
H5    H     H_    0.098326 0.315834 0.936065 0.141612
H6    H     H_    0.153892 0.402883 0.781147 0.164727
H7    H     H_    0.570205 0.485608 0.780414 0.166903
H8    H     H_    0.331825 0.304694 0.157065 0.141813
H9    H     H_    0.737994 0.384442 0.812376 0.187497
H10   H     H_    0.840382 0.885073 0.300555 0.228095
H11   H     H_    0.856490 0.828220 0.407695 0.242325
H12   H     H_    0.948987 0.480911 0.033305 0.146314
H13   H     H_    0.763091 0.744596 0.344376 0.244206
H14   H     H_    0.886674 0.046863 0.381252 0.226648
H15   H     H_    0.805342 0.155147 0.477476 0.280648
H16   H     H_    0.789536 0.185018 0.364865 0.233716
H17   H     H_    0.843374 0.648062 0.891826 0.251345
H18   H     H_    0.036413 0.639705 0.836017 0.244809
H19   H     H_    0.927803 0.784372 0.838692 0.253774
H20   H     H_    0.226932 0.712341 0.664063 0.251023
H21   H     H_    0.153969 0.756054 0.572839 0.250661
H22   H     H_    0.070961 0.816728 0.685790 0.219564
H23   H     H_    0.270481 0.818936 0.412016 0.164781
H24   H     H_    0.035930 0.940580 0.488127 0.160432
H25   H     H_    0.233256 0.200011 0.616673 0.164890
H26   H     H_    0.951759 0.394930 0.371427 0.135485
H27   H     H_    0.674028 0.663794 0.638119 0.216270
H28   H     H_    0.692551 0.694113 0.790198 0.173243
H29   H     H_    0.442302 0.417854 0.222207 0.149903
I1    I     I_    0.917331 0.168444 0.639145 -0.466680
N1    N     N_R   0.856800 0.501200 0.500850 -0.100886
N2    N     N_R   0.142390 0.501280 0.500880 -0.107058
O1    O     O_R   0.385310 0.683220 0.500000 -0.629603
O2    O     O_R   0.614640 0.683250 0.500010 -0.618382
O3    O     O_R   0.319840 0.499980 0.632240 -0.611868
O4    O     O_R   0.549160 0.500000 0.632250 -0.618851
O5    O     O_R   0.385360 0.316750 0.499990 -0.609980
O6    O     O_R   0.614690 0.316780 0.500000 -0.592297
O7    O     O_R   0.450840 0.500000 0.367750 -0.621628
O8    O     O_R   0.680160 0.500020 0.367760 -0.631737
Zn1   Zn    Zn3+2 0.346880 0.499980 0.499990 0.930132
Zn2   Zn    Zn3+2 0.653120 0.500020 0.500010 0.935646

loop_
_geom_bond_atom_site_label_1
_geom_bond_atom_site_label_2
_ccdc_geom_bond_type
C28   O8    A    
C1    O1    A    
C41   C42   A    
C5    H12   S    
C7    H29   S    
C29   N2    A    
C39   H20   S    
C12   C23   A    
C23   C42   A    
C30   C35   A    
C34   C40   A    
C18   C37   S    
O8    Zn2   S    
C4    O4    A    
C3    C7    A    
C5    C6    A    
C27   C29   A    
C22   C38   S    
C11   C13   A    
C24   C39   S    
C18   C19   A    
O4    Zn2   S    
C43   H9    S    
C2    C44   A    
C8    C9    A    
C20   H27   S    
C1    C15   S    
C17   C36   S    
C9    C10   A    
C41   H8    S    
C37   H14   S    
C38   H17   S    
O2    Zn2   S    
C6    C31   A    
O1    Zn1   S    
C13   C14   A    
C28   O7    A    
C1    O2    A    
C39   H21   S    
C27   N1    A    
C26   N1    A    
C7    C31   A    
C6    H3    S    
C13   C19   A    
C21   H28   S    
C24   C25   A    
C4    O3    A    
C36   H13   S    
C33   H6    S    
O6    Zn2   S    
C42   H1    S    
C43   C44   A    
N1    Zn2   S    
C16   O6    A    
C17   C18   A    
C12   C35   A    
C37   H15   S    
C27   H26   S    
C40   C41   A    
O7    Zn1   S    
C3    C40   A    
C35   H7    S    
C39   H22   S    
C22   C24   A    
C2    C5    A    
C12   C34   A    
O3    Zn1   S    
C38   H19   S    
C15   C17   A    
C8    C14   A    
C30   C33   A    
C28   C31   S    
C34   C43   A    
C11   H25   S    
C29   H2    S    
C25   N2    A    
C23   C32   A    
C2    C3    A    
C25   C26   A    
C9    H24   S    
C36   H11   S    
C32   C33   A    
C10   I1    S    
C20   C26   A    
C16   C19   S    
C16   O5    A    
C4    C30   S    
C32   H5    S    
C37   H16   S    
C36   H10   S    
C10   C11   A    
C20   C21   A    
C8    H23   S    
C14   C15   A    
C21   C22   A    
N2    Zn1   S    
O5    Zn1   S    
C44   H4    S    
C38   H18   S    
