data_str_m2_o14_o28_f0_pcu.sym.55
_audit_creation_date              2013-03-05T15:52:14-0500
_audit_creation_method            fapswitch 2.2
_symmetry_space_group_name_H-M    P1
_symmetry_Int_Tables_number       1
_space_group_crystal_system       triclinic
_cell_length_a                    23.53385
_cell_length_b                    10.884532
_cell_length_c                    9.578405
_cell_angle_alpha                 89.181712
_cell_angle_beta                  89.702871
_cell_angle_gamma                 94.414008
_cell_volume                      2445.98037157

loop_
_atom_site_label
_atom_site_type_symbol
_atom_site_description
_atom_site_fract_x
_atom_site_fract_y
_atom_site_fract_z
_atom_type_partial_charge
O1    O     O_R   0.500000 0.319640 0.618810 -0.556809
O2    O     O_R   0.500000 0.319660 0.381240 -0.593490
C1    C     C_R   0.495622 0.262473 0.500918 0.878588
O3    O     O_R   0.417880 0.499950 0.618810 -0.591362
O4    O     O_R   0.417880 0.499980 0.381240 -0.579359
C2    C     C_R   0.391304 0.505058 0.500248 0.834770
Cu1   Cu    Cu3+1 0.500000 0.499990 0.640660 0.947247
Cu2   Cu    Cu3+1 0.500000 0.500010 0.359340 0.976761
O5    O     O_R   0.500000 0.680340 0.618760 -0.613439
O6    O     O_R   0.500000 0.680360 0.381190 -0.546969
O7    O     O_R   0.582120 0.500020 0.618760 -0.600682
O8    O     O_R   0.582120 0.500050 0.381190 -0.589859
C3    C     C_R   0.497110 0.737429 0.499152 0.802774
C4    C     C_R   0.609101 0.499090 0.499454 0.802831
C5    C     C_R   0.883555 0.615924 0.438646 0.567094
N1    N     N_R   0.852848 0.523931 0.511002 -0.471279
C6    C     C_R   0.878856 0.436609 0.585333 0.551431
C7    C     C_R   0.938385 0.438939 0.588461 -0.024173
C8    C     C_R   0.971348 0.531253 0.512739 -0.066406
C9    C     C_R   0.943932 0.620605 0.434745 -0.087130
C10   C     C_R   0.965123 0.349237 0.664124 -0.226788
C11   C     C_R   0.024289 0.347351 0.664151 0.251362
C12   C     C_R   0.058333 0.440094 0.589909 -0.027283
C13   C     C_R   0.031556 0.532869 0.514482 -0.111022
C14   C     C_R   0.064864 0.626849 0.441122 -0.077083
C15   C     C_R   0.037468 0.719043 0.366291 0.197791
C16   C     C_R   0.977298 0.712141 0.357295 0.190551
C17   C     C_R   0.118327 0.443226 0.588035 0.591951
N2    N     N_R   0.149688 0.531665 0.512320 -0.461137
C18   C     C_R   0.124846 0.623047 0.441507 0.629142
O9    O     O_2   0.855387 0.703286 0.373316 -0.466171
O10   O     O_2   0.847014 0.346939 0.655010 -0.529780
H1    H     H_    0.940054 0.277592 0.721802 0.190791
O11   O     O_2   0.145613 0.358296 0.660002 -0.490267
O12   O     O_2   0.158542 0.708238 0.370111 -0.489846
C19   C     C_R   0.242685 0.552549 0.625900 -0.137008
H2    H     H_    0.221757 0.576198 0.721730 0.179137
C20   C     C_R   0.301493 0.546132 0.624137 -0.212072
H3    H     H_    0.325111 0.564512 0.719306 0.169951
C21   C     C_R   0.329380 0.516452 0.500866 -0.113041
C22   C     C_R   0.297593 0.494938 0.378768 -0.294941
H4    H     H_    0.318858 0.470670 0.283622 0.193833
C23   C     C_R   0.238078 0.496819 0.380287 0.385527
C24   C     C_R   0.210529 0.526958 0.505585 0.226245
C25   C     C_R   0.760588 0.541627 0.626062 -0.085749
H5    H     H_    0.782343 0.567107 0.721953 0.152380
C26   C     C_R   0.701391 0.533301 0.622372 -0.249909
H6    H     H_    0.678571 0.553450 0.716632 0.171230
C27   C     C_R   0.672087 0.500962 0.498912 -0.079331
C28   C     C_R   0.703569 0.474622 0.377216 0.263700
C29   C     C_R   0.763521 0.484020 0.383229 -0.105144
H7    H     H_    0.788978 0.462840 0.293652 0.140089
C30   C     C_R   0.791772 0.517494 0.506627 0.299083
H8    H     H_    0.542729 0.126749 0.319079 0.197212
C31   C     C_R   0.411037 0.108204 0.678141 0.256233
C32   C     C_R   0.383836 0.038408 0.786448 -0.185078
H9    H     H_    0.352391 0.077866 0.851584 0.146552
C33   C     C_R   0.391259 0.913797 0.800015 -0.144641
H10   H     H_    0.367244 0.858867 0.878487 0.163566
C34   C     C_R   0.424706 0.856989 0.703917 -0.135857
H11   H     H_    0.421968 0.757970 0.709964 0.172787
C35   C     C_R   0.457416 0.926719 0.601331 0.023269
C36   C     C_R   0.453474 0.056444 0.595960 0.080532
C37   C     C_R   0.488949 0.128250 0.500733 -0.180223
C38   C     C_R   0.518666 0.071692 0.397710 -0.254556
C39   C     C_R   0.516930 0.945276 0.389684 0.356947
C40   C     C_R   0.490403 0.870864 0.497368 -0.214703
H12   H     H_    0.429943 0.369059 0.132458 0.134322
C41   C     C_R   0.583598 0.649708 0.140107 -0.101953
H13   H     H_    0.582554 0.665677 0.249113 0.225661
C42   C     C_R   0.628227 0.714160 0.066421 0.370995
C43   C     C_R   0.625573 0.719303 0.921754 -0.297402
H14   H     H_    0.657670 0.773924 0.861579 0.204400
C44   C     C_R   0.581161 0.655649 0.852225 -0.210762
H15   H     H_    0.581167 0.671906 0.742544 0.222521
C45   C     C_R   0.540232 0.575805 0.923388 0.215694
C46   C     C_R   0.540772 0.574462 0.072792 0.155984
N3    N     N_R   0.500540 0.501210 0.147910 -0.191458
C47   C     C_R   0.461460 0.428055 0.075716 -0.029893
H16   H     H_    0.430343 0.368345 0.873801 0.130350
C48   C     C_R   0.461649 0.427696 0.927676 -0.045486
N4    N     N_R   0.500560 0.501290 0.852040 -0.195655
N5    N     N_2   0.674533 0.433935 0.253346 -0.417112
H17   H     H_    0.647879 0.354754 0.266205 0.267359
C49   C     C_3   0.703539 0.445635 0.119597 -0.638951
H18   H     H_    0.671747 0.432832 0.034754 0.226848
H19   H     H_    0.734396 0.373939 0.110054 0.232310
H20   H     H_    0.725786 0.538914 0.106711 0.252895
N6    N     N_2   0.385661 0.215803 0.631705 -0.439392
H21   H     H_    0.366512 0.261810 0.710413 0.251612
C50   C     C_3   0.347420 0.191248 0.515496 -0.659307
H22   H     H_    0.325092 0.273818 0.489202 0.228401
H23   H     H_    0.314477 0.115898 0.543037 0.240066
H24   H     H_    0.371561 0.165363 0.421819 0.229511
N7    N     N_R   0.541177 0.895699 0.267759 0.105050
O13   O     O_R   0.506652 0.850122 0.172707 -0.363445
O14   O     O_R   0.592337 0.937093 0.229915 -0.334233
N8    N     N_2   0.048692 0.250415 0.738475 -0.364166
H25   H     H_    0.029329 0.229630 0.833710 0.253497
C51   C     C_3   0.054180 0.141204 0.656654 -0.602163
H26   H     H_    0.011382 0.098504 0.628818 0.199846
H27   H     H_    0.076948 0.073371 0.718309 0.229773
H28   H     H_    0.079055 0.164486 0.559649 0.252048
N9    N     N_R   0.675388 0.776335 0.138892 0.163398
O15   O     O_R   0.681368 0.760397 0.272819 -0.333690
O16   O     O_R   0.714290 0.844686 0.070634 -0.324209
N10   N     N_2   0.070423 0.818246 0.298523 -0.370927
H29   H     H_    0.057306 0.840887 0.199640 0.256189
C52   C     C_3   0.082924 0.924585 0.385301 -0.610553
H30   H     H_    0.043154 0.967979 0.411741 0.190384
H31   H     H_    0.112095 0.993230 0.328352 0.247403
H32   H     H_    0.104079 0.897627 0.483319 0.241852
N11   N     N_2   0.950421 0.796560 0.268804 -0.375113
H33   H     H_    0.967562 0.886483 0.270514 0.254275
C53   C     C_3   0.939147 0.752423 0.129018 -0.575473
H34   H     H_    0.979705 0.741430 0.072391 0.190996
H35   H     H_    0.914767 0.819656 0.070732 0.239783
H36   H     H_    0.913396 0.662459 0.132630 0.241709
N12   N     N_R   0.206417 0.464982 0.255939 0.138143
O17   O     O_R   0.230575 0.479957 0.133700 -0.351522
O18   O     O_R   0.155485 0.409565 0.264214 -0.359179

loop_
_geom_bond_atom_site_label_1
_geom_bond_atom_site_label_2
_geom_bond_distance
_ccdc_geom_bond_type
C31   C32   1.399598 A    
C11   N8    1.423349 S    
C7    C10   1.397703 A    
N10   C52   1.447324 S    
C22   H4    1.083162 S    
C41   C46   1.413167 A    
C8    C9    1.414591 A    
C42   N9    1.441337 S    
N9    O16   1.301604 A    
C48   N4    1.367012 A    
Cu1   Cu2   2.694593 S    
C26   C27   1.407450 A    
H8    C38   1.085138 S    
C46   N3    1.382114 A    
Cu1   O7    1.942843 S    
C15   C16   1.415393 A    
N2    C18   1.365836 A    
C44   C45   1.412481 A    
C35   C40   1.430324 A    
C17   N2    1.364720 A    
C52   H31   1.110226 S    
C49   H18   1.110456 S    
C20   H3    1.083181 S    
O7    C4    1.304977 A    
C4    C27   1.480858 S    
C10   H1    1.083938 S    
C33   C34   1.390258 A    
C53   H34   1.110685 S    
C32   H9    1.083108 S    
C34   C35   1.419526 A    
C7    C8    1.410967 A    
C25   C26   1.389757 A    
C41   C42   1.399348 A    
O5    C3    1.300094 A    
N1    C30   1.434530 S    
C26   H6    1.081859 S    
N1    C6    1.363679 A    
C53   H35   1.110268 S    
C31   C36   1.423238 A    
C12   C13   1.421490 A    
N6    C50   1.449899 S    
H12   C47   1.081847 S    
C49   H19   1.110524 S    
C39   C40   1.414648 A    
C25   C30   1.394944 A    
C10   C11   1.394135 A    
Cu2   N3    2.024986 S    
C22   C23   1.402346 A    
O3    Cu1   1.944945 S    
N9    O15   1.301839 A    
C28   N5    1.430956 S    
C28   C29   1.408252 A    
N12   O18   1.301239 A    
C5    C9    1.418171 A    
C44   H15   1.062873 S    
C29   H7    1.081579 S    
C13   C14   1.415949 A    
C43   C44   1.387398 A    
C52   H32   1.111243 S    
C45   N4    1.379288 A    
C50   H22   1.102211 S    
C47   C48   1.418027 A    
N3    C47   1.366630 A    
H16   C48   1.080100 S    
C14   C15   1.421346 A    
C25   H5    1.083032 S    
C51   H28   1.111314 S    
C34   H11   1.075450 S    
O1    C1    1.297822 A    
C23   C24   1.415713 A    
C35   C36   1.422361 A    
C50   H23   1.112260 S    
N5    H17   1.031672 S    
Cu2   O8    1.944945 S    
C53   H36   1.111216 S    
C51   H27   1.110273 S    
C6    C7    1.399707 A    
C12   C17   1.409693 A    
C45   C46   1.431051 A    
C16   N11   1.426734 S    
O3    C2    1.301868 A    
C21   C22   1.404326 A    
N5    C49   1.447874 S    
O8    C4    1.301779 A    
C27   C28   1.422379 A    
N8    C51   1.446760 S    
N2    C24   1.437834 S    
C2    C21   1.472033 S    
C19   C24   1.401461 A    
N10   H29   1.030131 S    
N11   H33   1.029918 S    
C3    C40   1.472824 S    
C49   H20   1.110901 S    
C14   C18   1.415435 A    
Cu1   O5    1.971221 S    
C19   H2    1.083027 S    
O1    Cu1   1.977119 S    
O2    Cu2   1.971219 S    
C43   H14   1.082966 S    
O6    C3    1.301106 A    
C15   N10   1.426396 S    
O4    Cu2   1.942846 S    
N12   O17   1.301563 A    
N7    O14   1.300506 A    
C5    O9    1.348904 S    
C9    C16   1.418447 A    
C18   O12   1.348850 S    
C37   C38   1.385027 A    
C19   C20   1.391128 A    
O2    C1    1.296399 A    
C33   H10   1.082864 S    
C42   C43   1.387935 A    
C31   N6    1.421836 S    
C52   H30   1.110055 S    
C50   H24   1.110780 S    
C20   C21   1.401681 A    
O4    C2    1.301285 A    
C51   H26   1.111690 S    
C32   C33   1.385172 A    
C8    C13   1.415860 A    
C38   C39   1.376702 A    
C1    C37   1.457330 S    
C41   H13   1.061381 S    
C17   O11   1.349027 S    
C36   C37   1.418132 A    
Cu1   N4    2.025039 S    
Cu2   O6    1.977120 S    
N8    H25   1.031929 S    
N7    O13   1.301430 A    
C6    O10   1.350264 S    
C11   C12   1.419746 A    
C29   C30   1.398199 A    
N6    H21   1.031603 S    
C5    N1    1.367029 A    
C23   N12   1.440531 S    
C39   N7    1.427992 S    
N11   C53   1.447875 S    
