data_str_m4_o4_o5_f0_acs.sym.224
_audit_creation_date              2012-12-11T15:53:56-0500
_audit_creation_method            fapswitch 2.2
_symmetry_space_group_name_H-M    P1
_symmetry_Int_Tables_number       1
_space_group_crystal_system       triclinic
_cell_length_a                    10.728305
_cell_length_b                    10.71822
_cell_length_c                    16.969112
_cell_angle_alpha                 80.726777
_cell_angle_beta                  99.481463
_cell_angle_gamma                 119.209968
_cell_volume                      1672.45072343

loop_
_atom_site_label
_atom_site_type_symbol
_atom_type_description
_atom_site_fract_x
_atom_site_fract_y
_atom_site_fract_z
_atom_type_partial_charge
C1    C     C_R   0.361147 0.229438 0.627376 0.551980
C2    C     C_R   0.515887 0.724878 0.732139 -0.152568
C3    C     C_R   0.492699 0.742315 0.807452 -0.145115
C4    C     C_3   0.108814 0.436621 0.785508 0.092112
C5    C     C_3   0.135730 0.417715 0.703743 -0.214004
C6    C     C_R   0.406191 0.616440 0.687221 0.003072
C7    C     C_1   0.850115 0.670364 0.702518 -0.024810
C8    C     C_1   0.897254 0.704631 0.769359 -0.006661
C9    C     C_1   0.345340 0.188066 0.709821 -0.040843
C10   C     C_1   0.320986 0.160452 0.778370 -0.042486
C11   C     C_1   0.318396 0.684348 0.280618 -0.063637
C12   C     C_R   0.415329 0.619361 0.601772 0.570220
C13   C     C_1   0.297579 0.708545 0.209884 -0.075560
C14   C     C_R   0.931007 0.713067 0.177414 0.021893
C15   C     C_R   0.941410 0.608396 0.233361 -0.066244
C16   C     C_R   0.918355 0.595614 0.311579 -0.015808
C17   C     C_R   0.869788 0.796561 0.282959 -0.121681
C18   C     C_R   0.904978 0.815014 0.204473 -0.128210
C19   C     C_3   0.905865 0.455606 0.231945 -0.025587
C20   C     C_3   0.885741 0.439488 0.320927 0.096714
C21   C     C_R   0.862782 0.677039 0.334862 0.016373
C22   C     C_R   0.336900 0.178434 0.155922 0.040980
C23   C     C_R   0.781102 0.621414 0.626080 0.540926
C24   C     C_R   0.286535 0.269018 0.169688 0.018071
C25   C     C_R   0.305008 0.310634 0.245046 0.014188
C26   C     C_R   0.423510 0.166628 0.295424 -0.138661
C27   C     C_R   0.412198 0.132348 0.218540 -0.129690
C28   C     C_3   0.137127 0.249010 0.153150 -0.031571
C29   C     C_3   0.161759 0.306732 0.233171 0.084303
C30   C     C_R   0.365954 0.253162 0.309319 0.038169
C31   C     C_R   0.947564 0.725266 0.851731 0.584685
C32   C     C_R   0.316456 0.705419 0.898561 0.607338
C33   C     C_R   0.284656 0.114797 0.857987 0.555581
C34   C     C_R   0.378503 0.291579 0.388144 0.570452
C35   C     C_R   0.954720 0.719198 0.095244 0.550258
C36   C     C_R   0.285030 0.739291 0.125568 0.534276
C37   C     C_R   0.286562 0.108298 0.084232 0.549564
C38   C     C_R   0.362039 0.657524 0.361965 0.553253
C39   C     C_R   0.776935 0.624668 0.401892 0.542473
C40   C     C_R   0.358515 0.652616 0.838252 0.047272
C41   C     C_R   0.267551 0.525731 0.801851 0.082738
C42   C     C_R   0.291840 0.507567 0.728011 -0.026332
Cr1   Cr    Cr6+3 0.608440 0.389080 0.519680 1.049736
Cr2   Cr    Cr6+3 0.288640 0.400090 0.490760 1.034571
Cr3   Cr    Cr6+3 0.602940 0.710800 0.489510 1.035063
Cr4   Cr    Cr6+3 0.052530 0.947560 0.964210 1.024532
Cr5   Cr    Cr6+3 0.059970 0.626800 0.992920 1.070501
Cr6   Cr    Cr6+3 0.373320 0.938440 0.995370 1.035138
H1    H     H_    0.613711 0.803913 0.706403 0.143763
H2    H     H_    0.969157 0.421192 0.361387 0.159708
H3    H     H_    0.472723 0.121321 0.344065 0.185303
H4    H     H_    0.449620 0.058580 0.209981 0.149702
H5    H     H_    0.055401 0.134388 0.153268 0.137225
H6    H     H_    0.177157 0.416304 0.231351 0.118178
H7    H     H_    0.573785 0.835862 0.836570 0.153356
H8    H     H_    0.063670 0.336338 0.826755 0.139261
H9    H     H_    0.108215 0.305266 0.697461 0.123708
H10   H     H_    0.093976 0.470126 0.652273 0.183970
H11   H     H_    0.834220 0.866589 0.299677 0.170792
H12   H     H_    0.898171 0.900143 0.163487 0.149442
H13   H     H_    0.999501 0.449381 0.219830 0.082420
O1    O     O_R   0.754020 0.497590 0.609930 -0.504533
O2    O     O_R   0.295080 0.533620 0.397890 -0.516406
O3    O     O_R   0.485280 0.746620 0.388440 -0.490279
O4    O     O_R   0.720550 0.696220 0.420010 -0.504757
O5    O     O_3   0.500010 0.499990 0.499980 -0.310546
O6    O     O_R   0.163320 0.092900 0.874450 -0.517533
O7    O     O_R   0.934650 0.822080 0.882840 -0.494767
O8    O     O_R   0.915520 0.604140 0.893670 -0.486533
O9    O     O_R   0.191760 0.638110 0.923230 -0.448757
O10   O     O_R   0.406180 0.826930 0.920660 -0.524512
O11   O     O_R   0.358620 0.062870 0.901950 -0.487869
O12   O     O_R   0.481420 0.271390 0.600630 -0.487117
O13   O     O_R   0.163910 0.085460 0.050210 -0.525194
O14   O     O_R   0.935200 0.815170 0.045770 -0.491703
O15   O     O_R   0.916120 0.596690 0.069430 -0.469563
O16   O     O_R   0.192310 0.631200 0.086170 -0.485778
O17   O     O_R   0.406770 0.819480 0.096420 -0.481444
O18   O     O_R   0.359170 0.055960 0.064880 -0.529020
O19   O     O_3   0.161940 0.837600 0.984160 -0.332338
O20   O     O_R   0.263810 0.254550 0.589590 -0.521888
O21   O     O_R   0.300820 0.531200 0.560890 -0.504871
O22   O     O_R   0.491480 0.744020 0.564270 -0.504165
O23   O     O_R   0.726290 0.693800 0.583010 -0.520772
O24   O     O_R   0.747830 0.500190 0.434090 -0.479027
O25   O     O_R   0.475680 0.273800 0.437630 -0.496887
O26   O     O_R   0.257620 0.257160 0.413750 -0.436577
C43   C     C_2   0.770932 0.364596 0.180189 0.658618
O27   O     O_2   0.682848 0.406113 0.153837 -0.500538
O28   O     O_R   0.747329 0.230854 0.163591 -0.673009
H14   H     H_    0.656562 0.180706 0.126641 0.344050
O29   O     O_3   0.746263 0.338446 0.339421 -0.664989
H15   H     H_    0.680390 0.375732 0.312022 0.350588
C44   C     C_2   0.112672 0.336195 0.079806 0.573809
O30   O     O_2   0.204842 0.402529 0.033257 -0.487580
O31   O     O_R   0.978583 0.331054 0.061943 -0.672178
H16   H     H_    0.968228 0.381428 0.007342 0.350276
O32   O     O_3   0.066510 0.205416 0.287069 -0.679739
H17   H     H_    0.974623 0.208169 0.271564 0.349026
O33   O     O_3   0.036901 0.517468 0.778594 -0.691996
H18   H     H_    0.933555 0.448211 0.768626 0.332707

loop_
_geom_bond_atom_site_label_1
_geom_bond_atom_site_label_2
_ccdc_geom_bond_type
Cr1   O12   S    
C5    C42   S    
C16   C21   A    
C41   C42   A    
C14   C18   A    
Cr2   O5    S    
C19   C20   S    
C37   O13   A    
C7    C8    T    
Cr3   O22   S    
C15   C19   S    
C37   O18   A    
C35   O14   A    
C26   C27   A    
C29   O32   S    
Cr6   O18   S    
C28   C29   S    
Cr5   O15   S    
Cr2   O21   S    
C36   O16   A    
C6    C12   S    
C29   H6    S    
C1    O20   A    
C15   C16   A    
C28   C44   S    
C34   O25   A    
Cr6   O17   S    
Cr5   O8    S    
C20   H2    S    
C33   O11   A    
C3    H7    S    
C23   O1    A    
Cr2   O26   S    
C9    C10   T    
C4    C41   S    
C4    H8    S    
C39   O4    A    
C2    C6    A    
Cr5   O19   S    
Cr6   O11   S    
Cr4   O14   S    
C32   O10   A    
C38   O3    A    
Cr2   O2    S    
C25   C29   S    
C31   O7    A    
C35   O15   A    
C23   O23   A    
C30   C34   S    
Cr1   O24   S    
C1    C9    S    
C24   C25   A    
C13   C36   S    
Cr2   O20   S    
C14   C35   S    
C32   O9    A    
C22   C37   S    
C17   C21   A    
C12   O22   A    
C11   C38   S    
Cr5   O9    S    
Cr4   O7    S    
C2    H1    S    
C20   O29   S    
C21   C39   S    
C16   C20   S    
O31   H16   S    
C17   C18   A    
C12   O21   A    
C44   O31   S    
C17   H11   S    
C5    H10   S    
C18   H12   S    
C40   C41   A    
C43   O28   S    
C3    C40   A    
C19   C43   S    
C22   C27   A    
C4    O33   S    
Cr3   O4    S    
C22   C24   A    
Cr3   O23   S    
Cr5   O16   S    
Cr6   O10   S    
Cr4   O13   S    
C27   H4    S    
C33   O6    A    
C38   O2    A    
C25   C30   A    
C8    C31   S    
C24   C28   S    
C4    C5    S    
C28   H5    S    
C26   C30   A    
Cr3   O3    S    
C5    H9    S    
C1    O12   A    
Cr6   O19   S    
C2    C3    A    
Cr4   O6    S    
C36   O17   A    
C26   H3    S    
Cr4   O19   S    
C11   C13   T    
O28   H14   S    
C19   H13   S    
Cr1   O5    S    
C7    C23   S    
O29   H15   S    
C10   C33   S    
C34   O26   A    
C32   C40   S    
C44   O30   D    
Cr1   O25   S    
C31   O8    A    
C43   O27   D    
O32   H17   S    
C6    C42   A    
Cr3   O5    S    
C39   O24   A    
C14   C15   A    
O33   H18   S    
Cr1   O1    S    
