data_str_m3_o4_o14_f0_pcu.sym.183
_audit_creation_date              2012-12-10T20:28:41-0500
_audit_creation_method            fapswitch 2.2
_symmetry_space_group_name_H-M    P1
_symmetry_Int_Tables_number       1
_space_group_crystal_system       triclinic
_cell_length_a                    10.647398
_cell_length_b                    10.663786
_cell_length_c                    9.861967
_cell_angle_alpha                 90.069839
_cell_angle_beta                  90.034661
_cell_angle_gamma                 90.176978
_cell_volume                      1119.73687223

loop_
_atom_site_label
_atom_site_type_symbol
_atom_type_description
_atom_site_fract_x
_atom_site_fract_y
_atom_site_fract_z
_atom_type_partial_charge
C1    C     C_R   0.495183 0.259982 0.500013 0.891068
C2    C     C_R   0.066318 0.608999 0.573249 0.034624
C3    C     C_R   0.128375 0.513943 0.499655 -0.071677
C4    C     C_R   0.064048 0.424786 0.423263 -0.193301
C5    C     C_R   0.935799 0.424591 0.423370 -0.196403
C6    C     C_R   0.871960 0.513571 0.499805 -0.083470
C7    C     C_R   0.474489 0.064239 0.623443 0.214356
C8    C     C_R   0.473303 0.128736 0.500864 -0.137801
C9    C     C_R   0.447524 0.064575 0.379748 -0.202905
C10   C     C_R   0.448192 0.934863 0.379839 -0.196787
C11   C     C_R   0.474824 0.871411 0.500992 -0.147857
C12   C     C_R   0.260511 0.504407 0.500022 0.874682
C13   C     C_R   0.475622 0.936387 0.623513 0.268966
C14   C     C_3   0.565844 0.931026 0.739645 -0.495537
C15   C     C_3   0.563736 0.073050 0.740104 -0.482102
C16   C     C_R   0.447725 0.402401 0.071028 0.208981
C17   C     C_R   0.561682 0.590340 0.072121 -0.115458
C18   C     C_R   0.561817 0.590263 0.928111 -0.103920
C19   C     C_R   0.447751 0.402425 0.928508 0.193248
C20   C     C_3   0.314272 0.360280 0.922381 -0.454689
C21   C     C_3   0.314126 0.360377 0.076451 -0.502645
C22   C     C_R   0.496014 0.740122 0.500101 0.857838
C23   C     C_R   0.739603 0.504135 0.500038 0.869576
C24   C     C_R   0.131533 0.705323 0.643227 -0.300928
C25   C     C_R   0.066294 0.797505 0.715064 0.477309
C26   C     C_R   0.935385 0.797207 0.714048 -0.221718
C27   C     C_R   0.869974 0.704769 0.642952 -0.274503
C28   C     C_R   0.934674 0.608719 0.573268 0.116347
H1    H     H_    0.113462 0.353246 0.366201 0.159156
H2    H     H_    0.658377 0.892100 0.710278 0.178664
H3    H     H_    0.518592 0.113193 0.831991 0.224690
H4    H     H_    0.655343 0.116094 0.711877 0.206673
H5    H     H_    0.609528 0.664550 0.126535 0.153111
H6    H     H_    0.610054 0.664172 0.873910 0.143760
H7    H     H_    0.251128 0.432149 0.877753 0.222496
H8    H     H_    0.304901 0.264869 0.877849 0.239331
H9    H     H_    0.250926 0.432315 0.120937 0.223007
H10   H     H_    0.304426 0.265041 0.120723 0.211539
H11   H     H_    0.232841 0.711236 0.641493 0.188720
H12   H     H_    0.883740 0.869315 0.767281 0.178883
H13   H     H_    0.768798 0.710510 0.641834 0.163697
H14   H     H_    0.886015 0.352930 0.366386 0.162167
H15   H     H_    0.436291 0.113469 0.284307 0.174114
H16   H     H_    0.437112 0.885538 0.284451 0.184179
H17   H     H_    0.523531 0.889140 0.832052 0.250261
N1    N     N_R   0.499160 0.499140 0.142800 -0.108554
N2    N     N_R   0.499160 0.499180 0.857150 -0.107017
O1    O     O_R   0.500020 0.316790 0.614690 -0.611748
O2    O     O_R   0.500000 0.316760 0.385350 -0.622089
O3    O     O_R   0.316770 0.500020 0.614690 -0.621502
O4    O     O_R   0.316760 0.499980 0.385350 -0.620289
O5    O     O_R   0.500000 0.683240 0.614650 -0.626752
O6    O     O_R   0.499980 0.683210 0.385310 -0.622866
O7    O     O_R   0.683240 0.500020 0.614650 -0.617447
O8    O     O_R   0.683230 0.499980 0.385310 -0.612066
Zn1   Zn    Zn3+2 0.500010 0.500020 0.653130 0.953883
Zn2   Zn    Zn3+2 0.499990 0.499980 0.346870 0.951818
S1    S     S_3+6 0.149278 0.914566 0.804145 -0.001966
O9    O     O_2   0.186993 0.015788 0.706384 -0.292571
O10   O     O_2   0.068422 0.970735 0.913226 -0.303539
O11   O     O_3   0.279173 0.853137 0.874293 -0.574322
H18   H     H_    0.248624 0.783131 0.931517 0.347287

loop_
_geom_bond_atom_site_label_1
_geom_bond_atom_site_label_2
_ccdc_geom_bond_type
C4    H1    S    
C12   O3    A    
C5    H14   S    
C1    O1    A    
C23   O8    A    
C16   C21   S    
O4    Zn2   S    
C22   O6    A    
C1    C8    S    
C11   C13   A    
C9    C10   A    
C27   H13   S    
C11   C22   S    
C19   C20   S    
C18   N2    A    
C24   H11   S    
S1    O11   S    
C7    C15   S    
C17   C18   A    
C25   C26   A    
C24   C25   A    
C21   H9    S    
C7    C8    A    
C13   C14   S    
C20   C21   S    
C15   H3    S    
C18   H6    S    
C26   H12   S    
C26   C27   A    
C5    C6    A    
C17   H5    S    
C14   H2    S    
C16   C19   A    
C6    C23   S    
N2    Zn1   S    
C2    C3    A    
C14   H17   S    
O7    Zn1   S    
O8    Zn2   S    
N1    Zn2   S    
C2    C24   A    
O11   H18   S    
C19   N2    A    
C9    H15   S    
C25   S1    S    
C10   H16   S    
C3    C4    A    
C20   H8    S    
O3    Zn1   S    
C7    C13   A    
C12   O4    A    
O2    Zn2   S    
C17   N1    A    
C23   O7    A    
C22   O5    A    
C10   C11   A    
C16   N1    A    
C27   C28   A    
O1    Zn1   S    
O6    Zn2   S    
C14   C15   S    
C4    C5    A    
C2    C28   A    
C3    C12   S    
S1    O9    D    
C15   H4    S    
C20   H7    S    
S1    O10   D    
C6    C28   A    
C21   H10   S    
O5    Zn1   S    
C8    C9    A    
C1    O2    A    
